#------------------------------------------------------------------------------
#$Date: 2017-07-11 14:26:40 +0300 (Tue, 11 Jul 2017) $
#$Revision: 198632 $
#$URL: file:///home/coder/svn-repositories/cod/cif/1/54/54/1545469.cif $
#------------------------------------------------------------------------------
#
# This file is available in the Crystallography Open Database (COD),
# http://www.crystallography.net/
#
# All data on this site have been placed in the public domain by the
# contributors.
#
data_1545469
loop_
_publ_author_name
'Frutos, Mar\'ia'
'Ortu\~no, Manuel A'
'Lledos, Agust\'i'
'Viso, Alma'
'Fern\'andez de la Pradilla, Roberto'
'de la Torre, Mar\'ia C'
'Sierra, Miguel A.'
'Gornitzka, Heinz'
'Hemmert, Catherine'
_publ_section_title
;
 Desulfinylation of Ag(I) Sulfinyl Mesoionic Carbenes: Preparation of
 C-Unsubstituted Au(I)-1,2,3-Triazole Carbene Complexes.
;
_journal_issue                   4
_journal_name_full               'Organic letters'
_journal_page_first              822
_journal_page_last               825
_journal_paper_doi               10.1021/acs.orglett.6b03808
_journal_volume                  19
_journal_year                    2017
_chemical_formula_sum            'C9 H9 Au Cl N3'
_chemical_formula_weight         391.61
_chemical_name_systematic
;
 ?
;
_space_group_crystal_system      triclinic
_space_group_IT_number           2
_space_group_name_Hall           '-P 1'
_space_group_name_H-M_alt        'P -1'
_symmetry_space_group_name_Hall  '-P 1'
_symmetry_space_group_name_H-M   'P -1'
_atom_sites_solution_hydrogens   geom
_audit_creation_method           SHELXL-2014
_cell_angle_alpha                77.138(3)
_cell_angle_beta                 82.169(3)
_cell_angle_gamma                83.193(2)
_cell_formula_units_Z            2
_cell_length_a                   6.5022(3)
_cell_length_b                   7.7532(3)
_cell_length_c                   11.0346(6)
_cell_measurement_reflns_used    5380
_cell_measurement_temperature    173(2)
_cell_measurement_theta_max      26.04
_cell_measurement_theta_min      2.96
_cell_volume                     535.03(4)
_computing_cell_refinement       'Bruker SAINT'
_computing_data_collection       'Bruker APEX2'
_computing_data_reduction        'Bruker SAINT'
_computing_molecular_graphics    'Bruker SHELXTL'
_computing_publication_material  'Bruker SHELXTL'
_computing_structure_refinement  'SHELXL-2014 (Sheldrick, 2014)'
_computing_structure_solution    'SHELXS-97 (Sheldrick 2008)'
_diffrn_ambient_temperature      173(2)
_diffrn_measured_fraction_theta_full 0.998
_diffrn_measured_fraction_theta_max 0.973
_diffrn_measurement_device_type  'Bruker APEX-II CCD'
_diffrn_measurement_method       '\f and \w scans'
_diffrn_radiation_type           MoK\a
_diffrn_radiation_wavelength     0.71073
_diffrn_reflns_av_R_equivalents  0.1016
_diffrn_reflns_av_unetI/netI     0.0911
_diffrn_reflns_Laue_measured_fraction_full 0.998
_diffrn_reflns_Laue_measured_fraction_max 0.973
_diffrn_reflns_limit_h_max       9
_diffrn_reflns_limit_h_min       -8
_diffrn_reflns_limit_k_max       11
_diffrn_reflns_limit_k_min       -11
_diffrn_reflns_limit_l_max       15
_diffrn_reflns_limit_l_min       -15
_diffrn_reflns_number            17088
_diffrn_reflns_point_group_measured_fraction_full 0.998
_diffrn_reflns_point_group_measured_fraction_max 0.973
_diffrn_reflns_theta_full        25.242
_diffrn_reflns_theta_max         30.530
_diffrn_reflns_theta_min         3.176
_exptl_absorpt_coefficient_mu    13.960
_exptl_absorpt_correction_T_max  0.7461
_exptl_absorpt_correction_T_min  0.5476
_exptl_absorpt_correction_type   multi-scan
_exptl_absorpt_process_details   'SADABS (Bruker-AXS)'
_exptl_crystal_colour            colourless
_exptl_crystal_density_diffrn    2.431
_exptl_crystal_description       plate
_exptl_crystal_F_000             360
_exptl_crystal_size_max          0.400
_exptl_crystal_size_mid          0.400
_exptl_crystal_size_min          0.100
_refine_diff_density_max         1.345
_refine_diff_density_min         -1.588
_refine_diff_density_rms         0.218
_refine_ls_extinction_method     none
_refine_ls_goodness_of_fit_ref   0.952
_refine_ls_hydrogen_treatment    constr
_refine_ls_matrix_type           full
_refine_ls_number_parameters     128
_refine_ls_number_reflns         3185
_refine_ls_number_restraints     0
_refine_ls_restrained_S_all      0.952
_refine_ls_R_factor_all          0.0670
_refine_ls_R_factor_gt           0.0356
_refine_ls_shift/su_max          0.001
_refine_ls_shift/su_mean         0.000
_refine_ls_structure_factor_coef Fsqd
_refine_ls_weighting_details
'w=1/[\s^2^(Fo^2^)+(0.0083P)^2^] where P=(Fo^2^+2Fc^2^)/3'
_refine_ls_weighting_scheme      calc
_refine_ls_wR_factor_gt          0.0488
_refine_ls_wR_factor_ref         0.0541
_reflns_Friedel_coverage         0.000
_reflns_number_gt                2420
_reflns_number_total             3185
_reflns_threshold_expression     'I > 2\s(I)'
_cod_data_source_file            ol6b03808_si_001.cif
_cod_data_source_block           13d
_cod_depositor_comments
;
The following automatic conversions were performed:

'_exptl_absorpt_correction_type' value 'multi-scans' was replaced
with the value 'multi-scan' as specified in the replacement file
'src/cod-tools/trunk/data/replacement-values/replacement_values.lst'.

Automatic conversion script
Id: cif_fix_values 5376 2017-05-30 11:51:03Z andrius 
;
_cod_original_cell_volume        535.02(4)
_cod_database_code               1545469
#BEGIN Tags that were not found in dictionaries:
_shelx_space_group_comment
;
The symmetry employed for this shelxl refinement is uniquely defined
by the following loop, which should always be used as a source of
symmetry information in preference to the above space-group names.
They are only intended as comments.
;
_shelx_estimated_absorpt_t_min   0.072
_shelx_estimated_absorpt_t_max   0.336
_shelxl_version_number           2014-3
_shelx_res_file
;
TITL mfp763bm in P-1
CELL 0.71073   6.50220   7.75320  11.03460  77.1375  82.1685  83.1929
ZERR    2.00   0.00030   0.00030   0.00060   0.0026   0.0028   0.0024
LATT 1
SFAC C  H  N  Cl Au
UNIT 18  18  6  2  2
OMIT 0 1 1
L.S. 4
ACTA
BOND
FMAP 2
PLAN 20
SIZE 0.100 0.400 0.400
TEMP -100.000
WGHT    0.008300
FVAR       0.13190
MOLE 1
AU1   5    0.237469    0.712331   -0.042981    11.00000    0.02904    0.02963 =
         0.03005   -0.00695   -0.00556   -0.00060
CL1   4    0.436884    0.829064   -0.222231    11.00000    0.03991    0.03978 =
         0.03345   -0.00019    0.00070    0.00611
C1    1    0.071817    0.611204    0.113574    11.00000    0.03119    0.02505 =
         0.04136   -0.01844   -0.00851   -0.00197
C2    1    0.122160    0.484061    0.215504    11.00000    0.02740    0.03057 =
         0.03385   -0.00740   -0.00208   -0.00133
AFIX  43
H2    2    0.255532    0.421587    0.225854    11.00000   -1.20000
AFIX   0
N1    3   -0.135533    0.656579    0.147373    11.00000    0.02788    0.02587 =
         0.03024   -0.00959   -0.00706    0.00107
N2    3   -0.212168    0.568591    0.259209    11.00000    0.02481    0.02990 =
         0.03579   -0.00721   -0.00335    0.00087
N3    3   -0.050472    0.462582    0.298980    11.00000    0.02472    0.02387 =
         0.03563   -0.00766   -0.00447    0.00119
C3    1   -0.276837    0.783733    0.072608    11.00000    0.03424    0.03624 =
         0.04089   -0.00579   -0.01170    0.00884
AFIX 137
H3A   2   -0.418076    0.782652    0.116949    11.00000   -1.50000
H3B   2   -0.276975    0.750993   -0.008191    11.00000   -1.50000
H3C   2   -0.230424    0.903007    0.058821    11.00000   -1.50000
AFIX   0
C4    1   -0.074965    0.346792    0.420058    11.00000    0.02830    0.03077 =
         0.02957   -0.01169   -0.00357   -0.00578
C5    1   -0.274730    0.326676    0.481551    11.00000    0.03376    0.03685 =
         0.04317   -0.00644   -0.00335    0.00203
AFIX  43
H5    2   -0.393366    0.387636    0.444123    11.00000   -1.20000
AFIX   0
C6    1   -0.296463    0.215292    0.598993    11.00000    0.04040    0.04711 =
         0.04956   -0.00602    0.00405   -0.00607
AFIX  43
H6    2   -0.431242    0.200431    0.643312    11.00000   -1.20000
AFIX   0
C7    1   -0.123451    0.126370    0.651398    11.00000    0.06234    0.03484 =
         0.02711   -0.00341   -0.00471   -0.00790
AFIX  43
H7    2   -0.139885    0.050881    0.732019    11.00000   -1.20000
AFIX   0
C8    1    0.073381    0.145300    0.588543    11.00000    0.05341    0.02813 =
         0.04220   -0.00678   -0.01714   -0.00110
AFIX  43
H8    2    0.191701    0.082285    0.625266    11.00000   -1.20000
AFIX   0
C9    1    0.097705    0.255926    0.472328    11.00000    0.03021    0.03283 =
         0.04235   -0.01199   -0.00524   -0.00167
AFIX  43
H9    2    0.232902    0.269590    0.428340    11.00000   -1.20000
AFIX   0
HKLF 4

REM  mfp763bm in P-1
REM R1 =  0.0356 for    2420 Fo > 4sig(Fo)  and  0.0670 for all    3185 data
REM    128 parameters refined using      0 restraints

END

WGHT      0.0083      0.0000

REM Highest difference peak  1.345,  deepest hole -1.588,  1-sigma level  0.218
Q1    1   0.2628  0.7346 -0.0782  11.00000  0.05    1.35
Q2    1   0.1823  0.6977 -0.0005  11.00000  0.05    1.20
Q3    1   0.1747  0.6433 -0.0431  11.00000  0.05    1.17
Q4    1   0.1861  0.7131  0.0761  11.00000  0.05    1.16
Q5    1   0.3009  0.7113 -0.1524  11.00000  0.05    1.14
Q6    1   0.3977  0.6571 -0.0991  11.00000  0.05    1.01
Q7    1   0.1874  0.7931 -0.1214  11.00000  0.05    0.95
Q8    1   0.3141  0.7668 -0.0119  11.00000  0.05    0.95
Q9    1   0.2347  0.6117 -0.1074  11.00000  0.05    0.94
Q10   1   0.2796  0.7725 -0.0347  11.00000  0.05    0.92
Q11   1   0.2739  0.6246  0.0366  11.00000  0.05    0.90
Q12   1   0.1239  0.8940 -0.1787  11.00000  0.05    0.86
Q13   1   0.4662  0.6961 -0.1575  11.00000  0.05    0.86
Q14   1   0.2646  0.5555  0.0273  11.00000  0.05    0.82
Q15   1   0.4605  0.9770 -0.3152  11.00000  0.05    0.81
Q16   1   0.4407  0.6785 -0.0657  11.00000  0.05    0.80
Q17   1   0.2133  0.8132  0.0196  11.00000  0.05    0.80
Q18   1   0.0706  0.7391  0.0213  11.00000  0.05    0.73
Q19   1  -0.1305  0.5759  0.0748  11.00000  0.05    0.73
Q20   1   0.4008  0.6989 -0.2082  11.00000  0.05    0.73
;
_shelx_res_checksum              47510
_shelx_hkl_file
;
  -1   0   0   43.44    2.71
  -1   0   0   46.51    2.28
   1   0   0   44.84    2.27
   1   0   0   42.40    2.25
   1   0   0   44.10    2.67
  -2   0   0  266.22   13.43
  -2   0   0  271.42   13.47
  -2   0   0  271.38   12.66
  -2   0   0  265.80   12.69
   2   0   0  268.63   12.67
   2   0   0  220.80   24.42
   2   0   0  261.25   13.46
   2   0   0  270.26   12.69
   2   0   0  284.53   13.58
  -3   0   0   23.94    1.66
  -3   0   0   22.10    3.02
  -3   0   0   29.43    3.36
  -3   0   0   24.11    1.66
   3   0   0   25.63    3.23
   3   0   0   21.09    1.75
   3   0   0   23.27    2.94
   3   0   0   28.95    3.49
   3   0   0   23.08    1.64
  -4   0   0  116.49    7.61
  -4   0   0  109.49    7.49
  -4   0   0  117.75    6.03
   4   0   0  116.49    7.77
   4   0   0  114.29    7.74
   4   0   0  112.07    6.08
  -5   0   0    7.80    2.70
  -5   0   0    2.23    1.29
  -5   0   0    4.94    2.58
  -5   0   0    5.72    1.15
   5   0   0   11.55    6.22
   5   0   0    5.96    1.38
   5   0   0   12.32    4.35
   5   0   0    3.68    1.01
   5   0   0    7.07    2.80
  -6   0   0   77.06    4.38
  -6   0   0   84.81    7.11
   6   0   0   83.42    4.66
   6   0   0   58.33    5.38
   6   0   0   75.78    7.02
  -7   0   0    6.62    1.57
  -7   0   0    2.93    3.19
  -7   0   0    3.01    1.70
   7   0   0    5.40    1.85
   7   0   0    9.16    5.63
   7   0   0   14.61    8.05
  -8   0   0    6.93    1.82
  -8   0   0    5.78    2.19
  -8   0   0    5.42    4.14
   8   0   0    8.76    6.22
   8   0   0    8.40    2.27
   9   0   0    5.92    6.41
   8  -1   0    0.00    1.67
   8  -1   0   -0.62    5.74
  -8   1   0    0.91    1.80
  -8   1   0    1.84    1.54
  -8   1   0   -2.38    3.41
   7  -1   0   35.99   10.62
   7  -1   0   32.07    3.10
   7  -1   0   31.31    7.71
  -7   1   0   27.11    2.80
  -7   1   0   33.44    5.71
   6  -1   0   -1.44    6.07
   6  -1   0    2.45    4.43
   6  -1   0    1.43    2.49
   6  -1   0    1.96    1.35
  -6   1   0    5.96    3.05
  -6   1   0    0.82    1.11
  -6   1   0    1.21    1.40
   5  -1   0  122.35   13.64
   5  -1   0  107.72    8.08
   5  -1   0  112.92    6.14
  -5   1   0  111.14    8.04
  -5   1   0  108.44    8.07
  -5   1   0  110.16    6.05
   4  -1   0    1.83    1.86
   4  -1   0    2.42    0.83
   4  -1   0    2.38    0.78
   4  -1   0    5.38    3.27
   4  -1   0    3.30    2.26
   4  -1   0    8.03    5.70
  -4   1   0    2.07    0.78
  -4   1   0    4.60    1.91
  -4   1   0    1.05    0.96
  -4   1   0    5.22    2.74
  -4   1   0    1.84    1.92
   3  -1   0  167.05   15.89
   3  -1   0  172.51   14.25
   3  -1   0  148.69    7.63
   3  -1   0  151.78    8.95
   3  -1   0  150.92    7.59
  -3   1   0  146.42    8.77
  -3   1   0  144.47    7.59
  -3   1   0  143.30    7.55
  -3   1   0  151.78    8.76
   2  -1   0   31.65    2.63
   2  -1   0   35.20    6.00
   2  -1   0   27.99    1.75
   2  -1   0   28.46    3.91
   2  -1   0   30.03    2.71
   2  -1   0   31.09    1.75
  -2   1   0   29.03    1.74
  -2   1   0   29.32    2.61
  -2   1   0   31.24    2.51
  -2   1   0   29.31    1.74
   1  -1   0  623.67   28.09
   1  -1   0  584.62   28.12
   1  -1   0  557.39   40.03
   1  -1   0  603.96   27.77
   1  -1   0  571.34   27.78
  -1   1   0  591.93   27.78
  -1   1   0  588.35   28.12
  -1  -1   0  195.04    8.77
  -1  -1   0  160.75    9.01
  -1  -1   0  211.08   13.10
  -1  -1   0  184.95    9.18
  -1  -1   0  183.81    8.71
   1   1   0  188.09    9.23
   1   1   0  152.74   17.53
   1   1   0  178.89    8.71
  -2  -1   0   10.79    1.19
  -2  -1   0   19.68    2.21
  -2  -1   0   17.68    2.06
  -2  -1   0   13.44    0.95
  -2  -1   0   13.75    1.05
   2   1   0   13.62    1.08
   2   1   0   13.07    0.95
   2   1   0   13.00    1.99
   2   1   0   11.81    2.71
   2   1   0   14.72    2.03
  -3  -1   0  121.40    6.01
  -3  -1   0  123.58    7.26
  -3  -1   0  118.79    7.25
  -3  -1   0  120.78    5.93
   3   1   0  119.40    6.04
   3   1   0  120.72    7.32
   3   1   0  116.68    7.37
   3   1   0  116.49    5.94
   3   1   0   95.20   11.88
  -4  -1   0   53.10    4.61
  -4  -1   0   46.20    2.87
  -4  -1   0   51.48    4.50
   4   1   0   40.30    4.78
   4   1   0   52.93    4.69
   4   1   0   47.23    2.98
   4   1   0   43.87    5.82
  -5  -1   0   96.69    5.31
  -5  -1   0  101.01    7.42
  -5  -1   0   99.35    7.43
   5   1   0   88.42    7.41
   5   1   0   98.17    7.59
   5   1   0   96.58    5.49
  -6  -1   0   21.05    2.26
  -6  -1   0   16.83    4.17
  -6  -1   0   16.36    2.57
   6   1   0   22.94    4.52
   6   1   0   22.54    2.59
   6   1   0   44.07    7.24
  -7  -1   0    8.13    1.73
  -7  -1   0    4.58    3.33
  -7  -1   0    6.92    1.94
   7   1   0    6.54    1.84
   7   1   0   16.18    5.68
   7   1   0    7.16    7.19
  -8  -1   0   10.88    2.16
   8   1   0   10.83    2.28
   8   1   0   14.28    6.30
   9   1   0    0.90    5.87
   8  -2   0   14.11    2.41
   8  -2   0    9.96    9.85
   8  -2   0   11.89    7.21
  -8   2   0   14.98    2.22
  -8   2   0    7.50    2.68
  -8   2   0   18.70    5.08
   7  -2   0    0.82    5.10
   7  -2   0   -0.81    1.33
   7  -2   0    4.38    8.76
  -7   2   0    3.25    3.93
  -7   2   0    0.79    1.58
  -7   2   0    1.06    1.29
   6  -2   0   86.71   11.50
   6  -2   0   76.45    4.79
   6  -2   0   77.09   15.35
  -6   2   0   78.27    7.47
  -6   2   0   75.94    4.71
   5  -2   0    5.69    4.31
   5  -2   0    2.82    6.31
   5  -2   0    2.97    1.14
   5  -2   0    4.24    2.30
  -5   2   0    2.91    2.18
  -5   2   0    5.53    1.13
  -5   2   0    0.67    1.26
  -5   2   0   10.05    3.86
  -5   2   0    3.57    2.72
   4  -2   0   70.46   12.19
   4  -2   0   72.14    8.23
   4  -2   0   54.75    3.32
   4  -2   0   61.98    4.91
   4  -2   0   45.38    7.38
   4  -2   0   58.85    3.36
  -4   2   0   57.37    3.35
  -4   2   0   60.96    5.02
  -4   2   0   51.68    4.65
   3  -2   0   16.50    6.71
   3  -2   0   16.92    2.66
   3  -2   0   20.79    4.38
   3  -2   0   20.96    2.73
   3  -2   0   16.06    1.37
   3  -2   0   17.90    4.09
   3  -2   0   16.01    1.32
  -3   2   0   18.65    2.83
  -3   2   0   16.24    1.28
  -3   2   0   18.92    2.72
  -3   2   0   16.76    1.36
   2  -2   0  264.19   22.22
   2  -2   0  328.64   21.63
   2  -2   0  261.12   13.31
   2  -2   0  266.90   14.14
   2  -2   0  290.14   14.08
   2  -2   0  274.57   13.29
  -2   2   0  265.53   14.10
  -2   2   0  271.33   14.04
  -2   2   0  271.39   13.34
  -2   2   0  296.74   27.64
   1  -2   0   62.27    7.77
   1  -2   0   70.40    3.59
   1  -2   0   64.73    3.73
   1  -2   0   69.74    6.30
  -1   2   0   70.43    3.32
  -1   2   0   70.19    3.37
  -1   2   0   57.45    7.26
  -1   2   0   70.18    3.88
  -1   2   0   68.56    3.69
   0  -2   0  431.58   27.68
   0  -2   0  387.53   27.81
   0   2   0  351.82   27.63
   0   2   0  358.31   36.44
   0   2   0  397.66   18.22
   0   2   0  391.35   18.20
  -1  -2   0   27.25    1.38
  -1  -2   0   27.12    1.36
  -1  -2   0   25.44    1.90
   1   2   0   31.11    1.98
   1   2   0   23.24    1.39
   1   2   0   22.90    2.00
   1   2   0   23.44    1.34
   1   2   0   18.42    3.91
  -2  -2   0  153.40    7.87
  -2  -2   0  149.46   10.13
  -2  -2   0  148.84    6.96
  -2  -2   0  146.59    6.87
  -2  -2   0  113.13    7.39
   2   2   0  135.54    7.68
   2   2   0  145.42    7.96
   2   2   0  126.43   14.60
   2   2   0  143.24    6.97
   2   2   0  135.42    6.86
  -3  -2   0   87.02    5.61
  -3  -2   0   88.30    5.59
  -3  -2   0   86.67    4.33
  -3  -2   0   83.72    4.19
  -3  -2   0   83.41    5.94
   3   2   0   73.88    5.65
   3   2   0   61.56    9.10
   3   2   0   76.78    4.31
   3   2   0   79.54    5.50
   3   2   0   74.24    4.17
  -4  -2   0  139.74    8.62
  -4  -2   0  140.18    6.86
  -4  -2   0  143.16    8.64
  -4  -2   0  134.82    9.87
   4   2   0  131.03    8.56
   4   2   0  112.78   14.10
   4   2   0  122.54    8.57
   4   2   0  138.35    7.00
  -5  -2   0   47.63    7.75
  -5  -2   0   47.07    5.37
  -5  -2   0   46.16    3.93
  -5  -2   0   46.12    2.99
   5   2   0   43.72    3.17
   5   2   0   48.65    5.83
   5   2   0   45.64    5.69
   5   2   0   47.59    6.68
  -6  -2   0   13.84    1.81
  -6  -2   0   13.74    3.70
  -6  -2   0   15.05    2.14
   6   2   0   28.81    5.97
   6   2   0   15.37    2.21
   6   2   0   15.61    4.17
  -7  -2   0   20.69    2.48
   7   2   0   15.22    2.36
   7   2   0   21.33    5.16
   7   2   0   22.07    6.17
  -8  -2   0    1.97    1.57
   8   2   0    0.57    4.57
   8   2   0    2.13    1.69
   8  -3   0   -0.97    6.70
   8  -3   0    2.25   10.22
  -8   3   0    2.01    1.97
  -8   3   0   -2.15    3.52
  -8   3   0    2.92    1.54
   7  -3   0   28.60    8.36
   7  -3   0   27.88   12.66
   7  -3   0   29.44    2.66
  -7   3   0   16.98    3.52
  -7   3   0   28.72    2.72
  -7   3   0   27.42    5.27
   6  -3   0   -4.15    7.11
   6  -3   0    1.30    1.11
   6  -3   0    0.02    4.87
  -6   3   0   -0.12    1.57
  -6   3   0    0.62    1.07
  -6   3   0   -1.55    2.62
  -6   3   0    4.15    3.86
   5  -3   0   40.45    2.87
   5  -3   0   45.66    8.68
   5  -3   0   37.42   11.47
   5  -3   0   44.25    5.21
   5  -3   0   45.74    2.97
  -5   3   0   47.97    3.08
  -5   3   0   42.61    5.12
  -5   3   0   53.27    5.74
   4  -3   0    1.43    6.39
   4  -3   0    6.52    4.10
   4  -3   0    4.42    0.89
   4  -3   0    7.45    2.19
   4  -3   0    4.29    0.87
  -4   3   0    3.56    2.41
  -4   3   0   10.48    3.57
  -4   3   0    5.26    1.01
  -4   3   0    7.65    2.23
   3  -3   0  144.44    7.13
   3  -3   0  135.62    7.15
   3  -3   0  143.32   16.40
   3  -3   0  149.54    8.34
   3  -3   0  151.76   13.48
  -3   3   0  142.97    8.38
  -3   3   0  147.62    8.56
  -3   3   0  168.21   15.96
  -3   3   0  135.35    7.26
   2  -3   0  108.85    5.74
   2  -3   0   97.96    9.81
   2  -3   0   94.30    5.88
   2  -3   0  102.20   12.59
  -2   3   0  100.35    5.12
  -2   3   0  103.54    5.89
  -2   3   0  115.57   11.13
  -2   3   0  103.83    6.09
  -2   3   0   92.01   11.66
  -2   3   0  105.51    5.20
   1  -3   0  188.37   16.25
   1  -3   0  219.57   18.64
  -1   3   0  213.79   10.11
  -1   3   0  208.60    9.72
  -1   3   0  207.99   10.33
  -1   3   0  209.67    9.79
  -1   3   0  187.69   20.48
   0  -3   0   47.65    5.23
   0  -3   0   41.21    8.61
   0  -3   0   51.27    7.89
   0   3   0   35.47    5.81
   0   3   0   41.94    2.51
   0   3   0   41.00    2.44
   0   3   0   40.58    4.57
  -1  -3   0   64.51   10.61
  -1  -3   0   81.94    3.81
  -1  -3   0   86.09    4.44
  -1  -3   0   86.08    4.56
   1   3   0   77.10    6.98
   1   3   0   82.51    3.95
   1   3   0   79.68    4.67
   1   3   0   80.30    4.48
   1   3   0   77.92    3.99
   1   3   0   75.97    9.76
  -2  -3   0  127.87    7.10
  -2  -3   0  142.25    6.37
  -2  -3   0  135.55    7.33
  -2  -3   0  129.59    6.27
  -2  -3   0  104.81   14.86
   2   3   0  127.49    6.39
   2   3   0  125.93    7.19
   2   3   0  121.37    9.31
   2   3   0  136.27    7.62
   2   3   0  116.96   14.20
   2   3   0  126.52    6.29
  -3  -3   0   99.93    6.28
  -3  -3   0   96.82    4.73
  -3  -3   0  101.68    4.88
  -3  -3   0   79.56   11.93
  -3  -3   0   87.64    5.78
   3   3   0   90.42    6.05
   3   3   0   93.57    6.37
   3   3   0   85.30    4.72
   3   3   0   80.34   10.91
   3   3   0   89.97    4.85
  -4  -3   0  109.70    5.59
  -4  -3   0  117.41    7.82
  -4  -3   0  110.01    7.20
  -4  -3   0   89.15   13.34
   4   3   0   88.25   12.31
   4   3   0  103.02    5.75
   4   3   0  105.11    7.57
   4   3   0  104.86    7.29
  -5  -3   0   16.76    1.73
  -5  -3   0   13.81    1.64
  -5  -3   0   13.10    6.47
  -5  -3   0   17.50    3.49
   5   3   0   17.10    3.70
   5   3   0    9.41    2.26
   5   3   0   14.84    1.90
   5   3   0   17.35    3.80
  -6  -3   0   32.60    2.57
  -6  -3   0   41.80    5.55
  -6  -3   0   25.32    2.62
   6   3   0   28.93    5.59
   6   3   0   18.55    3.45
   6   3   0   31.03    2.86
  -7  -3   0   -0.07    1.15
   7   3   0   -2.91    2.81
   7   3   0    4.60    4.27
   7   3   0    1.86    1.50
   7   3   0    0.73    1.52
  -8  -3   0   24.65    2.89
   8   3   0   20.94    6.27
   8   3   0   18.32    3.00
   8  -4   0   30.31   14.69
  -8   4   0   13.37    2.17
  -8   4   0   13.28    3.59
  -8   4   0   17.09    5.11
   7  -4   0    4.18    6.82
   7  -4   0    3.19   10.82
  -7   4   0    4.26    2.07
  -7   4   0    3.74    3.53
  -7   4   0    5.10    1.51
   6  -4   0   22.93   12.19
   6  -4   0   33.59    8.82
  -6   4   0   35.53    5.31
  -6   4   0   27.67    2.57
   5  -4   0   11.46   11.12
   5  -4   0   12.44    1.32
   5  -4   0   16.21    6.33
  -5   4   0   23.69    5.64
  -5   4   0   12.33    1.66
  -5   4   0   12.22    3.38
   4  -4   0   42.07    2.36
   4  -4   0   47.53   12.97
   4  -4   0   39.70    2.38
   4  -4   0   42.04    8.19
   4  -4   0   42.50    3.95
  -4   4   0   43.15    2.75
  -4   4   0   58.99    7.64
  -4   4   0   41.25    4.65
  -4   4   0   47.09    4.41
   3  -4   0  103.77   16.86
   3  -4   0   91.34   10.70
   3  -4   0  105.77   12.17
   3  -4   0  100.47    5.84
  -3   4   0  105.40   12.13
  -3   4   0   94.94    5.10
  -3   4   0   98.62    6.23
  -3   4   0   92.53    6.37
   2  -4   0  105.06   10.86
   2  -4   0  107.97   14.21
   2  -4   0  109.95   13.48
  -2   4   0  121.74   12.44
  -2   4   0  112.13    6.48
  -2   4   0   93.12   12.84
  -2   4   0  118.77    6.29
  -2   4   0  110.36    5.55
  -2   4   0  109.89    5.47
   1  -4   0  105.11   10.30
   1  -4   0  111.40   13.35
   1  -4   0   85.45   12.85
  -1   4   0  106.42    5.80
  -1   4   0  104.26    5.02
  -1   4   0  104.15    5.11
  -1   4   0  107.99    5.48
  -1   4   0  106.04   12.14
   0  -4   0   45.46    9.29
   0  -4   0   36.66    9.25
   0  -4   0   45.44    5.97
   0   4   0   39.60    1.95
   0   4   0   34.69    4.71
   0   4   0   38.01    2.83
   0   4   0   36.28    6.42
   0   4   0   40.39    1.94
   0   4   0   38.44    2.57
  -1  -4   0  126.30    6.36
  -1  -4   0  106.82   15.53
  -1  -4   0  139.38    6.30
   1   4   0  126.33    6.13
   1   4   0  112.71   10.42
   1   4   0  130.98    6.68
   1   4   0  110.61   14.32
   1   4   0  127.78    6.09
   1   4   0  124.85    6.98
  -2  -4   0   28.64    8.79
  -2  -4   0   31.32    1.77
  -2  -4   0   33.76    2.67
  -2  -4   0   32.53    1.74
   2   4   0   31.23    2.59
   2   4   0   30.14    1.80
   2   4   0   33.62    2.96
   2   4   0   32.32    3.21
   2   4   0   25.68    1.90
  -3  -4   0  133.09    7.86
  -3  -4   0  132.49    6.67
  -3  -4   0  150.80    6.81
  -3  -4   0  100.72   16.13
   3   4   0  129.68    6.84
   3   4   0  134.32    8.49
   3   4   0  143.11    8.18
   3   4   0  130.24    9.71
  -4  -4   0   20.83    8.27
  -4  -4   0   17.51    1.56
  -4  -4   0   21.62    3.53
  -4  -4   0   19.80    1.68
   4   4   0   22.46    3.56
   4   4   0   15.53    3.35
   4   4   0   16.57    1.79
  -5  -4   0   51.01    3.04
  -5  -4   0   44.57    5.23
  -5  -4   0   43.21   11.40
   5   4   0   44.42    5.87
   5   4   0   44.13    3.36
   5   4   0   49.01    5.87
  -6  -4   0   -0.91    1.02
  -6  -4   0   -0.97    4.68
   6   4   0    0.33    2.84
   6   4   0    0.52    1.19
   6   4   0   -0.32    1.60
  -7  -4   0   27.54    2.67
   7   4   0   21.29    5.59
   7   4   0   23.47    2.84
   7   4   0   16.40    3.59
  -8  -4   0   -2.15    1.29
   8   4   0   -0.28    1.73
   7  -5   0    6.99    7.76
   7  -5   0    4.09   12.69
  -7   5   0    8.51    1.74
  -7   5   0   10.82    4.30
  -7   5   0    6.17    2.41
   6  -5   0    3.47    5.93
   6  -5   0    1.98   11.58
  -6   5   0    2.88    2.02
  -6   5   0    4.95    1.35
  -6   5   0    8.99    5.01
  -6   5   0    6.39    3.47
   5  -5   0    5.10   10.28
   5  -5   0   12.08    6.47
  -5   5   0   14.14    5.24
  -5   5   0   11.11    1.56
  -5   5   0    4.26    2.94
   4  -5   0   34.08   13.45
   4  -5   0   53.71    8.61
   4  -5   0   42.13    8.84
  -4   5   0   34.32    4.31
  -4   5   0   41.99    4.72
  -4   5   0   36.41    2.68
  -4   5   0   57.97    8.32
   3  -5   0   41.66    8.82
   3  -5   0   31.55   12.03
   3  -5   0   28.89    6.96
  -3   5   0   24.52    2.69
  -3   5   0   30.06    3.51
  -3   5   0   38.98    7.08
  -3   5   0   36.26    3.31
   2  -5   0   87.65   15.60
   2  -5   0   75.95    9.24
   2  -5   0   58.02   10.87
  -2   5   0   67.21    4.68
  -2   5   0   70.34    3.70
  -2   5   0   56.78    9.88
  -2   5   0   68.41    3.59
  -2   5   0   69.55    4.37
  -2   5   0   90.77    9.83
   1  -5   0   22.31    5.25
   1  -5   0   27.82    9.43
   1  -5   0   28.35    8.81
  -1   5   0   12.73    5.08
  -1   5   0   22.86    2.32
  -1   5   0   25.01    1.32
  -1   5   0   26.61    1.97
  -1   5   0   24.05    1.49
   0  -5   0  111.27   10.14
   0  -5   0  116.49   13.67
   0  -5   0   82.28   13.74
   0   5   0   94.18    4.53
   0   5   0   92.89    5.49
   0   5   0   96.88    9.01
   0   5   0   85.90    4.50
  -1  -5   0    1.51    4.90
  -1  -5   0    2.13    5.76
   1   5   0   -0.79    0.89
   1   5   0    0.22    1.21
   1   5   0    0.02    1.81
   1   5   0   -0.26    1.05
   1   5   0    0.45    0.40
   1   5   0    0.00    0.32
  -2  -5   0  108.43    6.43
  -2  -5   0  103.33   16.00
   2   5   0  122.05    6.76
   2   5   0  118.43    7.12
   2   5   0  118.97    5.73
   2   5   0  111.01    5.57
   2   5   0  105.61    8.35
   2   5   0  102.01    9.79
  -3  -5   0    2.88    0.61
  -3  -5   0    3.61    5.90
  -3  -5   0    3.24    0.67
  -3  -5   0    0.34    1.48
   3   5   0    0.58    1.34
   3   5   0    4.39    2.06
   3   5   0    3.69    0.82
   3   5   0    3.81    0.92
   3   5   0    2.34    2.25
  -4  -5   0   34.97   11.29
  -4  -5   0   45.31    2.79
  -4  -5   0   44.45    2.73
  -4  -5   0   45.88    4.37
   4   5   0   47.52    5.69
   4   5   0   42.63    4.92
   4   5   0   43.64    3.04
  -5  -5   0   -0.47    0.83
  -5  -5   0   -2.38    5.68
   5   5   0    1.57    2.86
   5   5   0    0.60    1.14
   5   5   0   -0.41    1.56
  -6  -5   0   28.32    2.47
  -6  -5   0   24.40    9.89
   6   5   0   31.26    3.03
   6   5   0   24.93    5.23
  -7  -5   0    0.87    1.32
   7   5   0    2.24    2.25
   7   5   0    1.45    1.52
   7   5   0   -4.58    2.68
  -8  -5   0   10.09    2.13
   8   5   0    4.02    2.77
   8   5   0    7.21    2.40
   7  -6   0   -4.56   13.22
   6  -6   0    7.93   12.65
   6  -6   0    8.45    7.68
  -6   6   0    5.75    3.51
  -6   6   0    3.16    2.03
   5  -6   0   19.41   13.16
   5  -6   0   13.63    7.48
  -5   6   0   25.30    6.90
  -5   6   0   22.00    4.10
  -5   6   0   20.63    2.02
   4  -6   0   18.19    6.99
   4  -6   0   12.79    6.81
   4  -6   0    8.11   11.58
  -4   6   0    9.30    2.59
  -4   6   0   10.03    2.84
  -4   6   0    9.89    5.20
  -4   6   0   11.04    1.38
   3  -6   0   60.27   10.44
   3  -6   0   63.34   10.95
   3  -6   0   58.47   16.39
  -3   6   0   66.65    4.43
  -3   6   0   42.78    4.52
  -3   6   0   59.76    9.96
  -3   6   0   62.44    4.81
   2  -6   0   21.90   11.24
   2  -6   0    9.45    6.58
   2  -6   0   14.19    5.68
  -2   6   0   13.15    1.28
  -2   6   0   13.01    2.26
  -2   6   0   14.99    1.09
  -2   6   0   12.97    1.93
  -2   6   0   10.75    5.22
   1  -6   0   66.63    9.36
   1  -6   0   92.75   16.04
   1  -6   0   55.48   13.53
  -1   6   0   59.38    3.74
  -1   6   0   61.04    3.02
  -1   6   0   39.54    9.61
  -1   6   0   62.88    3.23
  -1   6   0   59.76    4.03
   0  -6   0    1.25    7.88
   0  -6   0    0.84    6.24
   0   6   0    0.58    0.36
   0   6   0    0.71    0.87
   0   6   0   -0.37    2.94
   0   6   0    0.99    0.42
   0   6   0    0.74    1.61
   0   6   0    0.08    1.06
  -1  -6   0   84.01   15.60
   1   6   0   88.25    4.63
   1   6   0   99.60    5.50
   1   6   0   93.80    4.75
   1   6   0   97.48    6.02
   1   6   0   93.92    9.85
  -2  -6   0   -0.93    6.09
   2   6   0    0.35    1.56
   2   6   0   -0.30    1.25
   2   6   0    2.75    1.98
   2   6   0    2.23    2.37
   2   6   0    1.38    0.69
   2   6   0    2.29    0.81
  -3  -6   0   60.16    4.74
  -3  -6   0   63.28   15.82
   3   6   0   55.21    4.73
   3   6   0   66.78    5.23
   3   6   0   64.53    3.62
   3   6   0   50.00    6.70
   3   6   0   64.34    5.63
  -4  -6   0    1.23    0.72
  -4  -6   0   -3.33    5.96
   4   6   0    0.81    1.02
   4   6   0    2.05    2.76
   4   6   0    0.09    1.62
  -5  -6   0   26.90   11.55
  -5  -6   0   30.55    2.32
   5   6   0   42.49    6.16
   5   6   0   30.93    2.85
  -6  -6   0    3.19    1.22
  -6  -6   0   -0.36    6.71
   6   6   0    5.24    1.60
   6   6   0    2.73    2.28
   6   6   0    1.08    3.43
  -7  -6   0   12.63    8.57
   7   6   0    4.69    2.80
   7   6   0   10.78    4.83
   7   6   0   13.33    2.37
  -8  -6   0   -0.72    1.44
   8   6   0    1.77    2.35
   8   6   0    9.18    4.98
   6  -7   0    4.40   13.52
   5  -7   0   11.16   13.45
   5  -7   0   -7.35    6.37
  -5   7   0    3.63    2.01
  -5   7   0    0.05    2.47
  -5   7   0   -1.91    4.34
   4  -7   0   36.50   10.12
   4  -7   0   46.99   11.12
   4  -7   0   39.68   16.01
  -4   7   0   31.58    4.27
  -4   7   0   35.79    8.86
   3  -7   0    5.16    6.03
   3  -7   0    4.95   12.01
   3  -7   0    2.91    5.75
  -3   7   0    5.89    2.12
  -3   7   0    1.37    1.36
  -3   7   0    7.43    1.92
  -3   7   0    1.33    4.79
   2  -7   0   33.69   14.41
   2  -7   0   39.25   11.48
   2  -7   0   41.08    8.77
  -2   7   0   18.88    3.23
  -2   7   0   22.38    7.42
  -2   7   0   28.29    2.77
  -2   7   0   34.60    3.13
   1  -7   0   -0.02    5.99
   1  -7   0    8.38   10.78
   1  -7   0   -2.75    4.60
  -1   7   0    0.88    1.13
  -1   7   0    0.42    1.29
  -1   7   0    0.58    1.38
  -1   7   0   -0.39    3.70
   0  -7   0   45.14   14.54
   0  -7   0  108.37   18.55
   0   7   0   57.52    3.16
   0   7   0   62.41    3.65
   0   7   0   53.64    4.69
  -1  -7   0    4.09    9.47
  -1  -7   0    1.20    7.31
   1   7   0    1.71    1.94
   1   7   0    2.60    1.79
   1   7   0    2.12    0.70
   1   7   0    0.47    1.36
  -2  -7   0   46.84   15.14
   2   7   0   60.96    5.30
   2   7   0   62.96    4.79
   2   7   0   54.07    3.31
  -3  -7   0    6.21    9.21
   3   7   0    2.81    2.33
   3   7   0    1.95    2.53
   3   7   0    3.57    1.06
   3   7   0    1.96    1.98
  -4  -7   0   29.10   13.02
   4   7   0   24.34    2.38
   4   7   0   28.78    4.85
  -5  -7   0   10.13    9.49
   5   7   0   14.79    4.60
   5   7   0   15.27    2.25
  -6  -7   0   11.91   10.13
   6   7   0    9.14    3.15
   6   7   0    6.84    4.00
   6   7   0   13.42    2.34
  -7  -7   0    5.65    8.46
   7   7   0    2.66    1.93
   7   7   0    2.70    4.05
   7   7   0    1.34    2.45
   5  -8   0   25.27   17.06
   4  -8   0   -1.50    7.39
   4  -8   0   11.50   14.58
   4  -8   0    0.01    6.05
  -4   8   0    0.34    5.24
  -4   8   0   -0.37    2.13
  -4   8   0    1.68    1.69
   3  -8   0   26.34   15.98
   3  -8   0   20.83    9.06
   3  -8   0   25.64   10.59
  -3   8   0   30.82    3.44
  -3   8   0   20.72    2.94
  -3   8   0   22.34    8.43
   2  -8   0    7.50   12.54
   2  -8   0    6.59    6.98
   2  -8   0   -0.14    6.51
  -2   8   0    1.91    5.24
  -2   8   0   -0.02    1.36
  -2   8   0    2.38    1.61
  -2   8   0    0.00    1.41
   1  -8   0   42.59   15.64
   1  -8   0   23.91   11.63
  -1   8   0   15.19    7.21
  -1   8   0   26.75    2.12
  -1   8   0   30.73    2.51
   0  -8   0   15.82   13.01
   0  -8   0    0.84    9.03
   0   8   0    5.38    5.08
   0   8   0    4.18    2.00
   0   8   0    2.65    1.89
   0   8   0    6.78    1.39
  -1  -8   0   43.85   15.80
  -1  -8   0  101.46   19.81
   1   8   0   49.27    4.03
   1   8   0   51.83    5.04
  -2  -8   0    8.61   10.97
   2   8   0    5.98    2.70
   2   8   0    8.48    2.39
   2   8   0    2.86    2.23
  -3  -8   0    8.50   10.86
   3   8   0   17.95    3.70
   3   8   0    9.41    2.95
  -4  -8   0   21.06   13.00
   4   8   0   18.28    2.21
   4   8   0   11.14    3.31
   4   8   0   18.23    4.44
  -5  -8   0    6.82   11.08
   5   8   0    6.97    1.80
   5   8   0    7.79    4.08
   5   8   0    3.74    2.45
  -6  -8   0    8.91   11.26
   6   8   0    3.06    4.15
   6   8   0    3.35    2.75
   6   8   0    3.70    1.73
   4  -9   0   18.04   17.52
   3  -9   0    0.20    7.29
   3  -9   0   -2.84   13.66
   3  -9   0    2.60    7.20
  -3   9   0   -0.12    4.99
  -3   9   0    1.55    1.63
  -3   9   0    4.64    2.07
   2  -9   0   17.74    8.43
   2  -9   0    5.62    8.99
   2  -9   0   17.28   15.68
  -2   9   0    7.60    6.78
  -2   9   0   12.38    1.40
   1  -9   0    5.87   10.03
   1  -9   0    9.92   14.27
  -1   9   0    4.07    2.20
  -1   9   0    6.10    5.53
   0  -9   0   30.39   16.67
   0  -9   0   18.66   13.23
   0   9   0    8.81    6.14
   0   9   0   10.51    3.01
   0   9   0   19.82    2.16
   0   9   0   21.71    2.05
  -1  -9   0    5.38   10.12
  -1  -9   0   16.44   14.37
   1   9   0    4.33    2.73
   1   9   0    6.73    1.99
   1   9   0    5.66    5.26
   1   9   0    4.71    2.34
  -2  -9   0   10.04   12.07
   2   9   0    4.63    2.57
   2   9   0    6.05    2.91
  -3  -9   0    1.45   11.59
   3   9   0    5.77    2.77
   3   9   0    8.98    3.49
  -4  -9   0    6.38   11.82
   4   9   0    7.89    3.73
   4   9   0    3.12    2.75
  -5  -9   0    0.41   10.60
   2 -10   0    8.33   10.70
   2 -10   0   14.64   16.84
  -2  10   0    4.91    6.66
  -2  10   0    9.41    2.51
   1 -10   0   35.32   20.29
   1 -10   0    1.61   10.42
  -1  10   0    9.09    2.31
  -1  10   0    4.82    6.44
  -1  10   0    1.28    2.07
   0 -10   0    5.66   11.11
   0 -10   0   18.76   17.50
   0  10   0    8.90    6.32
   0  10   0    3.43    2.51
   0  10   0    6.30    1.95
  -1 -10   0   12.09   13.57
   1  10   0    5.74    2.64
   1  10   0   11.49    2.21
   1  10   0   11.66    6.54
   1  10   0    6.72    3.04
  -2 -10   0   10.31   13.82
   2  10   0   10.00    5.85
   2  10   0   10.43    3.46
   2  10   0    4.29    2.82
  -3 -10   0    9.13   14.21
  -4 -10   0    7.97   13.89
  -3 -10   1   -2.89   12.90
   2  10  -1   -0.66    2.34
  -2 -10   1   -5.27   11.60
   1  10  -1    5.93    5.24
   1  10  -1    1.77    2.59
   1  10  -1    2.27    3.17
  -1 -10   1    3.41   11.83
   0  10  -1    3.13    1.89
   0  10  -1   -1.80    4.47
   0  10  -1    0.98    2.23
   0  10  -1    3.48    1.42
   0 -10   1    6.20   12.18
  -1  10  -1   11.02    7.42
   1 -10   1   16.26   17.94
   1 -10   1   13.47   12.28
  -2  10  -1   -4.11    5.81
   2 -10   1   -4.09   16.69
   2 -10   1   -2.97    7.64
  -5  -9   1    0.95   11.55
   4   9  -1    3.56    2.99
   4   9  -1    7.99    4.22
  -4  -9   1   13.11   13.39
   3   9  -1    2.36    2.58
   3   9  -1    2.26    3.28
  -3  -9   1    1.84   10.59
   2   9  -1    6.42    3.37
   2   9  -1    6.17    2.89
   2   9  -1    6.90    5.30
  -2  -9   1   14.34   13.17
   1   9  -1    4.38    3.23
   1   9  -1    3.16    5.05
   1   9  -1    3.88    2.53
   1   9  -1    2.55    1.96
  -1  -9   1   -0.19    9.93
   0   9  -1   12.59    6.73
   0   9  -1   23.12    3.41
   0   9  -1   22.48    2.52
   0   9  -1   11.53    3.35
   0  -9   1   13.17   11.99
   0  -9   1   52.64   19.65
  -1   9  -1    2.05    1.72
  -1   9  -1   -1.22    1.19
  -1   9  -1    0.87    5.00
  -1   9  -1    2.96    2.10
   1  -9   1   13.93   14.99
   1  -9   1   -7.08    7.06
  -2   9  -1   21.41    9.16
  -2   9  -1   24.48    2.84
   2  -9   1   18.50   11.72
   2  -9   1   67.90   21.12
   2  -9   1   17.49    8.77
  -3   9  -1    1.06    2.01
  -3   9  -1   -2.66    5.61
   3  -9   1    4.00    7.11
   3  -9   1    3.65   14.79
   3  -9   1    3.31    7.56
  -4   9  -1    2.26    7.04
   4  -9   1   19.75   17.43
   6   8  -1    2.48    4.38
   6   8  -1    3.06    1.90
  -6  -8   1    4.94   10.44
   5   8  -1   17.17    2.47
   5   8  -1    9.23    3.50
   5   8  -1   16.79    4.81
  -5  -8   1   17.55   12.54
   4   8  -1    2.04    1.36
   4   8  -1    1.67    2.24
   4   8  -1    2.66    3.54
  -4  -8   1    1.89   10.22
   3   8  -1   10.57    3.18
   3   8  -1   12.66    3.85
  -3  -8   1   17.20   12.51
   2   8  -1    2.28    2.73
   2   8  -1    0.43    1.93
  -2  -8   1   -7.05    7.79
   1   8  -1   33.25    4.63
   1   8  -1   19.26    7.29
   1   8  -1   21.34    4.07
  -1  -8   1   30.75   13.84
   0   8  -1   -2.67    1.25
   0   8  -1    0.01    2.45
   0   8  -1   -0.90    3.73
   0   8  -1    0.16    1.58
   0  -8   1    0.01    8.52
   0  -8   1    7.14   12.60
  -1   8  -1   38.16    5.22
  -1   8  -1   65.75    4.59
  -1   8  -1   51.83   11.98
   1  -8   1   79.09   11.72
   1  -8   1  104.01   20.90
   1  -8   1   70.97   18.35
  -2   8  -1   -0.48    1.53
  -2   8  -1    2.68    5.65
  -2   8  -1   -1.63    1.56
  -2   8  -1    1.42    1.83
   2  -8   1    2.73    6.28
   2  -8   1   -0.92    7.19
   2  -8   1    6.66   12.90
  -3   8  -1   16.12    2.98
  -3   8  -1   13.12    7.38
   3  -8   1   13.44    8.84
   3  -8   1   10.15    7.72
   3  -8   1   32.27   16.88
  -4   8  -1    1.06    2.38
  -4   8  -1   -2.15    5.13
   4  -8   1   -0.30    5.68
   4  -8   1    5.09   13.94
   4  -8   1   -0.22    7.17
   5  -8   1   30.14   17.32
   7   7  -1    0.95    1.76
   7   7  -1   -0.25    2.51
   7   7  -1    6.36    4.76
  -7  -7   1    2.22    8.84
   6   7  -1    8.91    3.38
   6   7  -1   19.54    5.89
   6   7  -1   15.83    2.53
  -6  -7   1   15.09   11.04
   5   7  -1    0.23    2.16
   5   7  -1   -0.46    1.33
   5   7  -1   -1.18    3.39
  -5  -7   1   -0.96    7.30
   4   7  -1   24.08    4.87
   4   7  -1   28.28    2.65
  -4  -7   1   31.92   14.48
   3   7  -1    0.14    1.75
   3   7  -1   -0.98    2.47
   3   7  -1    1.17    0.98
  -3  -7   1    2.64    9.18
   2   7  -1   45.77    4.06
   2   7  -1   33.59    4.71
   2   7  -1   37.76    2.65
  -2  -7   1   35.45   13.93
   1   7  -1    0.59    1.51
   1   7  -1    0.20    3.84
   1   7  -1    4.66    2.63
   1   7  -1    4.13    1.68
   1   7  -1    4.71    0.97
  -1  -7   1    4.05    8.16
  -1  -7   1   10.90   11.10
   0   7  -1   75.57    4.13
   0   7  -1   76.78    6.29
   0   7  -1   74.05    4.75
   0  -7   1   52.28   15.63
   0  -7   1  157.71   22.86
  -1   7  -1    0.88    4.06
  -1   7  -1    3.93    1.07
  -1   7  -1    2.97    1.65
  -1   7  -1    4.38    1.87
  -1   7  -1    4.81    2.11
   1  -7   1    3.61   10.50
   1  -7   1    4.61    5.05
   1  -7   1    3.71    7.11
  -2   7  -1   19.00    7.31
  -2   7  -1   21.43    2.75
  -2   7  -1   16.72    3.03
  -2   7  -1   24.43    3.20
   2  -7   1   37.59   14.58
   2  -7   1   26.43   10.69
   2  -7   1   27.53    8.16
  -3   7  -1    5.92    1.99
  -3   7  -1    2.68    2.10
  -3   7  -1    9.22    6.03
   3  -7   1    8.73    6.81
   3  -7   1    7.69    6.61
   3  -7   1    6.61   11.44
  -4   7  -1   27.18    8.59
  -4   7  -1   23.44    3.92
   4  -7   1   19.36   14.73
   4  -7   1   27.28    9.32
   4  -7   1   20.98    7.98
  -5   7  -1    8.43    6.26
  -5   7  -1    4.53    3.10
   5  -7   1   28.46   15.57
   5  -7   1    7.99    7.62
   6  -7   1    6.69   13.80
   7   6  -1    6.67    3.08
   7   6  -1   18.73    5.69
   7   6  -1   15.09    2.68
  -7  -6   1    8.21    8.45
  -7  -6   1    8.39    1.79
   6   6  -1    1.36    2.17
   6   6  -1    0.11    1.39
   6   6  -1   -3.99    2.89
  -6  -6   1    0.17    1.13
  -6  -6   1    2.23    7.25
   5   6  -1   34.93    5.78
   5   6  -1   30.34    2.87
   5   6  -1   19.01    4.11
  -5  -6   1   25.72   11.77
  -5  -6   1   33.46    2.36
   4   6  -1    0.99    2.94
   4   6  -1    0.04    1.71
   4   6  -1    1.10    1.05
  -4  -6   1    0.96    6.73
  -4  -6   1    1.48    0.79
   3   6  -1   30.71    3.91
   3   6  -1   25.57    4.41
   3   6  -1   30.99    2.30
  -3  -6   1   20.61    3.19
  -3  -6   1   20.99   10.56
  -3  -6   1   26.71    1.53
  -3  -6   1   27.26    1.50
   2   6  -1    5.40    2.05
   2   6  -1    7.64    1.16
   2   6  -1   10.77    2.78
   2   6  -1    9.59    2.22
   2   6  -1    8.42    2.72
   2   6  -1    9.56    1.51
  -2  -6   1    5.60    8.14
   1   6  -1   98.62    5.90
   1   6  -1  105.38    6.94
   1   6  -1   90.36    4.98
   1   6  -1  114.36    9.45
   1   6  -1  102.89    5.16
  -1  -6   1   69.21   17.37
   0   6  -1    9.42    2.45
   0   6  -1   14.81    3.10
   0   6  -1   15.51    1.16
   0   6  -1    7.55    4.98
   0   6  -1   18.84    1.36
   0  -6   1   14.23    8.88
   0  -6   1   29.25   11.39
  -1   6  -1   56.90    3.26
  -1   6  -1   56.83    4.01
  -1   6  -1   40.23    9.76
  -1   6  -1   55.48    4.61
  -1   6  -1   55.68    2.92
   1  -6   1   64.78    9.52
   1  -6   1   90.70   16.64
   1  -6   1   48.12   13.04
  -2   6  -1   17.46    2.72
  -2   6  -1   12.50    6.03
  -2   6  -1    7.67    2.00
  -2   6  -1   20.63    2.41
  -2   6  -1   14.07    1.14
  -2   6  -1   15.25    1.48
   2  -6   1   14.42    7.80
   2  -6   1    9.75    5.44
   2  -6   1   23.10   11.92
  -3   6  -1   31.29    3.45
  -3   6  -1   28.12    8.02
  -3   6  -1   29.51    2.16
  -3   6  -1   22.34    2.88
  -3   6  -1   32.86    3.96
   3  -6   1   36.20   13.38
   3  -6   1   27.62    8.82
   3  -6   1   22.08    7.29
  -4   6  -1   31.11    8.27
  -4   6  -1   28.51    4.19
   4  -6   1   23.25    7.80
   4  -6   1   29.51    8.68
   4  -6   1   37.65   14.21
  -5   6  -1   22.09    2.24
  -5   6  -1   34.85    8.33
  -5   6  -1   23.63    4.33
   5  -6   1   28.99    8.69
   5  -6   1   34.59   14.18
  -6   6  -1    7.49    3.60
  -6   6  -1   14.63    6.71
  -6   6  -1    6.83    2.43
   6  -6   1   14.04   12.48
   6  -6   1   18.32    8.05
   7  -6   1    0.68   11.65
   8   5  -1    4.30    3.22
  -8  -5   1    6.03    1.93
   7   5  -1    1.00    2.21
   7   5  -1    2.96    4.00
   7   5  -1    2.05    1.68
  -7  -5   1    1.17    1.39
   6   5  -1   26.40    5.57
   6   5  -1   26.04    3.03
  -6  -5   1   12.39    8.72
  -6  -5   1   29.59    2.51
   5   5  -1    3.39    3.29
   5   5  -1    1.59    1.19
   5   5  -1    1.31    1.95
  -5  -5   1    0.60    0.97
  -5  -5   1    1.05    6.32
   4   5  -1   29.54    2.61
   4   5  -1   26.43    3.86
   4   5  -1   46.60    4.96
   4   5  -1   52.06    5.86
  -4  -5   1   38.63   12.16
   3   5  -1   14.84    2.85
   3   5  -1   12.24    2.92
   3   5  -1   15.72    3.23
   3   5  -1   12.52    1.80
   3   5  -1   14.91    1.64
  -3  -5   1   14.69    1.32
  -3  -5   1    5.68    7.87
  -3  -5   1   15.15    1.26
   2   5  -1  102.33    7.11
   2   5  -1  108.51    6.52
   2   5  -1  112.78    8.11
   2   5  -1   95.72    9.05
   2   5  -1  112.47    5.57
  -2  -5   1   82.48   15.49
  -2  -5   1  105.07    5.08
   1   5  -1   72.13    4.47
   1   5  -1   66.51    3.60
   1   5  -1   70.62    3.72
   1   5  -1   76.07    6.86
   1   5  -1   73.37    5.13
  -1  -5   1   67.47    3.74
  -1  -5   1   60.76   14.17
   0   5  -1   64.66    4.31
   0   5  -1   62.55    3.44
   0   5  -1   59.88    5.00
   0   5  -1   85.67    7.25
   0   5  -1   70.14    3.54
   0  -5   1   48.68   12.67
   0  -5   1  106.51   13.40
   0  -5   1   70.56    7.97
  -1   5  -1   17.30    1.44
  -1   5  -1   15.92    2.64
  -1   5  -1   21.09    2.16
  -1   5  -1    7.63    4.47
  -1   5  -1   17.88    1.11
   1  -5   1    9.26    6.45
   1  -5   1   16.26    8.35
   1  -5   1   18.31    4.96
  -2   5  -1   34.39    2.23
  -2   5  -1   33.90    3.61
  -2   5  -1   27.40    7.38
  -2   5  -1   37.53    3.05
  -2   5  -1   33.10    1.97
   2  -5   1   31.45    9.48
   2  -5   1   39.76    7.25
   2  -5   1   29.58   10.76
  -3   5  -1   63.17    8.44
  -3   5  -1   57.09    9.85
  -3   5  -1   61.99    4.67
  -3   5  -1   61.24    3.57
  -3   5  -1   60.39    5.13
   3  -5   1   79.51   15.60
   3  -5   1   55.81    9.46
   3  -5   1   57.00   11.76
  -4   5  -1   36.14    4.72
  -4   5  -1   32.14    4.14
  -4   5  -1   43.70    8.90
   4  -5   1   44.85   13.57
   4  -5   1   42.02    8.93
   4  -5   1   32.04    7.86
  -5   5  -1   56.45    8.93
  -5   5  -1   33.70    4.95
  -5   5  -1   35.19    2.83
   5  -5   1   39.16   13.89
   5  -5   1   34.48    8.98
  -6   5  -1    1.91    3.32
  -6   5  -1    4.60    1.34
  -6   5  -1    3.34    1.93
  -6   5  -1    6.36    5.30
   6  -5   1    7.69    6.75
   6  -5   1   -4.85    9.04
  -7   5  -1    6.22    2.38
  -7   5  -1   13.00    2.02
  -7   5  -1   15.41    4.62
   7  -5   1    8.04   11.44
   7  -5   1    8.47    7.69
   8   4  -1    2.23    1.81
  -8  -4   1    1.30    1.64
   7   4  -1   14.16    3.47
   7   4  -1   29.08    5.85
   7   4  -1   26.34    3.10
  -7  -4   1   23.91    2.64
   6   4  -1    9.15    4.22
   6   4  -1    5.15    2.32
   6   4  -1    5.60    1.73
  -6  -4   1    5.15    6.31
  -6  -4   1    9.00    1.51
   5   4  -1   20.32    3.78
   5   4  -1   31.23    5.28
   5   4  -1   32.76    2.68
  -5  -4   1   25.51    9.61
  -5  -4   1   44.94    5.39
  -5  -4   1   34.82    2.45
   4   4  -1   22.76    4.08
   4   4  -1   28.14    2.31
   4   4  -1   27.32    3.92
  -4  -4   1   28.34    2.03
  -4  -4   1   25.54    3.72
  -4  -4   1   20.67    8.90
   3   4  -1   61.90    5.28
   3   4  -1   56.50    3.49
   3   4  -1   58.34    4.76
   3   4  -1   65.82    4.83
  -3  -4   1   52.74   12.55
  -3  -4   1   63.40    3.43
  -3  -4   1   54.85    4.50
  -3  -4   1   59.26    3.36
   2   4  -1  102.71    9.42
   2   4  -1  111.19    5.84
   2   4  -1  119.17    6.83
   2   4  -1  116.25    5.98
   2   4  -1  119.54    7.44
  -2  -4   1  115.26    5.83
  -2  -4   1  128.92    5.85
  -2  -4   1  125.55    7.03
  -2  -4   1  112.76   15.93
   1   4  -1  109.08    5.22
   1   4  -1  112.24    5.98
   1   4  -1  107.64    5.27
   1   4  -1   95.02    8.66
   1   4  -1  111.28    6.50
  -1  -4   1   95.54    5.82
  -1  -4   1   89.26   14.23
   0   4  -1   77.75    3.88
   0   4  -1   66.71   10.08
   0   4  -1   89.25    7.43
   0   4  -1   79.71    5.30
   0   4  -1   78.31    3.94
   0   4  -1   77.03    4.73
   0  -4   1   68.20   11.79
   0  -4   1   71.37    7.78
   0  -4   1  116.62   12.27
  -1   4  -1   45.70    2.38
  -1   4  -1   43.76    3.89
  -1   4  -1   47.21    7.16
  -1   4  -1   45.91    2.59
  -1   4  -1   44.65    3.09
   1  -4   1   56.99   10.54
   1  -4   1   41.33   10.14
   1  -4   1   45.87    5.99
  -2   4  -1  140.57    7.52
  -2   4  -1  138.23    7.93
  -2   4  -1  132.67   14.84
  -2   4  -1  137.22    6.67
  -2   4  -1  114.66   15.34
  -2   4  -1  139.42    6.83
   2  -4   1  137.72   12.58
   2  -4   1  113.26   15.53
   2  -4   1  141.41    6.96
   2  -4   1  156.96   16.09
  -3   4  -1   21.36    2.26
  -3   4  -1   25.34    3.03
  -3   4  -1   27.89    4.64
  -3   4  -1   29.36    5.83
  -3   4  -1   27.22    1.96
  -3   4  -1   23.98    3.40
  -3   4  -1   25.74    1.84
   3  -4   1   22.70    5.64
   3  -4   1   22.00    6.50
   3  -4   1   34.07   10.31
   3  -4   1   30.41    2.74
  -4   4  -1   92.21    6.93
  -4   4  -1   97.72    6.64
   4  -4   1  114.16   11.58
   4  -4   1   88.73    4.59
   4  -4   1   82.23    4.64
   4  -4   1  105.12   17.96
   4  -4   1   89.36   11.04
  -5   4  -1    8.89    4.74
  -5   4  -1    4.60    1.21
  -5   4  -1    5.43    3.02
   5  -4   1   11.20    9.53
   5  -4   1    3.25    0.89
   5  -4   1    3.98    4.95
  -6   4  -1   22.51    4.50
  -6   4  -1   23.75    2.41
   6  -4   1   19.15   11.25
   6  -4   1   29.63    8.43
  -7   4  -1   -1.10    3.38
  -7   4  -1    1.64    1.28
  -7   4  -1    3.16    1.92
  -7   4  -1    1.04    4.84
   7  -4   1   -4.28    8.61
   7  -4   1    0.52    5.98
  -8   4  -1   14.06    5.14
  -8   4  -1    6.64    2.82
  -8   4  -1   13.84    2.14
   8  -4   1   19.59   12.66
   8   3  -1   12.04    2.57
  -8  -3   1   11.44    2.29
   7   3  -1   16.25    5.13
   7   3  -1   24.67    5.37
   7   3  -1   14.21    2.49
  -7  -3   1   14.84    2.22
   6   3  -1   13.04    4.17
   6   3  -1   11.90    2.81
   6   3  -1   20.02    2.50
  -6  -3   1   14.68    2.21
  -6  -3   1   22.11    7.65
  -6  -3   1   18.38    2.02
  -6  -3   1   17.23    4.10
   5   3  -1   18.30    3.66
   5   3  -1   14.02    1.99
   5   3  -1    8.07    2.24
   5   3  -1   12.71    3.68
  -5  -3   1   17.91    1.86
  -5  -3   1   10.96    6.64
  -5  -3   1   21.53    3.81
  -5  -3   1   13.93    1.88
   4   3  -1   33.00    2.52
   4   3  -1   35.17    4.90
   4   3  -1   34.43    4.37
  -4  -3   1   36.97    3.08
  -4  -3   1   38.22    4.46
  -4  -3   1   35.34    2.39
  -4  -3   1   40.54    9.97
   3   3  -1   95.52   12.38
   3   3  -1   92.79    7.62
   3   3  -1  104.90    6.59
   3   3  -1  105.11    5.43
   3   3  -1  108.52    7.12
  -3  -3   1  114.76    5.30
  -3  -3   1  108.88    5.40
  -3  -3   1   95.55   13.81
  -3  -3   1   95.65    7.59
   2   3  -1  102.81    6.65
   2   3  -1   95.35    5.13
   2   3  -1  104.29    5.28
   2   3  -1   93.33    7.66
   2   3  -1  103.84    6.17
  -2  -3   1  113.75    5.24
  -2  -3   1  101.52    6.05
  -2  -3   1  109.49    5.18
  -2  -3   1   87.02   13.33
  -2  -3   1  106.05    6.27
   1   3  -1  134.94    6.66
   1   3  -1  137.70    6.70
   1   3  -1  119.60   10.45
   1   3  -1  133.37    7.67
   1   3  -1  142.39    7.32
  -1  -3   1  148.23    6.61
  -1  -3   1  141.02    6.60
  -1  -3   1  132.29    7.44
  -1  -3   1  116.99   15.96
  -1  -3   1  140.86    7.34
   0   3  -1   27.82    1.52
   0   3  -1   36.34    3.69
   0   3  -1   27.39    1.57
   0   3  -1   27.23    2.37
   0   3  -1   29.13    2.92
   0  -3   1   26.42    1.89
   0  -3   1   25.36    4.05
   0  -3   1   28.16    1.83
   0  -3   1   25.98    7.59
   0  -3   1   41.34    7.86
  -1   3  -1  193.04    9.70
  -1   3  -1  194.83    9.31
  -1   3  -1  196.37   10.28
  -1   3  -1  170.96   19.51
  -1   3  -1  190.02    9.16
   1  -3   1  189.44    9.56
   1  -3   1  216.70   17.74
   1  -3   1  198.74   15.35
   1  -3   1  210.50    9.46
   1  -3   1  152.25   19.53
  -2   3  -1    1.67    0.45
  -2   3  -1    0.88    0.66
  -2   3  -1    1.16    0.61
  -2   3  -1    1.38    1.13
  -2   3  -1    0.64    2.46
  -2   3  -1    0.87    2.00
  -2   3  -1   -0.76    1.50
   2  -3   1    0.26    1.33
   2  -3   1    3.26    5.48
   2  -3   1    0.60    0.96
   2  -3   1    0.29    1.88
   2  -3   1    1.24    2.55
   2  -3   1    0.97    0.31
   2  -3   1    1.13    0.30
  -3   3  -1  148.12   14.45
  -3   3  -1  128.73    6.42
  -3   3  -1  119.26    7.36
  -3   3  -1  112.09    6.24
  -3   3  -1  127.27    8.70
  -3   3  -1  118.45   12.58
  -3   3  -1  132.44    7.87
   3  -3   1  110.99   14.45
   3  -3   1  120.27    7.32
   3  -3   1  122.32    6.14
   3  -3   1  110.27    6.17
   3  -3   1  145.56   12.15
  -4   3  -1    2.66    1.73
  -4   3  -1    2.64    2.50
  -4   3  -1    2.25    0.81
  -4   3  -1    6.67    3.53
   4  -3   1    1.42    3.53
   4  -3   1    2.82    1.83
   4  -3   1    4.03    7.38
   4  -3   1    1.79    0.74
   4  -3   1    2.19    0.79
  -5   3  -1   28.43    2.27
  -5   3  -1   29.99    4.74
  -5   3  -1   32.89    4.50
   5  -3   1   36.95    7.40
   5  -3   1   27.09    2.20
   5  -3   1   30.88    4.73
   5  -3   1   24.83   10.23
   5  -3   1   25.91    2.22
  -6   3  -1    1.21    3.89
  -6   3  -1   -1.18    1.28
  -6   3  -1    0.71    1.12
  -6   3  -1    0.23    2.81
   6  -3   1   -0.21    1.01
   6  -3   1    1.63    4.80
   6  -3   1    7.17    9.17
  -7   3  -1   27.40    2.71
  -7   3  -1   39.10    6.10
   7  -3   1   33.05   12.88
   7  -3   1   38.50    9.57
  -8   3  -1   -1.03    3.69
  -8   3  -1    1.13    1.40
  -8   3  -1    5.08    2.18
   8  -3   1    3.55    7.01
   8   2  -1   12.94    5.56
   8   2  -1    5.50    1.98
  -8  -2   1    7.99    1.96
   7   2  -1   12.02    2.15
   7   2  -1   14.47    5.28
   7   2  -1    5.97    2.14
   7   2  -1   13.84    4.15
  -7  -2   1    8.73    1.75
   6   2  -1   14.50    4.25
   6   2  -1    8.90    2.31
   6   2  -1   24.65    5.25
   6   2  -1   15.73    2.26
  -6  -2   1   15.49    1.90
  -6  -2   1   10.93    3.62
  -6  -2   1   14.93    2.17
   5   2  -1   15.19    4.62
   5   2  -1   21.14    3.97
   5   2  -1   20.76    4.29
   5   2  -1   22.54    2.12
  -5  -2   1   19.05    2.25
  -5  -2   1   19.27    1.84
  -5  -2   1   18.88    3.76
  -5  -2   1   21.02    6.70
   4   2  -1  111.91    7.96
   4   2  -1  101.44   12.84
   4   2  -1  118.56    7.78
   4   2  -1  108.16    6.12
  -4  -2   1  116.37    7.81
  -4  -2   1  121.23    6.03
  -4  -2   1  123.63    7.74
  -4  -2   1  122.08    8.66
  -4  -2   1   97.42   13.62
   3   2  -1   40.98    4.48
   3   2  -1   45.71    3.91
   3   2  -1   42.75    2.52
   3   2  -1   46.28    2.72
  -3  -2   1   41.51    3.54
  -3  -2   1   46.98    9.22
  -3  -2   1   44.16    3.98
  -3  -2   1   43.52    2.54
  -3  -2   1   44.75    2.65
  -3  -2   1   42.79    3.88
   2   2  -1  225.45   11.25
   2   2  -1  248.50   16.80
   2   2  -1  212.57   11.13
   2   2  -1  211.44   12.24
   2   2  -1  220.38   11.98
  -2  -2   1  239.01   11.16
  -2  -2   1  231.92   11.25
  -2  -2   1  229.88   12.22
  -2  -2   1  251.25   16.76
   1   2  -1   26.05    2.49
   1   2  -1   27.14    2.08
   1   2  -1   27.70    1.52
   1   2  -1   24.82    2.60
   1   2  -1   26.51    2.26
   1   2  -1   28.21    1.58
  -1  -2   1   27.07    1.53
  -1  -2   1   27.14    1.56
  -1  -2   1   28.78    2.28
   0   2  -1  203.76    9.58
   0   2  -1  186.51   10.03
   0   2  -1  204.00    9.62
   0   2  -1  208.37   10.33
   0  -2   1  209.96    9.53
   0  -2   1  207.46    9.52
   0  -2   1  201.83    9.90
   0  -2   1  204.44    9.98
   0  -2   1  181.00   14.84
  -1   2  -1    0.98    0.73
  -1   2  -1    0.47    1.19
  -1   2  -1    0.59    0.50
  -1   2  -1    2.21    1.45
  -1   2  -1    1.36    0.30
  -1   2  -1    2.17    1.81
  -1   2  -1    1.55    0.46
   1  -2   1    1.24    1.69
   1  -2   1    1.07    0.66
   1  -2   1    1.32    0.30
   1  -2   1    1.49    0.28
   1  -2   1    0.53    2.94
   1  -2   1    1.21    1.05
   1  -2   1   -0.25    1.53
   1  -2   1    0.39    0.50
  -2   2  -1  222.66   23.89
  -2   2  -1  270.21   25.37
  -2   2  -1  249.06   13.07
  -2   2  -1  244.44   17.44
  -2   2  -1  258.85   12.15
  -2   2  -1  247.66   12.04
  -2   2  -1  249.84   12.78
   2  -2   1  272.02   12.02
   2  -2   1  244.21   13.06
   2  -2   1  232.26   20.28
   2  -2   1  266.57   12.85
   2  -2   1  237.39   12.05
  -3   2  -1   19.12    4.21
  -3   2  -1   14.33    2.08
  -3   2  -1   12.49    1.17
  -3   2  -1   10.64    2.44
  -3   2  -1   16.37    2.49
   3  -2   1   11.16    2.06
   3  -2   1   11.51    3.70
   3  -2   1   23.22    4.57
   3  -2   1   12.52    1.24
   3  -2   1   14.22    6.36
   3  -2   1   12.26    1.17
  -4   2  -1  103.30    5.57
  -4   2  -1  104.15    7.27
  -4   2  -1  114.91    7.12
   4  -2   1  110.91    5.57
   4  -2   1  100.47    7.07
   4  -2   1   91.71   12.32
   4  -2   1   96.57    5.52
  -5   2  -1    2.93    1.00
  -5   2  -1    7.19    2.84
  -5   2  -1    6.06    3.67
  -5   2  -1    5.05    2.26
   5  -2   1    3.83    4.26
   5  -2   1    5.31    1.24
   5  -2   1    1.67    2.02
   5  -2   1   -1.19    6.41
  -6   2  -1   57.86    7.02
  -6   2  -1   57.59    3.89
   6  -2   1   71.17    9.98
   6  -2   1   48.09   12.29
   6  -2   1   56.65    3.89
  -7   2  -1   13.83    5.70
  -7   2  -1    3.17    1.67
  -7   2  -1    7.66    3.79
  -7   2  -1    3.93    1.40
   7  -2   1    1.72    7.39
   7  -2   1    7.07    1.76
   7  -2   1    3.60    5.98
  -8   2  -1   17.22    5.05
  -8   2  -1   11.22    2.86
  -8   2  -1   18.42    2.41
   8  -2   1   16.66    2.56
   8  -2   1   14.41    7.75
   8   1  -1    6.26    2.00
   8   1  -1    9.25    5.87
  -8  -1   1   13.08    2.27
   7   1  -1   22.34    6.35
   7   1  -1   17.24    2.62
  -7  -1   1   14.32    2.61
  -7  -1   1   17.99    2.28
  -7  -1   1   23.25    4.92
   6   1  -1   14.35    2.16
   6   1  -1    9.25    1.99
   6   1  -1   17.60    5.11
   6   1  -1   14.99    4.09
  -6  -1   1   10.08    2.04
  -6  -1   1   12.49    3.70
  -6  -1   1   14.89    1.93
   5   1  -1   79.90    9.74
   5   1  -1   77.97    6.86
   5   1  -1   86.28    7.27
   5   1  -1   91.01    5.15
  -5  -1   1   86.53    7.01
  -5  -1   1   91.37    7.10
  -5  -1   1   89.99    4.92
  -5  -1   1   85.67    6.92
   4   1  -1    3.67    2.33
   4   1  -1    7.37    2.44
   4   1  -1    4.27    1.30
   4   1  -1    2.80    2.24
   4   1  -1   10.85    3.28
   4   1  -1    4.92    1.11
   4   1  -1    9.34    3.02
  -4  -1   1    4.99    2.18
  -4  -1   1    5.37    1.23
  -4  -1   1    4.81    2.17
  -4  -1   1    5.10    0.96
   3   1  -1  149.72    7.76
   3   1  -1  154.88    9.03
   3   1  -1  156.17    9.39
   3   1  -1  157.95    7.90
  -3  -1   1  157.18    9.27
  -3  -1   1  159.69    7.89
  -3  -1   1  153.95    7.77
  -3  -1   1  154.95   11.56
  -3  -1   1  163.99    9.08
   2   1  -1   56.59    3.07
   2   1  -1   63.48    4.30
   2   1  -1   57.04    3.91
   2   1  -1   59.73    3.20
  -2  -1   1   58.16    3.96
  -2  -1   1   61.32    4.56
  -2  -1   1   55.71    4.10
  -2  -1   1   62.44    3.21
  -2  -1   1   57.57    3.09
   1   1  -1  123.80    6.57
   1   1  -1  116.05    6.25
   1   1  -1  115.08    8.74
   1   1  -1  117.84    5.85
   1   1  -1  115.77    5.79
  -1  -1   1  115.15    5.79
  -1  -1   1  132.80    8.76
  -1  -1   1  116.54    6.45
  -1  -1   1  119.13    5.84
   0   1  -1   -0.20    0.19
   0   1  -1   -0.17    0.32
   0   1  -1   -0.31    0.20
   0   1  -1   -0.85    1.10
   0   1  -1   -0.40    0.09
   0   1  -1   -0.25    0.99
   0  -1   1   -0.50    0.81
   0  -1   1   -0.11    0.20
   0  -1   1    0.11    0.67
   0  -1   1   -0.60    0.67
   0  -1   1   -0.35    0.39
   0  -1   1   -0.21    0.22
   0  -1   1    3.40    2.43
  -1   1  -1  450.24   22.11
  -1   1  -1  438.36   44.85
  -1   1  -1  461.46   22.39
  -1   1  -1  485.23   22.06
  -1   1  -1  483.56   22.71
   1  -1   1  463.79   22.10
   1  -1   1  495.29   22.06
   1  -1   1  454.85   22.65
   1  -1   1  477.75   22.42
   1  -1   1  449.43   32.06
  -2   1  -1   13.61    1.88
  -2   1  -1   12.59    0.97
  -2   1  -1   13.45    2.09
  -2   1  -1   12.91    1.13
  -2   1  -1   17.73    3.08
   2  -1   1   12.59    2.12
   2  -1   1   14.48    1.94
   2  -1   1   12.72    1.07
   2  -1   1   12.91    1.05
   2  -1   1   12.80    3.97
   2  -1   1   12.89    2.92
  -3   1  -1  171.47    9.06
  -3   1  -1  179.55    9.10
  -3   1  -1  188.22   10.22
  -3   1  -1  196.11   10.56
   3  -1   1  185.67   10.59
   3  -1   1  175.87   15.72
   3  -1   1  191.65   19.04
   3  -1   1  182.91    9.15
   3  -1   1  184.84    9.10
  -4   1  -1   23.27    1.87
  -4   1  -1   23.36    3.32
  -4   1  -1   20.78    3.36
   4  -1   1   25.83    1.99
   4  -1   1   42.11    5.81
   4  -1   1   25.25    6.79
   4  -1   1   21.39    1.86
   4  -1   1   30.35    3.85
   4  -1   1   28.63    4.72
  -5   1  -1   59.04    5.76
  -5   1  -1   56.89    3.65
  -5   1  -1   59.96    5.44
   5  -1   1   52.01   10.13
   5  -1   1   87.49    9.10
   5  -1   1   57.26    3.70
   5  -1   1   59.96    5.63
  -6   1  -1   37.55    2.96
  -6   1  -1   32.27    5.21
   6  -1   1   32.53    5.09
   6  -1   1   32.84    9.58
   6  -1   1   37.23    3.08
   6  -1   1   56.44    9.05
  -7   1  -1   27.12    5.34
  -7   1  -1   31.55    2.77
   7  -1   1   26.19    9.51
   7  -1   1   40.00    9.06
   7  -1   1   26.58    3.04
  -8   1  -1    3.93    2.03
  -8   1  -1    7.19    1.86
  -8   1  -1    3.17    3.67
   8  -1   1    2.31    5.62
   8  -1   1    8.00    2.12
   9  -1   1   -0.53    1.84
   9   0  -1    0.05    5.53
   8   0  -1   21.92    3.06
   8   0  -1   17.97    6.98
   8   0  -1    9.22    8.84
  -8   0   1   12.66    2.24
  -8   0   1    8.57    2.52
   7   0  -1    0.40    4.28
   7   0  -1    3.56    1.61
   7   0  -1   -6.25    6.40
  -7   0   1    0.71    1.55
  -7   0   1    1.48    1.24
  -7   0   1    1.90    3.30
   6   0  -1   70.43   12.95
   6   0  -1   43.05    3.90
   6   0  -1   48.11    3.49
   6   0  -1   45.24    6.13
   6   0  -1   65.60    8.77
  -6   0   1   50.78    6.21
  -6   0   1   47.84    3.23
  -6   0   1   39.72    4.53
   5   0  -1   -0.24    0.78
   5   0  -1    0.32    1.14
   5   0  -1   -0.06    2.39
   5   0  -1   -0.51    3.16
   5   0  -1   -0.02    0.93
  -5   0   1   -0.13    1.02
  -5   0   1    1.60    2.42
  -5   0   1    1.30    1.98
  -5   0   1   -0.31    0.74
   4   0  -1  182.86    9.41
   4   0  -1  194.52   11.24
   4   0  -1  182.60   10.94
  -4   0   1  184.49   11.03
  -4   0   1  186.97   10.84
  -4   0   1  183.23    9.28
   3   0  -1    4.97    0.95
   3   0  -1    5.39    0.83
   3   0  -1    5.45    1.93
   3   0  -1    4.67    1.03
   3   0  -1   11.33    2.61
   3   0  -1    4.66    2.09
   3   0  -1    8.10    2.74
  -3   0   1    3.44    1.91
  -3   0   1    5.36    0.84
  -3   0   1    4.66    2.01
  -3   0   1    2.12    0.98
  -3   0   1    4.27    0.86
   2   0  -1  245.16   12.32
   2   0  -1  225.74   11.28
   2   0  -1  241.62   11.37
   2   0  -1  233.57   12.06
  -2   0   1  229.24   11.34
  -2   0   1  238.40   11.29
  -2   0   1  234.24   12.03
  -2   0   1  227.54   12.23
   1   0  -1   84.16    4.64
   1   0  -1   71.94    5.75
   1   0  -1   81.19    4.37
   1   0  -1   83.49    3.93
   1   0  -1   83.16    4.00
  -1   0   1   81.62    3.98
  -1   0   1   85.49    4.41
  -1   0   1   73.95    5.94
  -1   0   1   78.55    4.52
  -1   0  -1   52.86    3.16
  -1   0  -1   46.24    2.38
   1   0   1   44.82    2.42
   1   0   1   45.77    2.85
   1   0   1   46.36    2.39
   1   0   1   44.87    3.02
  -2   0  -1  316.45   15.29
  -2   0  -1  324.76   29.59
  -2   0  -1  337.26   16.05
  -2   0  -1  318.93   15.30
  -2   0  -1  320.99   16.17
   2   0   1  314.60   15.34
   2   0   1  325.36   15.32
   2   0   1  308.93   16.01
   2   0   1  305.18   16.17
  -3   0  -1   39.22    3.93
  -3   0  -1   38.47    2.40
  -3   0  -1   38.89    2.42
  -3   0  -1   41.30    3.62
   3   0   1   40.46    4.03
   3   0   1   41.08    2.51
   3   0   1   39.52    2.48
   3   0   1   56.84    6.49
   3   0   1   34.68    3.60
  -4   0  -1   72.25    4.00
  -4   0  -1   73.93    5.47
  -4   0  -1   65.44    5.58
   4   0   1   73.21    5.85
   4   0   1   64.82    3.98
   4   0   1   85.47    9.02
   4   0   1   66.18    5.48
  -5   0  -1   78.65    6.57
  -5   0  -1   72.87    4.44
  -5   0  -1   73.86    6.24
   5   0   1   67.56    6.30
   5   0   1   84.52    4.69
   5   0   1   97.20   10.86
  -6   0  -1   11.19    2.46
  -6   0  -1   29.34    4.78
  -6   0  -1   27.11    2.21
   6   0   1   25.05    7.81
   6   0   1   16.11    1.92
   6   0   1   26.12    2.35
   6   0   1   24.90    4.61
   6   0   1   45.04    7.79
  -7   0  -1    6.25    2.00
  -7   0  -1   10.33    1.80
  -7   0  -1    8.38    3.72
   7   0   1   11.14    2.01
   7   0   1   18.59    6.59
   7   0   1   15.11    7.52
  -8   0  -1    6.33    2.19
  -8   0  -1    5.59    4.15
  -8   0  -1    8.74    1.87
   8   0   1    5.84    6.11
   8   0   1   10.00    2.28
   9   0   1   10.71    7.34
   8  -1  -1    1.21    1.78
   8  -1  -1   -0.10    5.44
   8  -1  -1    0.86    8.46
  -8   1   1    0.17    1.90
  -8   1   1    0.23    3.78
  -8   1   1    4.03    1.69
   7  -1  -1   17.15    9.77
   7  -1  -1   30.79    3.15
   7  -1  -1   29.11    7.56
  -7   1   1   17.86    4.66
  -7   1   1   27.87    2.55
  -7   1   1   16.61    3.20
   6  -1  -1    2.03    1.37
   6  -1  -1    0.99    4.33
   6  -1  -1    0.59    7.11
  -6   1   1    0.76    1.43
  -6   1   1    1.07    2.81
  -6   1   1    0.98    1.09
   5  -1  -1   99.49    5.80
   5  -1  -1  100.07    7.32
   5  -1  -1  104.28    7.86
   5  -1  -1  122.71   11.42
   5  -1  -1  135.93   14.39
  -5   1   1   97.81    7.60
  -5   1   1  106.98    7.66
  -5   1   1   97.72    5.62
   4  -1  -1    1.08    0.75
   4  -1  -1    1.38    1.96
   4  -1  -1    0.55    4.72
   4  -1  -1   -0.14    1.68
   4  -1  -1    0.37    0.46
   4  -1  -1   -0.58    2.47
  -4   1   1    2.36    1.90
  -4   1   1    1.92    2.18
  -4   1   1    0.59    1.51
  -4   1   1   -0.28    0.89
  -4   1   1    0.70    0.65
   3  -1  -1  114.38    7.59
   3  -1  -1  134.75    9.01
   3  -1  -1  151.15   13.47
   3  -1  -1  115.54    6.41
   3  -1  -1  125.13    6.50
  -3   1   1  121.32    6.48
  -3   1   1  128.01    7.77
  -3   1   1  123.75    7.60
  -3   1   1  127.92    6.45
   2  -1  -1   11.20    2.61
   2  -1  -1    9.79    0.94
   2  -1  -1    9.92    1.67
   2  -1  -1    9.15    0.84
   2  -1  -1   11.00    0.97
   2  -1  -1   11.49    1.85
   2  -1  -1   11.55    2.08
  -2   1   1    9.14    1.62
  -2   1   1    9.33    0.83
  -2   1   1   11.97    0.93
  -2   1   1    7.10    1.58
  -2   1   1   20.19    3.04
   1  -1  -1  123.51    6.32
   1  -1  -1  112.41    5.77
   1  -1  -1  113.14    9.38
   1  -1  -1  122.56    5.75
   1  -1  -1  122.43    6.17
  -1   1   1  115.41    6.12
  -1   1   1  115.46    5.79
  -1   1   1  130.20    9.43
  -1   1   1  122.47    8.38
   0  -1  -1   40.49    3.11
  -1  -1  -1  223.64   14.78
  -1  -1  -1  202.53    9.86
  -1  -1  -1  213.86   10.28
  -1  -1  -1  194.30   10.26
  -1  -1  -1  211.35    9.87
   1   1   1  202.84    9.87
   1   1   1  196.05   10.24
  -2  -1  -1   41.51    2.25
  -2  -1  -1   32.60    4.75
  -2  -1  -1   40.36    2.22
  -2  -1  -1   43.91    3.23
  -2  -1  -1   44.44    3.09
   2   1   1   40.46    2.27
   2   1   1   44.59    3.28
   2   1   1   41.47    2.24
   2   1   1   39.26    3.08
  -3  -1  -1   49.61    4.24
  -3  -1  -1   48.24    2.76
  -3  -1  -1   47.53    2.73
  -3  -1  -1   51.09    4.00
   3   1   1   44.86    2.71
   3   1   1   45.94    2.79
   3   1   1   49.95    4.28
   3   1   1   44.18    4.04
  -4  -1  -1   95.85    6.60
  -4  -1  -1   98.00    6.82
  -4  -1  -1   98.44    5.12
   4   1   1   94.77    6.94
   4   1   1   91.07    5.17
   4   1   1   91.64    6.72
  -5  -1  -1   37.33    4.95
  -5  -1  -1   41.05    4.99
  -5  -1  -1   41.32    2.75
   5   1   1   39.23    5.20
   5   1   1   39.02    2.86
   5   1   1   44.38    5.65
  -6  -1  -1   47.21    6.08
  -6  -1  -1   46.19    3.41
   6   1   1   65.01   10.25
   6   1   1   46.77    6.32
   6   1   1   52.24    3.70
  -7  -1  -1    9.08    2.03
  -7  -1  -1    9.69    1.74
  -7  -1  -1   13.45    4.14
   7   1   1   19.81    6.23
   7   1   1   14.00    2.35
  -8  -1  -1   16.37    2.48
   8   1   1   19.17    7.02
   8   1   1   13.41    2.44
   9   1   1   -2.37    5.39
   8  -2  -1   16.58    8.05
   8  -2  -1   12.59    2.38
   8  -2  -1    7.83   10.39
  -8   2   1   10.51    3.09
  -8   2   1    9.58    4.90
  -8   2   1   12.94    2.12
   7  -2  -1    9.29    6.17
   7  -2  -1    3.04    8.49
   7  -2  -1    0.30    1.48
  -7   2   1    4.03    1.49
  -7   2   1    2.54    1.90
  -7   2   1    0.33    3.32
   6  -2  -1   28.69   10.83
   6  -2  -1   34.40    2.93
   6  -2  -1   36.96    7.97
  -6   2   1   31.94    2.73
  -6   2   1   41.00    5.59
   5  -2  -1    1.35    2.15
   5  -2  -1    1.98    1.09
   5  -2  -1    0.21    4.02
   5  -2  -1    3.89    7.24
  -5   2   1    1.35    1.47
  -5   2   1    5.79    2.84
  -5   2   1    1.11    0.83
  -5   2   1    1.81    2.21
  -5   2   1    4.42    3.09
   4  -2  -1  116.63    6.43
   4  -2  -1  140.39   12.38
   4  -2  -1  112.73   13.53
   4  -2  -1  137.76    8.26
   4  -2  -1  133.04   14.65
   4  -2  -1  127.69    6.50
  -4   2   1  123.22    6.41
  -4   2   1  121.04    7.91
  -4   2   1  122.32    8.03
   3  -2  -1   16.34    1.35
   3  -2  -1   13.18    2.45
   3  -2  -1   15.46    1.26
   3  -2  -1   15.18    2.48
   3  -2  -1   13.20    3.39
   3  -2  -1   17.57    6.46
   3  -2  -1   15.37    4.07
  -3   2   1   17.72    2.68
  -3   2   1   17.80    1.29
  -3   2   1   15.94    1.31
  -3   2   1   12.74    2.34
   2  -2  -1  120.70    6.13
   2  -2  -1  144.96   13.11
   2  -2  -1  129.85   11.01
   2  -2  -1  113.60   12.47
   2  -2  -1  123.96    7.00
   2  -2  -1  124.79    7.02
   2  -2  -1  122.82    6.14
  -2   2   1  143.05   12.95
  -2   2   1  118.80    6.92
  -2   2   1  119.92    6.15
  -2   2   1  123.44    7.04
  -2   2   1  134.98    8.80
  -2   2   1  119.66    6.18
   1  -2  -1  197.71   16.58
   1  -2  -1  218.48   21.02
   1  -2  -1  217.69   10.54
   1  -2  -1  212.21   10.58
   1  -2  -1  228.90   17.53
  -1   2   1  228.31   16.62
  -1   2   1  214.66   10.29
  -1   2   1  222.67   10.62
  -1   2   1  212.85   10.68
   0  -2  -1  180.15   18.91
   0  -2  -1  204.80   14.85
   0  -2  -1  178.59   15.04
   0   2   1  220.13   19.00
   0   2   1  173.77   14.52
  -1  -2  -1   69.39    3.29
  -1  -2  -1   66.86    3.27
  -1  -2  -1   70.11    3.73
  -1  -2  -1   55.66    7.64
  -1  -2  -1   84.57    6.85
  -1  -2  -1   65.32    3.71
   1   2   1   66.87    3.80
   1   2   1   62.64    7.59
   1   2   1   65.69    3.82
   1   2   1   69.09    3.31
   1   2   1   68.70    3.34
  -2  -2  -1  105.96    5.19
  -2  -2  -1  105.04    5.98
  -2  -2  -1   85.32   11.19
  -2  -2  -1  113.53    5.27
  -2  -2  -1  106.91    6.03
   2   2   1  106.70    5.28
   2   2   1  107.58   11.33
   2   2   1  102.84    6.14
   2   2   1  107.95    6.16
   2   2   1  102.54    5.22
  -3  -2  -1  157.79    7.74
  -3  -2  -1  168.37    9.07
  -3  -2  -1  167.84    9.19
  -3  -2  -1  142.16   11.24
  -3  -2  -1  163.05    7.85
   3   2   1  165.66    9.34
   3   2   1  154.00    7.79
   3   2   1  157.80   16.15
   3   2   1  153.05    7.85
   3   2   1  142.46    9.00
  -4  -2  -1   20.63    2.09
  -4  -2  -1   26.46    1.87
  -4  -2  -1   26.07    3.57
  -4  -2  -1   22.84    3.44
   4   2   1   22.92    1.99
   4   2   1   24.25    3.67
   4   2   1   30.11    4.51
   4   2   1   28.83    3.94
  -5  -2  -1  102.78    5.14
  -5  -2  -1   79.77    6.95
  -5  -2  -1  102.31    7.46
   5   2   1   91.08    5.22
   5   2   1   98.28    7.58
   5   2   1   85.59    7.21
  -6  -2  -1   12.69    1.86
  -6  -2  -1   13.91    1.74
  -6  -2  -1   17.53    3.82
   6   2   1    7.10    1.98
   6   2   1   15.95    2.11
   6   2   1   12.63    3.83
  -7  -2  -1   25.65    2.50
   7   2   1   17.15    3.00
   7   2   1   28.05    5.37
   7   2   1   44.10    7.61
   7   2   1   26.54    2.93
  -8  -2  -1    1.55    1.54
   8   2   1    1.43    1.65
   8   2   1   -4.50    4.16
   9   2   1   16.12    7.26
   8  -3  -1    4.72   10.97
   8  -3  -1    2.75    7.36
  -8   3   1    1.07    1.36
  -8   3   1    0.40    2.11
  -8   3   1   -0.73    3.72
   7  -3  -1   12.51    1.96
   7  -3  -1   21.09    7.72
   7  -3  -1   12.70   10.58
  -7   3   1   10.10    2.84
  -7   3   1   18.54    2.16
  -7   3   1   17.95    4.71
   6  -3  -1    6.09    5.62
   6  -3  -1    7.84    1.55
   6  -3  -1    1.34    8.06
  -6   3   1    3.14    2.05
  -6   3   1   -0.88    2.70
  -6   3   1   16.96    4.89
  -6   3   1    6.02    1.33
   5  -3  -1   80.31   15.41
   5  -3  -1   75.54    7.02
   5  -3  -1   72.42   10.18
  -5   3   1   77.64    6.59
  -5   3   1   73.33    4.38
  -5   3   1   81.29    6.72
   4  -3  -1   16.71    3.03
   4  -3  -1   16.79    8.92
   4  -3  -1   15.34    5.08
   4  -3  -1   11.28    1.28
   4  -3  -1   11.82    3.74
   4  -3  -1   14.30    1.43
  -4   3   1   15.03    1.43
  -4   3   1   14.71    2.90
  -4   3   1   12.06    2.74
   3  -3  -1   55.01    3.16
   3  -3  -1   59.82    7.66
   3  -3  -1   57.37   11.43
   3  -3  -1   57.88    4.39
   3  -3  -1   61.33    3.19
  -3   3   1   56.96    3.30
  -3   3   1   65.05    4.30
  -3   3   1   65.16    4.60
  -3   3   1   59.96    3.29
  -3   3   1   56.27    4.42
   2  -3  -1  124.80   13.95
   2  -3  -1  111.63    6.52
   2  -3  -1  110.84   12.73
   2  -3  -1  120.43   11.37
   2  -3  -1  124.53    6.57
  -2   3   1  125.25    5.94
  -2   3   1  122.88    6.71
  -2   3   1  129.41    5.94
  -2   3   1  110.37   12.91
  -2   3   1  115.94    6.72
   1  -3  -1  100.08   10.50
   1  -3  -1  110.11   12.95
   1  -3  -1  111.83   12.94
  -1   3   1  123.33    5.72
  -1   3   1  123.94    5.72
  -1   3   1  123.57    6.14
  -1   3   1  121.47   10.43
  -1   3   1  124.76    6.13
   0  -3  -1  228.91   15.72
   0  -3  -1  195.11   16.76
   0  -3  -1  178.93   19.50
   0  -3  -1  180.38   19.78
   0   3   1  176.42   15.07
   0   3   1  204.25   19.69
  -1  -3  -1   24.90    1.71
  -1  -3  -1   21.18    5.16
  -1  -3  -1   23.35    6.56
  -1  -3  -1   30.00    5.85
  -1  -3  -1   27.14    1.74
   1   3   1   26.33    1.42
   1   3   1   25.05    1.36
   1   3   1   27.83    4.67
   1   3   1   24.91    2.00
   1   3   1   27.38    2.03
  -2  -3  -1  145.62    7.36
  -2  -3  -1  105.56   14.67
  -2  -3  -1  143.77    6.53
  -2  -3  -1  140.87    7.41
  -2  -3  -1  133.63    6.45
   2   3   1  131.28    7.53
   2   3   1  126.35   14.42
   2   3   1  130.84    6.59
   2   3   1  130.30    6.52
   2   3   1  123.55    7.48
  -3  -3  -1    0.51    0.53
  -3  -3  -1    0.08    1.36
  -3  -3  -1    0.21    1.37
  -3  -3  -1    1.46    3.28
  -3  -3  -1    1.35    0.60
   3   3   1    1.03    0.69
   3   3   1   -0.72    1.43
   3   3   1    0.06    2.08
   3   3   1   -0.97    0.81
   3   3   1    0.09    0.50
   3   3   1   -0.33    1.52
  -4  -3  -1  124.53    7.63
  -4  -3  -1  118.04    5.92
  -4  -3  -1   96.15   13.43
   4   3   1  115.76    7.85
   4   3   1  114.47    6.13
   4   3   1  102.81    7.63
   4   3   1  118.56   13.16
  -5  -3  -1    9.34    5.06
  -5  -3  -1    7.07    1.06
  -5  -3  -1   12.50    3.01
  -5  -3  -1    7.92    1.24
   5   3   1    7.72    3.07
   5   3   1    2.94    1.58
   5   3   1    9.89    3.13
   5   3   1    9.82    1.56
  -6  -3  -1   44.55    3.83
  -6  -3  -1   54.33    6.19
  -6  -3  -1   49.14    3.32
   6   3   1   49.46    3.62
   6   3   1   45.01    6.40
  -7  -3  -1    0.14    1.14
   7   3   1    0.18    1.42
   7   3   1    0.24    2.97
   7   3   1    1.90    1.66
  -8  -3  -1   20.05    2.67
   8   3   1   32.50    7.50
   8   3   1   19.88    3.01
   8  -4  -1   10.29   13.33
  -8   4   1    8.43    1.97
   7  -4  -1   13.79   11.91
   7  -4  -1    9.53    7.31
  -7   4   1    8.43    2.73
  -7   4   1   12.04    4.43
  -7   4   1   10.84    1.87
   6  -4  -1   21.60   12.89
   6  -4  -1   31.21    8.79
  -6   4   1   29.25    2.54
  -6   4   1   32.55    4.99
   5  -4  -1   28.89   12.54
   5  -4  -1   21.54    1.84
   5  -4  -1   23.40    7.41
  -5   4   1   26.50    4.20
  -5   4   1   24.83    2.10
   4  -4  -1   25.68   11.41
   4  -4  -1   19.63    1.33
   4  -4  -1   18.09    2.77
   4  -4  -1   16.03    1.28
   4  -4  -1   25.04    6.81
  -4   4   1   17.85    1.67
  -4   4   1   18.44    3.25
  -4   4   1   30.52    5.16
  -4   4   1   17.50    3.04
   3  -4  -1   88.00   10.60
   3  -4  -1  102.47   16.94
   3  -4  -1   92.24    5.70
  -3   4   1   93.66    6.17
  -3   4   1   99.26    6.23
  -3   4   1   89.96    4.96
  -3   4   1   97.50    4.95
  -3   4   1  106.38   11.49
   2  -4  -1   14.58    4.50
   2  -4  -1   12.99    7.68
   2  -4  -1   15.44    5.38
  -2   4   1   11.64    1.75
  -2   4   1   14.04    1.02
  -2   4   1   22.39    4.00
  -2   4   1   10.87    3.75
  -2   4   1   16.88    2.02
   1  -4  -1  136.18   16.26
   1  -4  -1  134.94   12.93
   1  -4  -1  151.89   16.14
  -1   4   1  142.21    7.29
  -1   4   1  143.82   12.51
  -1   4   1  174.87   16.03
  -1   4   1  138.84    7.23
   0  -4  -1   41.50    9.20
   0  -4  -1   49.63    9.52
   0  -4  -1   37.47    6.67
   0  -4  -1   42.20    5.86
   0   4   1   35.68    2.00
   0   4   1   32.70    5.12
   0   4   1   41.30    6.22
  -1  -4  -1  153.08   13.02
  -1  -4  -1   87.76   13.54
   1   4   1   95.17    9.66
   1   4   1  110.98   12.95
   1   4   1  105.51    5.97
   1   4   1  108.35    5.31
   1   4   1  115.02    5.37
   1   4   1  118.80    5.95
  -2  -4  -1    1.51    4.19
  -2  -4  -1    1.78    0.39
  -2  -4  -1    1.89    1.12
  -2  -4  -1    1.57    0.36
  -2  -4  -1    5.94    4.90
   2   4   1   -0.58    0.98
   2   4   1    1.41    1.37
   2   4   1    0.87    0.40
   2   4   1    1.82    0.55
   2   4   1    2.28    1.43
  -3  -4  -1  167.37    9.27
  -3  -4  -1  165.89    8.10
  -3  -4  -1  139.90   18.67
   3   4   1  165.06    8.34
   3   4   1  165.17    9.70
   3   4   1  182.26    9.74
  -4  -4  -1    0.40    0.70
  -4  -4  -1    0.93    0.71
  -4  -4  -1   -2.33    3.91
  -4  -4  -1    2.11    2.03
   4   4   1    0.99    2.07
   4   4   1    0.87    1.19
   4   4   1   -0.06    0.85
   4   4   1    1.95    1.95
  -5  -4  -1   46.67    5.09
  -5  -4  -1   67.99    3.80
  -5  -4  -1   61.16   11.36
   5   4   1   64.53    4.07
   5   4   1   63.29    6.20
   5   4   1   68.11    6.70
  -6  -4  -1   -2.08    4.13
  -6  -4  -1    1.67    1.14
   6   4   1   -0.89    1.35
   6   4   1    3.86    3.16
   6   4   1    1.06    1.24
  -7  -4  -1   15.41    2.00
   7   4   1   11.97    2.95
   7   4   1   15.72    4.82
   7   4   1   14.23    2.42
  -8  -4  -1    2.06    1.59
   8   4   1   -0.12    1.76
   7  -5  -1    6.60   14.04
   7  -5  -1    4.85    7.70
  -7   5   1    7.10    2.70
  -7   5   1    6.60    1.59
  -7   5   1    6.84    3.85
   6  -5  -1   16.64    7.85
   6  -5  -1   14.12   13.18
  -6   5   1   15.45    4.19
  -6   5   1   17.41    2.02
  -6   5   1    9.04    2.75
   5  -5  -1    6.04    5.99
   5  -5  -1   14.51   11.78
  -5   5   1    9.19    4.23
  -5   5   1    1.75    1.84
  -5   5   1    8.69    3.05
  -5   5   1    6.64    1.27
   4  -5  -1   22.57   12.38
   4  -5  -1   52.94    9.54
   4  -5  -1   27.00    7.56
  -4   5   1   29.19    3.83
  -4   5   1   25.57    3.67
  -4   5   1   30.93    6.13
  -4   5   1   22.99    2.01
   3  -5  -1    1.36    4.94
   3  -5  -1   11.86    5.49
   3  -5  -1    6.47    9.24
  -3   5   1   14.68    4.31
  -3   5   1    5.94    2.02
  -3   5   1    5.58    0.89
  -3   5   1    6.06    1.79
  -3   5   1    6.52    0.88
  -3   5   1    4.42    3.65
   2  -5  -1   92.25   12.67
   2  -5  -1   75.93   15.21
   2  -5  -1   85.91   10.24
  -2   5   1   82.17    4.37
  -2   5   1   88.21    4.43
  -2   5   1   91.39    5.24
  -2   5   1   88.99    5.15
   1  -5  -1   30.36    8.48
   1  -5  -1   28.19    5.93
   1  -5  -1   30.18   10.16
  -1   5   1   16.19    5.29
  -1   5   1   30.30    1.98
  -1   5   1   28.77    1.80
   0  -5  -1  126.38   14.03
   0  -5  -1   80.55   13.31
   0   5   1   99.78    4.82
   0   5   1   97.25    4.98
   0   5   1   91.28    9.42
  -1  -5  -1   -2.03    5.01
  -1  -5  -1   -1.50    3.98
   1   5   1    0.51    0.32
   1   5   1   -0.92    0.84
   1   5   1   -0.06    0.24
   1   5   1   -0.39    0.87
   1   5   1    1.32    1.03
   1   5   1   -0.25    2.13
  -2  -5  -1  113.69   16.72
   2   5   1  130.58    6.46
   2   5   1  128.14   11.45
   2   5   1  124.93    6.33
   2   5   1  133.45    7.63
   2   5   1  133.58    7.49
  -3  -5  -1    2.72    0.56
  -3  -5  -1    2.43    0.59
  -3  -5  -1    2.82    1.48
  -3  -5  -1    2.03    5.64
   3   5   1    1.32    1.33
   3   5   1    4.13    0.91
   3   5   1    3.86    2.02
   3   5   1    3.75    2.05
  -4  -5  -1   65.03   14.74
  -4  -5  -1   79.17    4.09
  -4  -5  -1   69.37    5.50
  -4  -5  -1   73.41    3.97
   4   5   1   69.98    6.18
   4   5   1   70.09    4.24
   4   5   1   73.29    6.28
  -5  -5  -1    4.51    6.24
  -5  -5  -1    2.08    0.95
   5   5   1    1.12    1.70
   5   5   1    3.07    1.16
   5   5   1    1.90    2.84
  -6  -5  -1   15.07    1.79
  -6  -5  -1   21.46    8.94
   6   5   1    9.00    2.83
   6   5   1   13.43    4.41
   6   5   1   16.61    2.29
  -7  -5  -1    0.36    1.28
   7   5   1    4.50    1.89
   7   5   1    6.59    4.18
   7   5   1    2.96    1.96
  -8  -5  -1   13.11    2.16
   8   5   1    6.32    2.60
   8   5   1    9.52    2.30
   8   5   1   14.59    5.11
   7  -6  -1   12.91   14.83
   6  -6  -1    1.87    6.59
   6  -6  -1   -0.78   12.26
  -6   6   1    1.57    3.17
  -6   6   1    2.15    1.98
   5  -6  -1   29.09   15.90
   5  -6  -1   23.76    8.86
  -5   6   1   23.55    6.30
  -5   6   1   17.17    3.84
  -5   6   1   18.13    2.02
   4  -6  -1   -5.71    4.71
   4  -6  -1   -0.09    4.37
   4  -6  -1   -8.30    9.64
  -4   6   1    0.06    1.44
  -4   6   1    2.12    3.59
  -4   6   1    1.04    2.10
  -4   6   1    0.54    0.75
  -4   6   1    2.61    1.94
   3  -6  -1   97.60   19.99
   3  -6  -1   93.03   12.09
  -3   6   1   98.63    6.03
  -3   6   1   91.61    5.85
  -3   6   1   86.46    4.68
  -3   6   1   79.75   12.09
   2  -6  -1    3.24    9.40
   2  -6  -1    1.10    4.45
   2  -6  -1   -0.45    4.79
  -2   6   1    0.99    1.07
  -2   6   1    1.76    1.30
  -2   6   1   -0.17    0.95
  -2   6   1    2.13    0.45
  -2   6   1   -0.36    3.36
  -2   6   1    1.97    0.57
   1  -6  -1  103.25   11.40
   1  -6  -1   89.94   14.18
   1  -6  -1  103.72   17.35
  -1   6   1   87.76    4.60
  -1   6   1   87.23    4.26
  -1   6   1   86.13    4.33
  -1   6   1   89.67    4.67
   0  -6  -1    4.81    7.89
   0  -6  -1    2.63    5.83
   0   6   1    2.71    0.30
   0   6   1    0.94    1.22
   0   6   1    4.27    1.21
   0   6   1    2.68    0.70
  -1  -6  -1   83.68   14.49
  -1  -6  -1  125.14   14.99
   1   6   1   92.14    4.96
   1   6   1   78.21    4.16
   1   6   1   78.49    4.08
   1   6   1   84.43    5.14
  -2  -6  -1    8.53    7.47
  -2  -6  -1   22.31    9.32
   2   6   1    2.65    1.68
   2   6   1    5.67    0.72
   2   6   1    4.94    1.89
   2   6   1    5.67    2.06
   2   6   1    5.49    0.89
  -3  -6  -1   88.43   16.04
   3   6   1   95.26    6.56
   3   6   1   82.71    6.46
   3   6   1   87.51    6.63
   3   6   1   87.32    4.76
  -4  -6  -1    0.58    7.05
  -4  -6  -1    3.61    0.76
   4   6   1    2.96    2.72
   4   6   1    7.81    2.90
   4   6   1    4.88    1.22
   4   6   1    2.21    1.84
  -5  -6  -1   22.08   10.10
   5   6   1   22.61    2.39
   5   6   1   13.28    3.24
   5   6   1   20.75    4.34
  -6  -6  -1    5.79    1.28
  -6  -6  -1   10.43    8.00
   6   6   1    4.00    2.13
   6   6   1    7.53    1.75
   6   6   1    6.02    4.02
  -7  -6  -1   11.86    1.85
  -7  -6  -1   15.02    8.48
   7   6   1   15.80    4.94
   7   6   1    8.15    2.95
   7   6   1   16.60    2.61
  -8  -6  -1    4.10    1.68
   8   6   1    8.47    4.62
   8   6   1    5.40    2.63
   6  -7  -1   26.44   16.65
   5  -7  -1    2.62    6.63
   5  -7  -1    0.89   13.14
  -5   7   1   -1.77    2.35
  -5   7   1    2.01    1.93
   4  -7  -1   74.17   12.20
   4  -7  -1   45.74   10.63
   4  -7  -1   36.73   15.96
  -4   7   1   45.75    9.32
  -4   7   1   42.98    4.84
   3  -7  -1    2.97   11.57
   3  -7  -1    3.22    5.26
   3  -7  -1   -0.51    5.59
  -3   7   1    1.15    1.14
  -3   7   1    1.08    4.26
  -3   7   1    0.82    1.70
  -3   7   1    3.51    1.83
  -3   7   1    0.76    1.40
   2  -7  -1   42.80    9.48
   2  -7  -1   48.40   12.63
   2  -7  -1   52.56   15.86
  -2   7   1   38.65    9.66
  -2   7   1   55.95    3.61
  -2   7   1   55.02    3.46
   1  -7  -1    7.58    5.83
   1  -7  -1    5.48    6.79
   1  -7  -1    3.50   10.04
  -1   7   1    3.45    4.28
  -1   7   1    1.97    1.49
   0  -7  -1   31.01   11.23
   0  -7  -1   31.52   12.12
   0   7   1   28.54    1.58
   0   7   1   15.71    6.49
   0   7   1   30.58    2.57
   0   7   1   32.20    2.02
  -1  -7  -1    9.99    8.56
  -1  -7  -1   18.58   10.62
   1   7   1    3.59    1.93
   1   7   1   10.28    2.07
   1   7   1   11.49    1.86
   1   7   1    9.61    0.94
   1   7   1    9.05    0.78
  -2  -7  -1   65.87   17.02
   2   7   1   71.14    5.55
   2   7   1   71.47    5.28
   2   7   1   73.85    3.97
  -3  -7  -1   11.73    9.62
   3   7   1   15.88    3.14
   3   7   1    5.13    2.32
   3   7   1   11.11    3.02
   3   7   1   13.71    1.54
  -4  -7  -1   13.55   10.09
   4   7   1    7.69    2.64
   4   7   1   17.74    1.93
   4   7   1   13.69    3.69
  -5  -7  -1    7.25    8.56
   5   7   1    7.46    2.67
   5   7   1   12.79    4.24
   5   7   1   13.82    2.02
  -6  -7  -1    1.07    7.58
   6   7   1    3.45    2.24
   6   7   1    2.70    1.51
   6   7   1    8.00    4.25
  -7  -7  -1   14.08    9.81
   7   7   1    4.59    4.37
   7   7   1    6.20    1.95
   7   7   1    6.14    2.71
   5  -8  -1   25.08   17.66
   4  -8  -1    7.62   14.44
   4  -8  -1    3.44    7.16
   4  -8  -1    1.96    6.62
  -4   8   1    1.31    4.75
  -4   8   1    6.47    2.58
  -4   8   1    3.89    2.37
   3  -8  -1   32.63    9.58
   3  -8  -1   43.47   17.46
   3  -8  -1   37.23   11.62
  -3   8   1   34.83    3.35
  -3   8   1   19.34    7.74
  -3   8   1   30.78    3.07
   2  -8  -1    2.06    6.12
   2  -8  -1   18.69   13.34
   2  -8  -1    4.92    7.35
  -2   8   1    1.83    1.48
  -2   8   1    2.08    1.81
  -2   8   1    2.47    4.79
  -2   8   1    3.19    1.20
  -2   8   1    5.39    1.19
   1  -8  -1   27.00   11.34
   1  -8  -1   37.39   15.03
  -1   8   1   11.95    2.67
  -1   8   1   12.02    5.89
   0  -8  -1   31.09   14.12
   0  -8  -1   16.86   10.62
   0   8   1    7.06    2.39
   0   8   1   10.78    5.62
  -1  -8  -1   42.52   14.97
  -1  -8  -1   74.88   17.32
   1   8   1   45.74    3.64
   1   8   1   38.03    4.01
  -2  -8  -1   40.23   13.82
  -2  -8  -1   19.51   12.85
   2   8   1   16.14    2.95
   2   8   1    8.36    2.78
   2   8   1   20.74    3.07
  -3  -8  -1    5.09    9.58
   3   8   1    7.92    2.75
   3   8   1   11.59    3.20
  -4  -8  -1    7.81   10.01
   4   8   1    7.10    3.25
   4   8   1    8.11    1.55
   4   8   1    5.47    2.43
  -5  -8  -1    4.95    9.48
   5   8   1    5.98    3.53
   5   8   1    5.53    1.66
   5   8   1    5.27    2.39
  -6  -8  -1   15.17   11.42
   6   8   1    4.98    1.95
   6   8   1    8.89    3.00
   6   8   1   10.36    4.44
   4  -9  -1   11.01   15.28
   3  -9  -1    7.51    8.39
   3  -9  -1    1.36    7.43
   3  -9  -1   21.41   17.03
  -3   9   1   -0.35    4.90
  -3   9   1    4.11    1.50
  -3   9   1    5.87    2.23
  -3   9   1    4.18    1.62
   2  -9  -1    7.19   14.08
   2  -9  -1    7.05    8.58
  -2   9   1    7.15    2.31
  -2   9   1    3.91    5.64
   1  -9  -1    6.58   10.36
   1  -9  -1   14.35   14.66
  -1   9   1    4.19    2.05
  -1   9   1    6.45    5.51
  -1   9   1    4.76    1.82
   0  -9  -1   17.50   11.89
   0  -9  -1   31.55   16.09
   0   9   1   11.67    2.93
   0   9   1    9.60    2.22
   0   9   1   12.15    6.07
  -1  -9  -1   23.36   15.78
  -1  -9  -1   24.75   13.57
   1   9   1   13.57    2.74
   1   9   1   10.50    3.00
   1   9   1    9.12    1.99
   1   9   1   18.57    2.38
   1   9   1    9.56    5.85
  -2  -9  -1   11.56   12.22
   2   9   1   12.40    2.90
   2   9   1    5.85    2.49
   2   9   1    9.50    2.83
  -3  -9  -1   14.15   12.59
   3   9   1   15.08    3.49
   3   9   1    8.21    2.97
  -4  -9  -1   -0.30   11.13
   4   9   1    4.39    2.48
   4   9   1   -3.89    2.68
  -5  -9  -1    8.57   11.92
   5   9   1    6.25    4.16
   5   9   1    3.06    2.64
   2 -10  -1    3.11    8.64
   2 -10  -1    8.37   16.68
  -2  10   1    5.32    6.59
  -2  10   1    6.20    2.15
   1 -10  -1   10.47   16.29
   1 -10  -1    9.72   10.92
  -1  10   1    6.25    6.20
  -1  10   1    7.49    2.22
  -1  10   1    7.66    2.55
   0 -10  -1   46.81   18.91
   0 -10  -1   26.75   14.72
   0  10   1   13.74    2.73
   0  10   1   13.03    7.20
   0  10   1   11.60    3.21
  -1 -10  -1    9.12   15.93
  -1 -10  -1    1.85   11.30
   1  10   1    2.91    2.24
   1  10   1    6.55    5.40
  -2 -10  -1   25.46   15.35
   2  10   1   10.34    3.28
   2  10   1    9.44    5.75
   2  10   1   13.85    3.37
  -3 -10  -1    2.35   11.51
   3  10   1    3.04    3.07
   3  10   1    3.49    2.42
  -4 -10  -1   10.98   13.69
  -3 -10   2   -2.61   13.08
  -2 -10   2    2.50   13.83
   1  10  -2    2.25    3.02
  -1 -10   2   11.13   13.78
   0  10  -2    0.01    2.28
   0 -10   2   -1.71   10.18
   1 -10   2   10.20   12.14
  -5  -9   2   -2.69   10.21
  -4  -9   2    7.11   12.25
   3   9  -2   -0.27    2.22
   3   9  -2    1.61    4.40
   3   9  -2    4.41    3.86
  -3  -9   2   -2.12   10.39
   2   9  -2    9.17    3.30
   2   9  -2   16.75    4.39
   2   9  -2    8.48    5.92
  -2  -9   2    9.90   12.78
   1   9  -2    0.11    4.29
   1   9  -2    2.09    2.33
   1   9  -2    8.29    3.82
  -1  -9   2   -2.22   10.86
   0   9  -2   11.94    3.37
   0   9  -2    9.95    6.92
   0   9  -2   17.24    4.01
   0  -9   2    7.81   11.32
  -1   9  -2   -0.82    2.13
  -1   9  -2    1.55    5.09
  -1   9  -2   -0.91    1.93
   1  -9   2    1.57   14.55
   1  -9   2   -3.88    8.74
  -2   9  -2   20.12    9.07
  -2   9  -2   19.49    3.21
   2  -9   2   21.85    8.88
   2  -9   2   55.21   20.24
   2  -9   2   25.62   12.63
  -3   9  -2   -2.16    2.31
  -3   9  -2   -1.26    5.89
   3  -9   2   -6.93    6.57
   3  -9   2    4.13   15.46
   3  -9   2    4.67    8.31
   6   8  -2    1.89    1.95
  -6  -8   2    7.31   11.89
   5   8  -2   11.52    2.30
   5   8  -2   17.00    5.55
   5   8  -2    9.09    3.51
  -5  -8   2    0.68   10.68
   4   8  -2    2.50    1.49
   4   8  -2    3.50    3.70
   4   8  -2    0.55    2.21
  -4  -8   2   -2.14    9.30
   3   8  -2   21.25    4.76
   3   8  -2   17.35    3.99
  -3  -8   2   33.78   16.44
   2   8  -2    0.62    4.21
   2   8  -2   -0.19    2.03
   2   8  -2    0.01    2.97
  -2  -8   2   -5.47    8.02
   1   8  -2   12.54    6.47
   1   8  -2   27.67    4.69
   1   8  -2   16.47    3.64
   1   8  -2   27.84    3.28
  -1  -8   2   20.72   13.08
   0   8  -2    6.95    2.60
   0   8  -2    7.60    2.10
   0   8  -2    0.86    4.08
   0   8  -2    4.57    3.42
   0  -8   2   24.17   14.89
   0  -8   2   11.68   10.40
  -1   8  -2   23.20    3.70
  -1   8  -2   12.97    7.03
  -1   8  -2   15.47    3.37
   1  -8   2   22.00   11.70
   1  -8   2   69.34   19.01
   1  -8   2   24.49    7.57
  -2   8  -2    0.35    2.10
  -2   8  -2    3.48    2.31
  -2   8  -2    0.87    5.34
  -2   8  -2    1.86    1.85
   2  -8   2   14.91   14.27
   2  -8   2   -0.23    5.80
   2  -8   2   -4.32    6.86
  -3   8  -2   17.34    3.30
  -3   8  -2   12.97    7.61
   3  -8   2    6.56    7.43
   3  -8   2   14.05    8.14
   3  -8   2   24.12   17.15
  -4   8  -2   -1.17    5.49
  -4   8  -2    2.00    2.59
   4  -8   2    3.69    7.29
   4  -8   2   10.26   14.68
  -5   8  -2    5.50    7.20
   5  -8   2    5.94   15.92
   7   7  -2    0.93    4.81
  -7  -7   2   -0.41    7.67
   6   7  -2   17.96    5.47
   6   7  -2   12.14    2.48
   6   7  -2    8.51    3.64
  -6  -7   2   15.55   12.09
   5   7  -2    7.42    4.20
   5   7  -2    1.02    1.46
   5   7  -2   -1.10    2.00
  -5  -7   2    0.10    9.47
   4   7  -2   30.38    2.77
   4   7  -2   17.15    3.91
   4   7  -2   22.95    5.05
  -4  -7   2   23.88   13.11
   3   7  -2    3.02    2.99
   3   7  -2    0.86    1.12
   3   7  -2    0.48    1.97
  -3  -7   2   -0.07    8.23
   2   7  -2   24.51    2.12
   2   7  -2   17.09    3.67
   2   7  -2   26.33    4.50
   2   7  -2   25.78    3.41
  -2  -7   2   27.50   12.71
   1   7  -2    3.70    1.08
   1   7  -2    3.26    1.97
   1   7  -2    2.81    3.03
   1   7  -2    2.58    4.18
   1   7  -2    5.97    1.96
  -1  -7   2    0.08    8.12
   0   7  -2   30.90    4.73
   0   7  -2   20.83    3.92
   0   7  -2   38.16    2.46
   0   7  -2   31.27    3.26
   0   7  -2   19.60    7.30
   0  -7   2   24.67   11.83
   0  -7   2   78.45   17.92
  -1   7  -2    5.27    2.03
  -1   7  -2    7.80    3.00
  -1   7  -2   10.55    1.58
  -1   7  -2    9.58    5.60
  -1   7  -2    6.09    2.15
   1  -7   2   10.06    5.43
   1  -7   2    3.94    7.45
   1  -7   2   16.26   12.42
  -2   7  -2   23.62    8.34
  -2   7  -2   22.38    3.47
  -2   7  -2   28.30    3.85
  -2   7  -2   31.88    3.59
   2  -7   2   47.15   15.51
   2  -7   2   36.67    8.45
   2  -7   2   20.95    9.88
  -3   7  -2    7.93    2.78
  -3   7  -2    3.28    2.28
  -3   7  -2    7.51    5.73
   3  -7   2    8.98   12.17
   3  -7   2    4.09    6.07
   3  -7   2    5.95    6.67
  -4   7  -2    6.57    6.56
  -4   7  -2    7.31    2.97
   4  -7   2    6.14    6.89
   4  -7   2   10.61    7.08
   4  -7   2   13.43   13.56
  -5   7  -2    8.89    3.47
  -5   7  -2   16.80    7.61
   5  -7   2    8.69    8.33
   5  -7   2   15.83   14.58
  -6   7  -2    4.52    6.67
   6  -7   2  -11.00   11.57
   7   6  -2    8.49    2.41
   7   6  -2    7.62    4.81
   7   6  -2   -0.13    2.63
  -7  -6   2    6.89    8.86
  -7  -6   2    5.50    1.73
   6   6  -2   -0.08    3.80
   6   6  -2    1.79    2.53
   6   6  -2    3.80    1.82
  -6  -6   2    2.19    1.31
  -6  -6   2   -1.11    7.48
   5   6  -2   21.95    2.53
   5   6  -2   12.44    3.39
   5   6  -2   10.64    4.36
  -5  -6   2   17.35    1.88
  -5  -6   2   15.99   10.74
   4   6  -2    0.93    2.93
   4   6  -2   -0.57    1.67
   4   6  -2    0.59    1.05
  -4  -6   2    0.10    0.83
  -4  -6   2   -3.87    6.80
   3   6  -2   53.54    5.05
   3   6  -2   65.65    6.43
   3   6  -2   58.02    3.61
  -3  -6   2   39.78   14.61
  -3  -6   2   51.18    2.90
   2   6  -2    8.37    2.48
   2   6  -2   10.43    3.20
   2   6  -2    8.63    2.34
   2   6  -2   11.82    2.57
   2   6  -2   12.70    1.53
  -2  -6   2    2.91    9.00
   1   6  -2   54.88    5.54
   1   6  -2   52.40    4.25
   1   6  -2   49.50    3.22
   1   6  -2   70.73    6.27
  -1  -6   2   39.37   13.41
   0   6  -2   53.37    3.08
   0   6  -2   47.53    2.78
   0   6  -2   32.47    8.83
   0   6  -2   48.14    5.61
   0  -6   2  109.30   17.66
   0  -6   2   43.50   13.36
   0  -6   2   55.13    7.55
  -1   6  -2   20.05    7.18
  -1   6  -2   38.97    2.62
  -1   6  -2   26.64    3.61
  -1   6  -2   44.45    3.76
  -1   6  -2   46.52    4.94
  -1   6  -2   35.34    2.08
   1  -6   2   41.48    7.63
   1  -6   2   27.84   10.81
   1  -6   2   74.85   15.60
  -2   6  -2   13.98    3.04
  -2   6  -2   16.82    2.64
  -2   6  -2   12.25    2.40
  -2   6  -2   16.58    1.77
  -2   6  -2   14.45    6.29
   2  -6   2   17.17    8.55
   2  -6   2   16.02    5.73
   2  -6   2   26.89   11.80
  -3   6  -2   14.35    1.72
  -3   6  -2   11.52    2.48
  -3   6  -2   14.76    3.15
  -3   6  -2   10.84    2.13
  -3   6  -2   18.84    7.23
   3  -6   2   12.71    7.36
   3  -6   2   11.21   11.42
   3  -6   2   13.72    6.08
  -4   6  -2   36.63    9.10
  -4   6  -2   23.38    4.17
  -4   6  -2   29.02    2.57
   4  -6   2   34.36    9.34
   4  -6   2   34.93    8.87
   4  -6   2   33.78   14.99
  -5   6  -2    6.56    1.46
  -5   6  -2    8.96    5.82
  -5   6  -2    5.78    3.21
   5  -6   2   10.32   12.05
   5  -6   2   12.04    6.73
  -6   6  -2   20.64    7.61
  -6   6  -2   17.17    4.51
   6  -6   2   24.09    8.66
   6  -6   2   26.12   14.59
   7  -6   2    5.50   12.73
  -8  -5   2    5.22    1.90
   7   5  -2   -0.08    2.52
   7   5  -2    1.57    1.82
   7   5  -2   -1.19    4.44
  -7  -5   2    3.70    7.60
  -7  -5   2    3.47    1.60
   6   5  -2   16.97    3.94
   6   5  -2   22.36    2.85
   6   5  -2   30.23    6.10
  -6  -5   2   25.91    2.56
  -6  -5   2   22.28   10.06
   5   5  -2    6.72    1.74
   5   5  -2    6.68    3.82
   5   5  -2    3.35    2.37
  -5  -5   2    4.91    1.26
  -5  -5   2    5.20    7.35
   4   5  -2   59.08    3.97
   4   5  -2   64.18    7.28
  -4  -5   2   44.95   14.15
  -4  -5   2   62.43    3.63
   3   5  -2   16.76    2.76
   3   5  -2   18.20    2.37
   3   5  -2   10.98    2.84
   3   5  -2   24.94    3.48
   3   5  -2   22.26    4.20
   3   5  -2   21.55    1.97
  -3  -5   2   21.67    1.60
  -3  -5   2   21.67    1.68
  -3  -5   2   18.79    3.19
  -3  -5   2   22.55   10.20
   2   5  -2   35.63    3.52
   2   5  -2   40.50    3.43
   2   5  -2   36.93    3.95
   2   5  -2   30.87    4.35
   2   5  -2   31.64    2.38
  -2  -5   2   33.58    2.00
  -2  -5   2   35.42    1.99
  -2  -5   2   29.53    3.55
  -2  -5   2   31.20   11.14
   1   5  -2   76.73    4.99
   1   5  -2   73.74    3.90
   1   5  -2   79.09    4.05
   1   5  -2   69.06    5.85
   1   5  -2   65.96    5.87
  -1  -5   2   58.01   14.72
  -1  -5   2   77.65    4.63
   0   5  -2   52.92    2.89
   0   5  -2   31.58    8.31
   0   5  -2   46.54    3.94
   0   5  -2   50.80    5.02
   0   5  -2   47.73    2.68
   0  -5   2   54.46    6.60
   0  -5   2   41.59   11.77
  -1   5  -2   35.53    8.57
  -1   5  -2   49.24    2.61
  -1   5  -2   54.40    5.00
  -1   5  -2   48.49    3.83
  -1   5  -2   46.12    2.95
   1  -5   2   69.14   13.38
   1  -5   2   42.18   11.53
   1  -5   2   45.42    7.17
  -2   5  -2   15.44    1.61
  -2   5  -2   14.60    2.93
  -2   5  -2   11.22    2.05
  -2   5  -2   12.37    5.39
  -2   5  -2   14.14    1.17
  -2   5  -2   14.95    2.34
   2  -5   2   34.73   11.44
   2  -5   2   10.86    7.03
   2  -5   2   13.22    4.76
  -3   5  -2   50.30    4.45
  -3   5  -2   53.89    5.19
  -3   5  -2   50.63    3.25
  -3   5  -2   49.62    4.33
  -3   5  -2   57.98    9.53
  -3   5  -2   48.42    8.26
   3  -5   2   49.28   11.28
   3  -5   2   61.98    9.58
   3  -5   2   61.08   14.17
  -4   5  -2    0.80    1.03
  -4   5  -2    0.99    2.53
  -4   5  -2    5.19    4.46
  -4   5  -2    5.49    2.21
   4  -5   2    1.94    4.07
   4  -5   2    3.74    5.04
   4  -5   2   -6.42    7.48
  -5   5  -2   40.59    3.03
  -5   5  -2   42.43    5.64
   5  -5   2   46.31    9.74
   5  -5   2   45.30   13.90
  -6   5  -2    1.19    3.24
  -6   5  -2    0.81    1.17
  -6   5  -2    3.62    5.19
   6  -5   2   -0.25    6.08
   6  -5   2   12.90   10.59
  -7   5  -2   10.69    2.76
  -7   5  -2   19.65    7.78
  -7   5  -2   12.18    2.05
  -7   5  -2    6.42    3.87
   7  -5   2    8.27    7.52
   7  -5   2   20.19   13.44
  -8  -4   2    2.42    1.76
   7   4  -2    7.38    2.02
   7   4  -2    8.76    2.94
   7   4  -2   10.29    4.83
  -7  -4   2    9.37    1.84
   6   4  -2   14.78    3.51
   6   4  -2   18.86    2.61
   6   4  -2   26.29    5.48
  -6  -4   2   18.47    9.20
  -6  -4   2   22.66    2.42
   5   4  -2   22.22    3.93
   5   4  -2   33.22    2.88
   5   4  -2   25.96    5.03
  -5  -4   2   28.07    2.77
  -5  -4   2   37.46   11.56
  -5  -4   2   32.76    2.45
   4   4  -2   20.82    2.30
   4   4  -2   32.80    4.17
   4   4  -2   35.85    5.18
   4   4  -2   18.36    3.30
   4   4  -2   27.63    2.22
  -4  -4   2   15.35    2.75
  -4  -4   2   31.57   10.79
   3   4  -2   10.52    2.48
   3   4  -2   14.67    2.67
   3   4  -2   18.35    3.57
   3   4  -2   18.23    2.07
   3   4  -2   18.53    1.90
  -3  -4   2   17.95    1.52
  -3  -4   2   12.62    8.04
  -3  -4   2   17.21    1.47
   2   4  -2  102.18    8.63
   2   4  -2  115.25    7.62
   2   4  -2  114.54    5.89
   2   4  -2  116.63    6.89
  -2  -4   2  109.72    6.99
  -2  -4   2  118.63    5.71
  -2  -4   2  111.73    5.71
  -2  -4   2  105.60   16.08
   1   4  -2   25.88    3.56
   1   4  -2   32.72    3.36
   1   4  -2   24.71    2.52
   1   4  -2   25.12    1.78
   1   4  -2   24.77    1.68
   1   4  -2   26.95    2.72
  -1  -4   2   26.74    1.48
  -1  -4   2   26.41    1.49
  -1  -4   2   24.13    2.81
  -1  -4   2   25.29    8.84
   0   4  -2  104.06    6.40
   0   4  -2  106.79    7.30
   0   4  -2  111.83    5.50
   0   4  -2  104.47    5.36
   0  -4   2  106.72    9.66
   0  -4   2  112.32    5.80
   0  -4   2   93.80   14.72
  -1   4  -2   18.17    5.45
  -1   4  -2   26.24    1.52
  -1   4  -2   27.26    3.62
  -1   4  -2   18.43    2.57
  -1   4  -2   25.30    2.59
  -1   4  -2   26.44    1.88
   1  -4   2   44.69    9.66
   1  -4   2   26.63    1.93
   1  -4   2   27.16    4.97
   1  -4   2   25.76    8.38
  -2   4  -2  104.07    6.78
  -2   4  -2  108.49    5.39
  -2   4  -2   82.85    7.55
  -2   4  -2   97.91   12.05
  -2   4  -2  109.98    6.18
  -2   4  -2   98.70    5.07
  -2   4  -2   94.68   12.62
   2  -4   2   81.24   12.89
   2  -4   2  122.22   14.03
   2  -4   2  107.37    5.74
   2  -4   2  112.23   10.31
  -3   4  -2   -0.64    1.39
  -3   4  -2   -0.24    2.98
  -3   4  -2   -0.32    0.74
  -3   4  -2   -1.04    1.89
  -3   4  -2   -0.28    1.92
  -3   4  -2    0.28    0.76
   3  -4   2   -0.63    3.33
   3  -4   2    1.69    6.28
   3  -4   2    0.13    0.30
   3  -4   2   -0.84    2.99
   3  -4   2    1.18    1.19
   3  -4   2    0.09    0.29
  -4   4  -2  104.49    7.75
  -4   4  -2  104.91    7.19
  -4   4  -2  112.99    5.83
  -4   4  -2  109.08   11.30
   4  -4   2   94.82   12.27
   4  -4   2   94.21    5.27
   4  -4   2  117.84   12.20
   4  -4   2   94.12    5.18
   4  -4   2  109.40    6.94
   4  -4   2  117.29   15.73
  -5   4  -2    4.95    2.86
  -5   4  -2   -0.35    3.95
  -5   4  -2    0.88    1.02
   5  -4   2   -0.30    0.69
   5  -4   2  -10.18    6.98
   5  -4   2    0.20    4.63
  -6   4  -2   25.74    4.76
  -6   4  -2   20.78    2.36
   6  -4   2   22.43    7.61
   6  -4   2   15.51   10.48
  -7   4  -2    2.79    1.79
  -7   4  -2   -1.04    5.20
  -7   4  -2    1.47    3.65
  -7   4  -2    1.27    1.23
   7  -4   2    4.99    9.56
   7  -4   2   -1.15    5.79
  -8   4  -2    7.35    1.84
   8   3  -2    4.16    2.10
  -8  -3   2    4.22    1.96
   7   3  -2   13.08    2.31
   7   3  -2   10.84    2.88
   7   3  -2   13.88    4.91
  -7  -3   2   14.24    2.06
   6   3  -2   18.54    2.57
   6   3  -2   17.02    3.47
   6   3  -2   23.80    5.18
   6   3  -2   25.95    4.95
  -6  -3   2   20.18    2.72
  -6  -3   2   15.73    7.98
  -6  -3   2   23.86    2.24
   5   3  -2   21.74    3.82
   5   3  -2   26.52    2.59
   5   3  -2   31.81    5.22
   5   3  -2   32.82    4.81
  -5  -3   2   38.42    5.21
  -5  -3   2   30.70    2.36
  -5  -3   2   34.50    3.16
  -5  -3   2   30.22    9.70
   4   3  -2   17.64    1.99
   4   3  -2   12.56    2.97
   4   3  -2   14.42    3.52
   4   3  -2    9.59    2.34
  -4  -3   2   16.69    2.00
  -4  -3   2   14.98    3.04
  -4  -3   2   13.87    1.52
  -4  -3   2   14.67    7.43
   3   3  -2   77.11    4.44
   3   3  -2   81.81    6.32
   3   3  -2   81.81    6.28
   3   3  -2   75.37    5.54
  -3  -3   2   78.41    4.27
  -3  -3   2   83.19    4.40
  -3  -3   2   79.43   12.88
  -3  -3   2   78.02    6.19
   2   3  -2   16.22    1.30
   2   3  -2   14.58    2.08
   2   3  -2   17.84    1.46
   2   3  -2   21.02    2.62
   2   3  -2   18.68    3.24
   2   3  -2   16.42    1.99
  -2  -3   2   19.02    1.38
  -2  -3   2   19.17    7.41
  -2  -3   2   18.46    1.41
  -2  -3   2   26.78    3.05
   1   3  -2  154.40    8.60
   1   3  -2  154.12    9.19
   1   3  -2  158.90   11.72
   1   3  -2  156.46    7.78
   1   3  -2  162.38    7.85
  -1  -3   2  154.69    8.65
  -1  -3   2  164.16    7.72
  -1  -3   2  154.79    8.81
  -1  -3   2  153.56    7.72
  -1  -3   2  163.41   18.93
   0   3  -2   49.76    4.43
   0   3  -2   45.76    2.57
   0   3  -2   49.01    3.62
   0   3  -2   43.86    2.44
   0  -3   2   47.04    3.28
   0  -3   2   44.19    2.29
   0  -3   2   44.05    2.30
   0  -3   2   45.00    3.20
   0  -3   2   48.31   10.56
   0  -3   2   43.44    4.92
  -1   3  -2  118.25    5.93
  -1   3  -2  120.24    6.19
  -1   3  -2  128.10    7.81
  -1   3  -2  118.86    6.76
   1  -3   2  126.42   10.51
   1  -3   2  120.85    6.50
   1  -3   2  107.17    6.82
   1  -3   2  110.00   14.57
   1  -3   2  117.06    5.80
   1  -3   2  124.58    5.80
   1  -3   2  165.51   14.13
  -2   3  -2    4.16    1.45
  -2   3  -2    3.75    0.88
  -2   3  -2    6.17    2.24
  -2   3  -2    3.66    0.63
  -2   3  -2    3.37    1.00
  -2   3  -2    2.58    2.92
   2  -3   2    4.90    3.04
   2  -3   2    1.49    0.79
   2  -3   2    2.82    1.25
   2  -3   2    8.69    5.76
   2  -3   2    3.70    0.55
   2  -3   2    3.84    0.61
   2  -3   2    1.86    3.94
   2  -3   2    3.03    2.56
  -3   3  -2  124.43   15.09
  -3   3  -2  151.27    7.63
  -3   3  -2  158.68   10.57
  -3   3  -2  147.68    9.17
  -3   3  -2  167.98   17.07
  -3   3  -2  148.49    8.58
   3  -3   2  134.08    7.39
   3  -3   2  132.60   15.17
   3  -3   2  156.83    7.35
  -4   3  -2    4.80    2.56
  -4   3  -2    2.67    1.84
  -4   3  -2    4.80    3.35
   4  -3   2   17.39    7.93
   4  -3   2    5.31    1.82
   4  -3   2    2.34    0.83
   4  -3   2    3.93    0.87
   4  -3   2    9.35    4.36
  -5   3  -2   49.23    3.28
  -5   3  -2   48.31    5.47
  -5   3  -2   51.52    6.01
   5  -3   2   46.72    3.07
   5  -3   2   41.01    3.08
   5  -3   2   52.57    8.97
   5  -3   2   49.54   11.99
  -6   3  -2    2.62    3.09
  -6   3  -2    2.94    1.21
  -6   3  -2    4.95    4.80
   6  -3   2   -0.08    4.84
   6  -3   2    2.46    1.19
   6  -3   2   -2.11    7.39
  -7   3  -2    6.69    2.28
  -7   3  -2   14.47    4.42
  -7   3  -2   13.88    2.12
   7  -3   2   10.69    1.84
   7  -3   2   16.36    7.11
   7  -3   2    8.45    8.89
  -8   3  -2    5.05    1.59
  -8   3  -2    5.85    2.06
  -8   3  -2    8.16    4.26
  -8   3  -2    7.62    6.63
   8  -3   2    2.98    7.66
   8   2  -2    9.63    2.52
  -8  -2   2   16.10    2.50
   7   2  -2    8.69    4.47
   7   2  -2    5.16    2.20
   7   2  -2    5.87    1.99
  -7  -2   2    9.33    1.93
   6   2  -2   35.38    3.15
   6   2  -2   24.04    3.71
   6   2  -2   41.10    6.34
   6   2  -2   26.96    5.34
  -6  -2   2   32.62    5.11
  -6  -2   2   29.62    3.35
  -6  -2   2   34.75    2.69
   5   2  -2    8.83    2.31
   5   2  -2   14.63    3.73
   5   2  -2   12.23    1.86
   5   2  -2    6.31    3.40
   5   2  -2   10.04    3.07
  -5  -2   2    8.39    6.05
  -5  -2   2   10.81    3.11
  -5  -2   2    9.87    1.76
  -5  -2   2   10.59    1.48
   4   2  -2   88.83    5.18
   4   2  -2   95.75    7.28
   4   2  -2   84.75    6.53
  -4  -2   2   90.60   12.95
  -4  -2   2   87.68    7.19
  -4  -2   2  101.40    6.80
  -4  -2   2   99.92    5.05
   3   2  -2    0.81    0.70
   3   2  -2   -2.65    1.69
   3   2  -2   -1.69    1.31
   3   2  -2    1.37    1.41
   3   2  -2    0.98    1.08
   3   2  -2   -0.58    0.71
  -3  -2   2   -0.36    0.68
  -3  -2   2   -1.55    4.22
  -3  -2   2    0.35    0.57
  -3  -2   2    1.07    0.87
  -3  -2   2   -3.01    1.10
  -3  -2   2    0.49    1.63
  -3  -2   2   -0.21    0.58
   2   2  -2  316.20   16.07
   2   2  -2  329.93   17.44
   2   2  -2  329.70   16.91
   2   2  -2  346.96   24.15
   2   2  -2  306.74   15.93
  -2  -2   2  347.22   24.09
  -2  -2   2  330.86   15.96
  -2  -2   2  360.08   17.39
  -2  -2   2  330.74   16.03
   1   2  -2    5.17    1.38
   1   2  -2    5.90    1.83
   1   2  -2    3.40    1.14
   1   2  -2    4.68    0.66
   1   2  -2    5.59    0.75
   1   2  -2    7.87    1.09
  -1  -2   2    3.12    0.89
  -1  -2   2    5.42    0.74
  -1  -2   2    2.06    0.95
  -1  -2   2    5.71    1.54
  -1  -2   2    6.19    1.70
  -1  -2   2    6.35    0.72
   0   2  -2  196.81    9.81
   0   2  -2  204.68    9.90
   0   2  -2  202.84   11.06
   0   2  -2  181.89   10.48
   0  -2   2  207.09    9.78
   0  -2   2  222.99   15.04
   0  -2   2  219.90   10.58
   0  -2   2  196.54    9.79
   0  -2   2  202.41   10.63
  -1   2  -2    5.95    2.08
  -1   2  -2    4.66    2.69
  -1   2  -2    4.61    0.79
  -1   2  -2    5.44    1.30
  -1   2  -2    5.21    0.57
  -1   2  -2    3.84    0.95
   1  -2   2    2.25    0.80
   1  -2   2    5.43    0.58
   1  -2   2    3.95    1.12
   1  -2   2    6.30    4.26
   1  -2   2    0.33    1.86
   1  -2   2    5.68    1.75
   1  -2   2    7.11    2.15
   1  -2   2    4.45    0.63
  -2   2  -2  327.35   21.47
  -2   2  -2  301.86   14.71
  -2   2  -2  312.38   15.57
  -2   2  -2  304.84   30.84
  -2   2  -2  308.71   14.87
  -2   2  -2  293.30   16.00
   2  -2   2  294.34   14.76
   2  -2   2  279.04   15.92
   2  -2   2  312.72   14.70
   2  -2   2  306.76   15.54
   2  -2   2  322.52   23.97
  -3   2  -2   13.93    2.42
  -3   2  -2   12.58    1.20
  -3   2  -2   12.20    2.73
  -3   2  -2   12.79    1.42
  -3   2  -2   20.49    4.63
   3  -2   2   11.24    2.25
   3  -2   2   13.40    1.30
   3  -2   2   16.82    4.17
   3  -2   2   17.89    6.30
   3  -2   2   12.78    1.28
   3  -2   2   12.08    3.89
  -4   2  -2  165.44    9.51
  -4   2  -2  159.04    9.96
   4  -2   2  139.55    7.84
   4  -2   2  130.61   15.21
   4  -2   2  162.65    7.87
   4  -2   2  155.78    9.40
  -5   2  -2    9.25    2.91
  -5   2  -2   11.07    1.64
  -5   2  -2   20.60    5.66
  -5   2  -2    6.23    3.01
   5  -2   2    9.63    2.66
   5  -2   2    4.25    6.44
   5  -2   2    7.75    1.43
   5  -2   2   15.62    5.39
  -6   2  -2   31.79    5.40
  -6   2  -2   26.89    2.81
   6  -2   2   28.12    9.92
   6  -2   2   32.28    2.75
   6  -2   2   43.35    8.71
  -7   2  -2    5.78    2.04
  -7   2  -2   10.12    4.11
  -7   2  -2    9.31    1.81
   7  -2   2   12.32    6.74
   7  -2   2    9.09    1.83
   7  -2   2   12.36    8.41
  -8   2  -2   21.96    5.51
  -8   2  -2    8.86    2.57
  -8   2  -2   13.44    2.21
   8  -2   2   14.76    7.84
   8  -2   2   14.30    2.38
   8   1  -2    2.98    9.62
   8   1  -2    2.53    4.94
   8   1  -2    0.87    1.76
  -8  -1   2    0.08    1.37
   7   1  -2   25.01    3.08
   7   1  -2   28.59    6.73
  -7  -1   2   29.00    3.68
  -7  -1   2   41.51    6.32
  -7  -1   2   29.98    2.94
   6   1  -2    3.69    1.62
   6   1  -2    4.89    3.88
   6   1  -2    4.32    3.09
   6   1  -2    3.03    1.59
  -6  -1   2    4.41    2.96
  -6  -1   2    4.61    1.64
  -6  -1   2    4.29    1.42
   5   1  -2   61.30    3.76
   5   1  -2   44.12    4.75
   5   1  -2   70.36    7.40
   5   1  -2   58.12    6.69
  -5  -1   2   51.64    4.84
  -5  -1   2   52.26    5.77
  -5  -1   2   55.85    3.45
  -5  -1   2   50.97   10.04
  -5  -1   2   64.47    5.83
   4   1  -2   -0.65    1.37
   4   1  -2   -2.15    1.51
   4   1  -2    2.73    2.30
   4   1  -2    1.05    0.93
   4   1  -2    0.72    0.61
   4   1  -2    1.16    1.12
   4   1  -2    1.87    2.22
  -4  -1   2    0.98    0.88
  -4  -1   2    2.47    1.83
  -4  -1   2    1.11    0.74
  -4  -1   2   -1.00    1.64
  -4  -1   2    0.72    0.69
   3   1  -2  268.75   14.36
   3   1  -2  289.95   14.56
   3   1  -2  292.27   15.65
   3   1  -2  295.85   16.14
  -3  -1   2  285.05   14.50
  -3  -1   2  324.73   21.72
  -3  -1   2  301.62   16.04
  -3  -1   2  301.09   14.41
  -3  -1   2  321.01   15.77
   2   1  -2   15.16    2.50
   2   1  -2    7.91    1.56
   2   1  -2    9.52    1.13
   2   1  -2   10.43    1.37
   2   1  -2   15.34    2.05
   2   1  -2    9.52    0.87
  -2  -1   2   13.92    2.25
  -2  -1   2    9.77    0.92
  -2  -1   2   13.15    2.02
  -2  -1   2   10.86    1.43
  -2  -1   2    9.85    0.99
   1   1  -2  225.41   17.67
   1   1  -2  240.79   11.68
   1   1  -2  257.85   12.77
   1   1  -2  252.56   11.78
   1   1  -2  241.11   12.30
  -1  -1   2  258.84   12.66
  -1  -1   2  236.33   11.73
  -1  -1   2  244.33   11.69
   0   1  -2   34.72    2.04
   0   1  -2   38.37    1.95
   0   1  -2   35.12    2.90
   0   1  -2   33.65    3.24
   0   1  -2   32.34    2.93
   0   1  -2   35.85    2.85
   0  -1   2   34.92    1.98
   0  -1   2   33.17    3.09
   0  -1   2   38.63    1.97
  -1   1  -2  161.22   17.20
  -1   1  -2  185.37    8.82
  -1   1  -2  179.91   12.02
  -1   1  -2  176.00    8.18
  -1   1  -2  167.30    9.31
  -1   1  -2  176.12    8.34
   1  -1   2  172.69    8.18
   1  -1   2  172.47    8.74
   1  -1   2  169.24    9.26
   1  -1   2  159.42    8.25
   1  -1   2  144.76   11.97
  -2   1  -2   72.24    3.77
  -2   1  -2   77.25    5.09
  -2   1  -2   70.65    4.53
  -2   1  -2   74.05    5.10
  -2   1  -2   72.06    3.65
   2  -1   2   67.25    3.64
   2  -1   2   67.99    5.13
   2  -1   2   63.15    7.41
   2  -1   2   65.91    4.90
   2  -1   2   67.03    8.20
   2  -1   2   66.31    3.71
  -3   1  -2  249.99   12.11
  -3   1  -2  236.62   11.95
  -3   1  -2  245.05   13.52
  -3   1  -2  244.17   13.07
   3  -1   2  259.44   12.03
   3  -1   2  234.09   17.07
   3  -1   2  265.25   13.84
   3  -1   2  233.73   12.03
   3  -1   2  251.17   25.06
   3  -1   2  231.49   19.34
  -4   1  -2   40.83    2.72
  -4   1  -2   47.97    5.14
  -4   1  -2   41.49    4.03
   4  -1   2   46.14    2.77
   4  -1   2   43.09    4.15
   4  -1   2   53.95    8.75
   4  -1   2   39.94    3.15
   4  -1   2   43.07    2.81
  -5   1  -2   26.71    4.02
  -5   1  -2   24.89    2.17
  -5   1  -2   23.58    4.24
   5  -1   2   23.58    2.27
   5  -1   2   33.14    8.20
   5  -1   2   45.22    7.30
   5  -1   2   26.28    4.24
  -6   1  -2   28.18    2.49
  -6   1  -2   27.41    5.04
   6  -1   2   21.46    8.07
   6  -1   2   29.02    4.79
   6  -1   2   44.08    8.14
   6  -1   2   24.58    2.60
  -7   1  -2    6.56    2.12
  -7   1  -2   13.12    4.30
  -7   1  -2   15.36    2.15
   7  -1   2   11.61    1.95
   7  -1   2   20.85    6.87
  -8   1  -2   12.19    2.17
  -8   1  -2    6.10    2.18
  -8   1  -2   14.81    4.73
   8  -1   2   17.28    7.32
   8  -1   2   13.07    2.39
   9  -1   2    3.27    2.07
   8   0  -2   18.95    2.98
   8   0  -2    9.47    9.90
   8   0  -2   17.98    7.11
  -8   0   2   21.47    2.78
  -8   0   2   14.84    3.21
   7   0  -2    1.69    1.62
   7   0  -2    0.11    4.26
   7   0  -2    4.83    8.71
  -7   0   2   -0.38    1.16
  -7   0   2   -1.03    2.99
  -7   0   2    0.23    1.54
   6   0  -2   30.53    6.80
   6   0  -2   26.30    2.75
   6   0  -2   30.08    5.44
   6   0  -2   29.48    3.02
  -6   0   2   33.01    2.73
  -6   0   2   29.28    3.65
  -6   0   2   37.29    5.53
   5   0  -2    3.31    1.22
   5   0  -2    5.43    2.77
   5   0  -2    3.92    1.25
   5   0  -2    1.46    3.34
  -5   0   2    4.30    2.72
  -5   0   2    4.60    1.20
  -5   0   2    3.72    1.50
  -5   0   2    7.58    2.83
   4   0  -2  159.73   10.20
   4   0  -2  151.42   11.71
   4   0  -2  170.82    8.42
   4   0  -2  165.37    9.86
  -4   0   2  176.87    9.95
  -4   0   2  147.75   12.24
  -4   0   2  159.28   10.06
  -4   0   2  167.24    8.19
   3   0  -2   55.34    3.08
   3   0  -2   50.02    4.40
   3   0  -2   53.50    3.22
   3   0  -2   55.65    4.36
   3   0  -2   55.56    4.85
   3   0  -2   59.62    6.06
  -3   0   2   52.35    4.61
  -3   0   2   60.47    4.53
  -3   0   2   56.76    3.09
  -3   0   2   56.99    3.21
  -3   0   2   55.49    4.65
   2   0  -2  234.60   11.21
   2   0  -2  248.10   17.18
   2   0  -2  219.44   11.05
   2   0  -2  214.44   11.85
   2   0  -2  216.72   16.23
   2   0  -2  233.99   12.35
  -2   0   2  224.17   16.78
  -2   0   2  233.57   12.32
  -2   0   2  244.60   11.95
  -2   0   2  233.24   11.08
  -2   0   2  226.32   11.16
   1   0  -2   70.06    5.27
   1   0  -2   66.19    4.01
   1   0  -2   68.56    4.51
   1   0  -2   61.92    5.53
   1   0  -2   74.49    5.18
   1   0  -2   67.38    3.44
   1   0  -2   70.14    3.57
  -1   0   2   74.21    5.27
  -1   0   2   57.56    5.11
  -1   0   2   71.91    3.45
  -1   0   2   68.09    3.54
  -1   0   2   73.91    4.52
  -1   0   2   68.53    4.05
  -1   0   2   67.24    5.50
   0   0  -2  158.48   12.67
   0   0  -2  195.04   12.37
   0   0  -2  167.95    9.35
   0   0  -2  174.68    8.48
   0   0  -2  167.52    8.97
   0   0  -2  151.88   16.96
   0   0  -2  171.37    8.40
   0   0   2  176.50    8.41
   0   0   2  169.87    9.28
   0   0   2  172.59    9.03
   0   0   2  171.37    8.46
   0   0   2  185.65   12.37
   0   0   2  198.57   12.74
  -1   0  -2  246.28   16.69
  -1   0  -2  245.98   11.93
  -1   0  -2  229.40   11.39
  -1   0  -2  236.90   12.35
  -1   0  -2  233.87   11.49
   1   0   2  240.09   11.97
   1   0   2  230.49   11.40
   1   0   2  226.66   11.48
   1   0   2  246.40   16.69
   1   0   2  219.32   12.23
   1   0   2  266.00   23.37
  -2   0  -2  338.30   15.72
  -2   0  -2  341.01   15.80
  -2   0  -2  335.48   16.47
  -2   0  -2  331.81   16.81
   2   0   2  316.62   16.48
   2   0   2  324.13   16.84
   2   0   2  315.88   15.77
   2   0   2  317.57   15.72
  -3   0  -2   78.11    4.38
  -3   0  -2   86.51    4.41
  -3   0  -2   81.96    6.00
  -3   0  -2   82.19    5.54
   3   0   2   84.64    5.71
   3   0   2   78.86    4.40
   3   0   2   82.00    4.50
   3   0   2   82.18    6.12
   3   0   2   86.15    8.04
  -4   0  -2   40.89    2.70
  -4   0  -2   41.92    4.84
  -4   0  -2   39.56    3.99
   4   0   2   53.26    7.36
   4   0   2   38.62    4.53
   4   0   2   42.53    2.76
   4   0   2   47.87    4.79
  -5   0  -2   29.27    2.39
  -5   0  -2   30.48    4.64
  -5   0  -2   31.45    4.35
   5   0   2   34.80    7.20
   5   0   2   27.42    2.35
   5   0   2   29.91    4.39
  -6   0  -2   30.94    2.69
  -6   0  -2   30.37    5.00
   6   0   2   30.11    4.95
   6   0   2   33.90    8.03
   6   0   2   27.93    2.61
  -7   0  -2   36.53    5.84
  -7   0  -2   31.84    2.86
   7   0   2   31.39    3.01
  -8   0  -2    3.28    1.76
  -8   0  -2    4.74    1.66
  -8   0  -2   11.63    4.73
   8   0   2    6.44    2.09
   8   0   2    7.57    5.99
   9   0   2    6.93    7.52
   8  -1  -2   -2.92    8.51
   8  -1  -2   -3.93    4.99
   8  -1  -2   -0.22    1.70
  -8   1   2   -1.43    1.90
  -8   1   2    2.24    1.60
  -8   1   2   -5.25    3.25
   7  -1  -2   15.39    6.49
   7  -1  -2   19.78    2.56
   7  -1  -2    6.60    9.54
  -7   1   2   18.65    2.36
  -7   1   2   25.10    5.29
  -7   1   2   11.17    2.80
   6  -1  -2    2.77    4.22
   6  -1  -2    6.53    8.62
   6  -1  -2    3.63    1.54
  -6   1   2    2.16    1.74
  -6   1   2    2.71    1.15
  -6   1   2    2.53    3.00
   5  -1  -2   69.20    5.12
   5  -1  -2   75.56    8.72
   5  -1  -2   72.71    8.70
   5  -1  -2   72.24    4.32
   5  -1  -2   66.07    6.25
  -5   1   2   52.71    5.94
  -5   1   2   63.96    5.92
  -5   1   2   68.03    4.04
  -5   1   2   67.57    6.13
   4  -1  -2   55.53    6.68
   4  -1  -2   46.32    3.09
   4  -1  -2   47.59    3.76
   4  -1  -2   43.63    5.10
  -4   1   2   49.79    4.54
  -4   1   2   50.05    4.63
  -4   1   2   44.58    2.88
   3  -1  -2  161.44    8.21
   3  -1  -2  143.48    9.15
   3  -1  -2  156.89    8.08
   3  -1  -2  172.99   11.62
   3  -1  -2  175.18   13.85
  -3   1   2  165.18    8.09
  -3   1   2  164.61    9.35
  -3   1   2  156.65    8.17
  -3   1   2  168.19    9.65
   2  -1  -2   41.39    2.97
   2  -1  -2   30.09    4.57
   2  -1  -2   37.48    2.20
   2  -1  -2   36.76    2.06
   2  -1  -2   29.76    2.79
  -2   1   2   34.78    3.20
  -2   1   2   37.21    2.06
  -2   1   2   37.76    2.16
  -2   1   2   32.30    2.93
  -2   1   2   37.58    3.01
  -2   1   2   48.77    4.55
   1  -1  -2   92.70    5.99
   1  -1  -2   73.76    6.93
   1  -1  -2   83.93    4.14
   1  -1  -2   82.77    4.51
   1  -1  -2   80.42    4.02
   1  -1  -2   84.41    5.02
  -1   1   2   84.47    4.95
  -1   1   2   83.74    4.55
  -1   1   2   69.44    6.23
  -1   1   2   85.98    4.05
  -1   1   2   75.17    6.98
  -1   1   2   85.62    4.16
   0  -1  -2  123.75    5.88
   0  -1  -2  123.51    6.65
   0  -1  -2  113.64    8.87
   0  -1  -2  126.58    5.83
   0  -1  -2  117.58    6.33
   0   1   2  125.70    5.91
   0   1   2  113.44    6.36
  -1  -1  -2  398.99   18.49
  -1  -1  -2  351.21   27.84
  -1  -1  -2  397.40   18.43
  -1  -1  -2  407.88   18.91
   1   1   2  398.52   18.46
   1   1   2  393.82   18.93
   1   1   2  395.12   27.86
   1   1   2  365.68   19.12
   1   1   2  393.27   18.51
  -2  -1  -2  197.86    9.36
  -2  -1  -2  198.73   10.17
  -2  -1  -2  190.21    9.36
  -2  -1  -2  191.95   10.37
   2   1   2  194.17   10.20
   2   1   2  192.85    9.38
   2   1   2  184.71   10.42
   2   1   2  186.13    9.41
  -3  -1  -2   95.65    6.27
  -3  -1  -2   89.24    4.67
  -3  -1  -2   79.87    9.48
  -3  -1  -2   94.24    5.93
  -3  -1  -2   89.38    4.67
   3   1   2   93.85    6.41
   3   1   2   90.38    4.77
   3   1   2   86.79    4.70
   3   1   2   81.48    5.90
  -4  -1  -2   82.35    5.95
  -4  -1  -2   85.70    6.32
  -4  -1  -2   81.23    4.50
   4   1   2   80.01    4.62
   4   1   2   78.22    6.07
   4   1   2   87.19    6.59
  -5  -1  -2    8.19    2.60
  -5  -1  -2   11.62    1.58
  -5  -1  -2   11.07    3.33
   5   1   2    9.93    3.33
   5   1   2   11.25    1.69
   5   1   2    8.69    3.03
   5   1   2   13.40    4.61
  -6  -1  -2   58.05    7.02
  -6  -1  -2   71.13    4.29
   6   1   2   67.74    4.41
   6   1   2   66.36    9.25
   6   1   2   56.27    6.84
  -7  -1  -2    6.24    1.59
  -7  -1  -2    9.95    3.83
  -7  -1  -2    2.41    1.39
   7   1   2    6.00    1.80
   7   1   2    8.47    5.31
  -8  -1  -2   17.82    2.58
   8   1   2   31.51    8.38
   8   1   2   16.17    2.58
   9   1   2    1.03    6.20
   8  -2  -2    6.35    1.99
   8  -2  -2    2.80   10.18
   8  -2  -2   13.87    7.55
  -8   2   2    9.57    3.01
  -8   2   2   12.05    5.21
  -8   2   2    7.61    1.80
   7  -2  -2    3.51    9.46
   7  -2  -2    2.22    1.52
   7  -2  -2    5.30    5.94
  -7   2   2    1.26    3.54
  -7   2   2    4.26    1.42
  -7   2   2    2.39    1.99
   6  -2  -2   28.09    7.55
   6  -2  -2   31.27   10.89
   6  -2  -2   26.74    2.76
  -6   2   2   19.97    3.60
  -6   2   2   27.96    2.33
  -6   2   2   23.18    4.48
   5  -2  -2   64.77    3.85
   5  -2  -2   62.54    6.13
   5  -2  -2   68.05    9.02
   5  -2  -2   46.41    7.62
   5  -2  -2   78.87   14.65
  -5   2   2   60.91    5.74
  -5   2   2   57.12    3.55
  -5   2   2   65.54    5.72
   4  -2  -2   82.94   13.28
   4  -2  -2   70.36    5.84
   4  -2  -2   77.41    7.41
   4  -2  -2   60.32    8.14
   4  -2  -2   67.89    4.01
   4  -2  -2   68.43    8.45
  -4   2   2   66.75    3.85
  -4   2   2   71.70    5.50
  -4   2   2   70.22    5.62
   3  -2  -2   50.05    2.75
   3  -2  -2   37.52    5.51
   3  -2  -2   46.13    6.29
   3  -2  -2   71.79   11.26
   3  -2  -2   53.42    4.33
  -3   2   2   51.15    2.76
  -3   2   2   46.24    4.12
  -3   2   2   48.77    2.62
  -3   2   2   49.54    3.88
  -3   2   2   38.21    3.45
   2  -2  -2   85.09    8.87
   2  -2  -2   88.68    4.71
   2  -2  -2   89.34    5.49
   2  -2  -2   92.78    5.83
   2  -2  -2  118.40   11.75
  -2   2   2   90.58    4.66
  -2   2   2   93.54    5.54
  -2   2   2   87.32    4.73
  -2   2   2   89.01    5.79
  -2   2   2  114.88    8.95
  -2   2   2   97.57    6.75
   1  -2  -2  177.11    8.95
   1  -2  -2  219.16   15.68
   1  -2  -2  180.03    9.31
   1  -2  -2  181.28    8.58
   1  -2  -2  169.05   14.24
  -1   2   2  164.97   14.15
  -1   2   2  181.68    9.36
  -1   2   2  182.73    8.68
  -1   2   2  181.18    8.57
  -1   2   2  174.09    8.97
   0  -2  -2  427.60   20.45
   0  -2  -2  476.03   30.58
   0  -2  -2  421.02   20.32
   0   2   2  432.69   20.24
   0   2   2  425.98   20.19
   0   2   2  406.70   20.70
   0   2   2  408.61   20.53
   0   2   2  446.76   31.43
  -1  -2  -2 1000.00   46.20
  -1  -2  -2  994.61   46.12
  -1  -2  -2  998.51   46.32
  -1  -2  -2  973.94   46.13
  -1  -2  -2  930.03   64.85
   1   2   2  966.47   46.26
   1   2   2  974.36   69.79
   1   2   2  967.48   45.90
   1   2   2  968.68   46.44
  -2  -2  -2   36.58    2.08
  -2  -2  -2   34.95    2.93
  -2  -2  -2   34.97    2.93
  -2  -2  -2   38.62    2.09
  -2  -2  -2   32.43    5.38
  -2  -2  -2   38.45    2.73
   2   2   2   34.12    2.10
   2   2   2   36.34    3.00
   2   2   2   39.10    3.26
  -3  -2  -2  136.82    8.42
  -3  -2  -2  150.97    8.38
  -3  -2  -2  112.71   14.79
  -3  -2  -2  151.71    7.19
  -3  -2  -2  150.26    7.14
   3   2   2  142.03    7.21
   3   2   2  151.68    8.78
   3   2   2  132.89    8.38
  -4  -2  -2   -0.74    1.73
  -4  -2  -2   -0.17    0.43
  -4  -2  -2    0.51    0.64
  -4  -2  -2    1.91    1.66
   4   2   2   -0.23    0.68
   4   2   2   -2.24    1.73
   4   2   2   -1.75    1.47
   4   2   2    2.29    2.29
  -5  -2  -2   88.09    4.74
  -5  -2  -2   88.23    6.89
   5   2   2   78.26    4.84
   5   2   2   75.58    6.79
   5   2   2   86.10    7.35
  -6  -2  -2    5.66    1.27
  -6  -2  -2    7.31    1.48
  -6  -2  -2   10.23    3.33
   6   2   2    2.03    1.37
   6   2   2    9.21    3.52
   6   2   2    6.85    1.55
  -7  -2  -2   41.76    6.77
  -7  -2  -2   41.41    3.15
   7   2   2   37.55    3.48
   7   2   2   37.35    6.11
  -8  -2  -2   -0.08    1.47
   8   2   2    1.04    5.08
   8   2   2   -0.24    1.48
   9   2   2    6.69    6.12
   8  -3  -2   -2.56    5.38
   8  -3  -2    0.00   11.09
  -8   3   2    3.18    1.56
  -8   3   2   -2.19    3.81
  -8   3   2    2.90    2.63
   7  -3  -2   14.16    7.30
   7  -3  -2    8.66   10.73
   7  -3  -2    7.41    1.81
  -7   3   2    5.10    2.53
  -7   3   2    7.76    3.78
  -7   3   2    6.69    1.70
   6  -3  -2   20.78   11.73
   6  -3  -2   27.85    8.13
   6  -3  -2   33.84    2.76
  -6   3   2   30.63    4.95
  -6   3   2   29.26    2.57
   5  -3  -2   23.98    4.87
   5  -3  -2   32.00    2.43
   5  -3  -2   35.82    7.87
   5  -3  -2   41.21   12.16
  -5   3   2   30.63    4.57
  -5   3   2   18.97    3.56
  -5   3   2   33.81    2.36
  -5   3   2   37.21    4.86
   4  -3  -2   58.72    3.42
   4  -3  -2   75.79   13.92
   4  -3  -2   63.38    5.28
   4  -3  -2   51.89    6.82
   4  -3  -2   55.67    8.43
   4  -3  -2   61.36    3.51
  -4   3   2   65.25    3.53
  -4   3   2   66.76    5.15
  -4   3   2   67.63    5.34
   3  -3  -2   35.19    2.11
   3  -3  -2   38.34    9.61
   3  -3  -2   32.68    5.01
   3  -3  -2   38.01    3.44
   3  -3  -2   33.99    2.03
   3  -3  -2   33.96    6.31
  -3   3   2   36.54    2.13
  -3   3   2   35.15    2.78
  -3   3   2   31.94    2.15
  -3   3   2   38.19    3.45
  -3   3   2   35.50    3.37
   2  -3  -2  131.06    6.42
   2  -3  -2  131.78    7.29
   2  -3  -2  151.75   15.06
   2  -3  -2  136.23    7.49
   2  -3  -2  140.72   14.37
   2  -3  -2  125.33   12.25
  -2   3   2  140.65    6.63
  -2   3   2  130.80    6.69
  -2   3   2  129.66    7.37
  -2   3   2  128.76    7.58
  -2   3   2  132.31   13.95
  -2   3   2  159.21   12.28
   1  -3  -2   20.31    6.83
   1  -3  -2   29.73    6.31
   1  -3  -2   17.49    4.29
   1  -3  -2   17.66    4.26
  -1   3   2   16.58    1.93
  -1   3   2   15.80    3.91
  -1   3   2   17.03    1.10
  -1   3   2   15.89    0.95
  -1   3   2   11.31    3.21
  -1   3   2   17.47    1.58
   0  -3  -2  392.00   29.33
   0  -3  -2  429.84   38.06
   0  -3  -2  433.21   36.35
   0   3   2  372.89   18.61
   0   3   2  379.93   18.71
   0   3   2  343.86   28.90
  -1  -3  -2   13.76    1.34
  -1  -3  -2   11.47    4.01
  -1  -3  -2   15.89    4.64
  -1  -3  -2   14.40    1.37
  -1  -3  -2   12.47    4.88
   1   3   2   12.99    0.87
   1   3   2   12.98    0.88
   1   3   2   13.36    1.77
   1   3   2   13.89    1.59
   1   3   2   22.42    4.01
  -2  -3  -2   96.03   12.00
  -2  -3  -2   95.19    5.78
  -2  -3  -2   78.80   11.41
  -2  -3  -2   96.60    4.88
  -2  -3  -2   95.65    4.85
  -2  -3  -2   94.89    5.71
   2   3   2  119.65   11.71
   2   3   2   90.37    6.07
   2   3   2   93.95    4.98
   2   3   2  112.93    7.04
   2   3   2   94.93    5.94
   2   3   2   94.79    4.94
  -3  -3  -2    1.51    2.94
  -3  -3  -2   -0.27    1.22
  -3  -3  -2    2.24    0.65
  -3  -3  -2    3.36    3.35
  -3  -3  -2    1.51    0.60
  -3  -3  -2    1.78    1.51
   3   3   2    2.21    2.32
   3   3   2    0.68    0.63
   3   3   2    0.83    1.54
   3   3   2    1.07    0.54
   3   3   2    1.61    1.72
  -4  -3  -2  108.44    7.29
  -4  -3  -2  110.43    5.71
  -4  -3  -2  111.41   13.15
   4   3   2  105.81    7.49
   4   3   2  117.54    7.85
   4   3   2  104.51    5.86
  -5  -3  -2   -0.15    3.49
  -5  -3  -2   -0.16    0.39
  -5  -3  -2    1.08    2.22
  -5  -3  -2   -0.93    0.80
   5   3   2    0.24    1.05
   5   3   2   -1.31    2.09
   5   3   2   -0.53    0.91
   5   3   2   -0.14    2.25
  -6  -3  -2   59.12    4.80
  -6  -3  -2   71.35    6.45
  -6  -3  -2   66.24    4.00
   6   3   2   58.99    7.11
   6   3   2   62.24    4.24
  -7  -3  -2    1.85    1.39
   7   3   2    2.65    1.54
   7   3   2    1.15    3.15
   7   3   2    3.98    1.55
  -8  -3  -2   10.22    2.06
   8   3   2   12.41    2.50
   9   3   2    1.10    5.52
   8  -4  -2    8.16   12.82
  -8   4   2    5.50    1.85
   7  -4  -2   12.76    7.59
   7  -4  -2   12.24   11.99
  -7   4   2   10.10    4.32
  -7   4   2   14.01    2.02
  -7   4   2    7.66    2.72
   6  -4  -2   15.85   11.68
   6  -4  -2   10.23    7.11
  -6   4   2    7.68    1.47
  -6   4   2    6.53    3.32
  -6   4   2    4.05    2.23
   5  -4  -2   43.68   14.23
   5  -4  -2   58.59    3.56
   5  -4  -2   73.24   11.88
  -5   4   2   66.86    6.05
  -5   4   2   64.34    3.79
   4  -4  -2    3.99    0.66
   4  -4  -2    4.87    0.76
   4  -4  -2    7.08    5.01
   4  -4  -2    5.42    2.47
   4  -4  -2    6.81    8.69
   4  -4  -2    5.42    2.13
  -4   4   2    7.56    2.49
  -4   4   2    7.80    3.05
  -4   4   2    7.75    2.45
  -4   4   2    1.31    1.51
  -4   4   2    5.12    0.97
   3  -4  -2   57.05    8.30
   3  -4  -2   53.55    4.06
   3  -4  -2   63.30   13.48
   3  -4  -2   42.09    7.21
  -3   4   2   56.51    3.06
  -3   4   2   65.57    7.40
  -3   4   2   57.70    4.50
  -3   4   2   57.56    4.25
  -3   4   2   50.48    4.19
  -3   4   2   53.34    3.11
   2  -4  -2    2.33    2.69
   2  -4  -2    0.89    5.85
   2  -4  -2    1.76    3.21
   2  -4  -2    2.51    3.40
  -2   4   2    2.99    0.51
  -2   4   2   -0.01    0.98
  -2   4   2    1.21    1.11
  -2   4   2    1.93    1.19
  -2   4   2    7.33    3.22
  -2   4   2    2.47    0.54
  -2   4   2    2.26    2.30
   1  -4  -2  223.66   21.33
   1  -4  -2  214.89   23.89
   1  -4  -2  257.54   19.55
  -1   4   2  229.10   18.79
  -1   4   2  227.73   11.00
  -1   4   2  236.05   11.27
  -1   4   2  231.51   11.46
   0  -4  -2   14.15    5.69
   0  -4  -2   13.60    4.77
   0  -4  -2   11.01    6.47
   0   4   2   21.24    4.82
   0   4   2   10.96    3.40
   0   4   2   11.73    1.23
   0   4   2   11.31    1.09
  -1  -4  -2  184.48   16.27
  -1  -4  -2  143.92   18.73
  -1  -4  -2  168.89   19.04
   1   4   2  176.62    8.23
   1   4   2  170.91    8.81
   1   4   2  174.14    8.26
   1   4   2  176.38    8.95
   1   4   2  178.79   14.49
  -2  -4  -2    0.88    0.32
  -2  -4  -2    1.18    4.06
  -2  -4  -2    0.65    0.31
  -2  -4  -2   -1.72    2.79
  -2  -4  -2    0.20    0.98
  -2  -4  -2   -1.98    3.88
   2   4   2    0.70    0.49
   2   4   2   -0.01    1.33
   2   4   2    2.08    2.73
   2   4   2    0.38    0.38
   2   4   2    0.08    1.13
   2   4   2    0.71    0.42
  -3  -4  -2  126.35    6.01
  -3  -4  -2  108.68   14.63
  -3  -4  -2  117.14    7.12
  -3  -4  -2  121.37    5.94
   3   4   2  117.40    6.16
   3   4   2  110.48    7.36
   3   4   2  117.88    7.61
  -4  -4  -2    2.06    0.80
  -4  -4  -2   -0.09    1.66
  -4  -4  -2    3.90    4.75
  -4  -4  -2    2.39    0.75
   4   4   2    2.21    2.41
   4   4   2    3.12    0.99
   4   4   2    0.95    1.22
   4   4   2    2.96    2.17
  -5  -4  -2  108.57   14.11
  -5  -4  -2   99.58    5.35
   5   4   2   91.01    5.56
   5   4   2  102.85    8.03
   5   4   2   95.00    7.77
  -6  -4  -2    5.88    1.36
  -6  -4  -2    5.06    5.31
   6   4   2   -0.56    2.89
   6   4   2    3.89    1.42
   6   4   2    1.68    1.50
  -7  -4  -2   12.99    1.93
   7   4   2   14.56    2.32
   7   4   2    6.67    2.24
   7   4   2   11.23    4.28
  -8  -4  -2    3.06    1.63
   8   4   2    4.74    2.01
   7  -5  -2   -3.18   12.33
   7  -5  -2    2.84    7.90
  -7   5   2    2.14    2.16
  -7   5   2    0.91    3.29
  -7   5   2    1.03    1.33
   6  -5  -2   27.09    8.98
   6  -5  -2   18.42   13.59
  -6   5   2   32.12    5.14
  -6   5   2   30.62    2.49
  -6   5   2   18.56    3.88
   5  -5  -2    8.33    6.37
   5  -5  -2   10.28   13.09
  -5   5   2   12.17    4.26
  -5   5   2    6.84    2.92
  -5   5   2    5.64    1.16
  -5   5   2    2.34    2.05
   4  -5  -2   28.29   14.00
   4  -5  -2   30.75    8.25
  -4   5   2   35.30    4.25
  -4   5   2   36.77    4.39
  -4   5   2   37.28    2.47
  -4   5   2   45.43    6.68
   3  -5  -2   -2.50    4.07
   3  -5  -2    1.82    4.44
   3  -5  -2    0.19    8.84
  -3   5   2    2.22    0.66
  -3   5   2    3.10    3.51
  -3   5   2    2.13    1.57
  -3   5   2    1.03    0.73
  -3   5   2    2.02    1.61
  -3   5   2    0.60    2.66
  -3   5   2   -1.06    1.31
   2  -5  -2  147.21   14.97
   2  -5  -2  131.71   16.93
   2  -5  -2  146.63   18.94
  -2   5   2  155.15    7.32
  -2   5   2  156.76    8.18
  -2   5   2  147.95    7.35
  -2   5   2  155.22    8.03
   1  -5  -2    0.19    2.92
   1  -5  -2   -1.39    3.43
   1  -5  -2    1.73    3.49
   1  -5  -2   -4.85    6.00
  -1   5   2    0.52    2.44
  -1   5   2    1.26    0.68
  -1   5   2    1.44    0.62
  -1   5   2   -0.54    0.82
  -1   5   2    0.59    0.26
   0  -5  -2  148.70   17.42
   0  -5  -2  124.07   16.24
   0  -5  -2  141.39   15.83
   0   5   2  138.19    6.70
   0   5   2  140.63    6.80
  -1  -5  -2    0.00    3.25
  -1  -5  -2    2.34    4.94
  -1  -5  -2    4.40    4.76
   1   5   2    1.28    0.30
   1   5   2    0.26    0.66
   1   5   2    1.25    0.35
   1   5   2    0.07    2.46
   1   5   2    1.15    0.89
   1   5   2    1.39    1.12
  -2  -5  -2   69.59   11.49
  -2  -5  -2   80.29    4.53
  -2  -5  -2   83.39   12.87
  -2  -5  -2  119.79   11.83
   2   5   2   80.49    4.24
   2   5   2   81.94    5.27
   2   5   2   81.46    4.17
   2   5   2   81.11    5.40
  -3  -5  -2   16.23    1.17
  -3  -5  -2   16.67    2.40
  -3  -5  -2   17.41    1.20
  -3  -5  -2   15.69    7.80
   3   5   2   17.81    3.06
   3   5   2   17.31    1.54
   3   5   2   19.76    3.06
  -4  -5  -2   85.54   14.36
  -4  -5  -2   91.79    4.89
  -4  -5  -2   98.25    6.55
  -4  -5  -2   99.98    5.01
   4   5   2   92.37    7.22
   4   5   2   95.25    7.14
   4   5   2   90.25    5.25
  -5  -5  -2   17.05    1.70
  -5  -5  -2   17.48    7.91
   5   5   2   13.15    1.93
   5   5   2   11.64    3.54
  -6  -5  -2   21.40    2.10
  -6  -5  -2   22.73    8.73
   6   5   2   24.63    4.97
   6   5   2   17.79    2.27
   6   5   2   10.37    2.90
  -7  -5  -2    9.65    1.75
   7   5   2   10.78    4.42
   7   5   2    8.82    2.60
   7   5   2    7.74    1.88
  -8  -5  -2    6.80    1.83
   8   5   2   13.90    5.23
   8   5   2    5.72    2.04
   8   5   2    3.97    2.24
   7  -6  -2   21.34   16.76
   6  -6  -2    1.80    7.31
   6  -6  -2   -0.85   12.92
  -6   6   2   -0.25    3.06
  -6   6   2    2.70    2.15
   5  -6  -2   15.73    8.13
   5  -6  -2   25.27   15.86
  -5   6   2   23.33    2.28
  -5   6   2   29.62    4.39
   4  -6  -2    2.98    5.71
   4  -6  -2    4.12   11.23
   4  -6  -2    2.48    5.63
  -4   6   2    1.55    0.76
  -4   6   2    1.85    1.97
  -4   6   2    0.49    1.55
  -4   6   2   -0.18    2.04
  -4   6   2    1.05    3.10
   3  -6  -2   64.09   11.03
   3  -6  -2   75.55   18.46
  -3   6   2   67.23    4.84
  -3   6   2   67.47    4.82
  -3   6   2   56.58    9.25
  -3   6   2   65.89    3.54
   2  -6  -2   18.02    7.84
   2  -6  -2    8.75   10.34
   2  -6  -2   12.91    5.88
  -2   6   2    9.82    1.67
  -2   6   2   12.22    0.96
  -2   6   2   11.35    1.71
  -2   6   2   11.68    0.94
  -2   6   2    6.78    4.31
   1  -6  -2  110.64   19.26
   1  -6  -2  137.51   13.27
   1  -6  -2  128.74   16.92
  -1   6   2  112.92    5.74
  -1   6   2  113.38    5.71
   0  -6  -2   19.95    8.15
   0  -6  -2   13.98    8.80
  -1  -6  -2   82.08   13.88
  -1  -6  -2   54.76   12.90
   1   6   2   50.40    2.63
   1   6   2   49.63    3.45
   1   6   2   48.37    2.57
   1   6   2   53.91    3.59
  -2  -6  -2   32.94   10.78
  -2  -6  -2   63.60   11.59
   2   6   2   29.48    2.03
   2   6   2   34.51    1.97
   2   6   2   31.01    3.46
   2   6   2   34.80    3.47
  -3  -6  -2   56.91   14.31
   3   6   2   62.67    3.63
   3   6   2   57.17    5.14
   3   6   2   65.75    5.39
  -4  -6  -2   23.17    1.60
  -4  -6  -2   35.81   11.59
   4   6   2   18.76    3.76
   4   6   2   22.29    2.11
   4   6   2   27.42    4.29
  -5  -6  -2   23.86    1.92
  -5  -6  -2   22.05    9.93
   5   6   2   22.58    4.46
   5   6   2   23.94    2.31
  -6  -6  -2   15.24    1.75
  -6  -6  -2   15.40    8.93
   6   6   2   14.23    4.33
   6   6   2    6.96    2.57
   6   6   2   14.52    2.15
  -7  -6  -2    6.67    1.55
  -7  -6  -2    5.91    6.88
   7   6   2    2.10    1.54
   7   6   2    3.33    2.08
   7   6   2   11.93    4.40
  -8  -6  -2    7.09    1.83
   8   6   2   11.09    4.93
   8   6   2    9.49    2.92
   6  -7  -2   13.20   15.90
   5  -7  -2    7.72   13.91
   5  -7  -2   -4.42    6.37
  -5   7   2   -0.14    2.48
  -5   7   2    1.93    2.10
   4  -7  -2   17.61    8.54
   4  -7  -2   29.53    9.76
   4  -7  -2    8.27   13.42
  -4   7   2   19.17    5.80
  -4   7   2   17.84    3.26
   3  -7  -2    9.16    6.66
   3  -7  -2   -0.63   11.21
   3  -7  -2   17.75    7.79
  -3   7   2    8.36    2.06
  -3   7   2   11.06    2.08
  -3   7   2    4.34    2.09
  -3   7   2    3.81    1.35
  -3   7   2    7.04    4.60
   2  -7  -2   57.29   16.91
   2  -7  -2   70.66   14.42
   2  -7  -2   59.60   10.70
  -2   7   2   54.28    3.35
  -2   7   2   38.93    9.23
  -2   7   2   49.62    3.29
   1  -7  -2    4.86    6.61
   1  -7  -2   11.34   10.52
  -1   7   2    5.63    1.85
  -1   7   2    3.99    1.62
  -1   7   2    9.28    4.80
   0  -7  -2   29.95   10.77
   0  -7  -2   36.42   12.38
   0   7   2   13.18    2.74
   0   7   2   11.75    2.23
  -1  -7  -2   39.84   12.39
  -1  -7  -2   49.26   12.83
   1   7   2   34.29    1.94
   1   7   2   33.69    1.85
   1   7   2   33.32    3.02
   1   7   2   32.21    2.86
  -2  -7  -2   28.59   11.69
  -2  -7  -2   22.78    9.91
   2   7   2   20.60    2.96
   2   7   2   20.47    3.01
   2   7   2   21.29    1.63
  -3  -7  -2   43.53   14.01
   3   7   2   35.42    4.37
   3   7   2   42.40    4.73
   3   7   2   31.97    2.40
  -4  -7  -2   14.84    9.46
   4   7   2   13.57    3.39
   4   7   2    5.65    2.37
   4   7   2   14.13    1.72
  -5  -7  -2   13.07    9.56
   5   7   2    6.45    2.48
   5   7   2   14.66    2.04
   5   7   2   14.16    3.92
  -6  -7  -2   -3.62    6.50
   6   7   2    2.22    1.88
   6   7   2    7.59    4.03
   6   7   2    1.79    1.37
  -7  -7  -2   14.86    9.38
   7   7   2   12.73    2.41
   7   7   2   15.35    5.08
   7   7   2    7.41    2.73
   5  -8  -2    9.35   15.33
   4  -8  -2   11.33   14.85
   4  -8  -2   14.17    8.20
   4  -8  -2   10.26    8.51
  -4   8   2    3.24    2.30
  -4   8   2    6.18    2.45
   3  -8  -2   19.61   14.76
   3  -8  -2   38.66   11.47
   3  -8  -2   36.04   10.28
  -3   8   2   13.30    3.37
  -3   8   2   27.29    2.72
  -3   8   2   21.93    6.99
  -3   8   2   23.53    2.63
   2  -8  -2   16.22    8.26
   2  -8  -2   14.72    9.14
   2  -8  -2   18.81   12.94
  -2   8   2    7.50    1.99
  -2   8   2    7.71    5.34
  -2   8   2    5.95    2.24
   1  -8  -2   14.65   12.37
   1  -8  -2   29.52   11.67
  -1   8   2    5.61    2.04
  -1   8   2    9.61    2.41
  -1   8   2   15.15    6.05
   0  -8  -2   27.34   13.39
   0  -8  -2   27.49   11.76
   0   8   2   11.05    2.33
   0   8   2    9.17    2.53
   0   8   2   11.16    5.54
  -1  -8  -2   11.89   10.72
  -1  -8  -2    5.72    9.01
   1   8   2    8.64    1.75
   1   8   2    5.50    1.59
   1   8   2   12.97    1.98
   1   8   2    4.42    2.05
  -2  -8  -2   34.35   13.36
  -2  -8  -2   64.66   16.05
   2   8   2   36.49    4.07
   2   8   2   33.39    3.84
  -3  -8  -2   11.10   10.82
   3   8   2   13.29    3.06
   3   8   2    4.92    2.42
  -4  -8  -2    9.92   10.32
   4   8   2   21.93    2.17
   4   8   2   23.25    4.37
  -5  -8  -2    7.01    9.05
   5   8   2    2.02    1.32
   5   8   2    1.35    1.87
   5   8   2   -2.82    2.82
  -6  -8  -2   16.96   10.94
   6   8   2   15.73    2.40
   6   8   2    7.91    2.94
   6   8   2   10.21    4.43
  -7  -8  -2    0.84    7.80
   7   8   2   -3.06    1.48
   4  -9  -2   24.40   16.94
   4  -9  -2   10.20   10.05
   3  -9  -2   11.08    9.22
   3  -9  -2   22.56   10.88
   3  -9  -2    0.60   14.08
  -3   9   2    8.90    2.68
  -3   9   2   10.37    1.59
   2  -9  -2   13.87   10.12
   2  -9  -2    2.74   13.57
  -2   9   2    4.95    2.02
  -2   9   2    6.01    5.80
   1  -9  -2    4.25   12.85
   1  -9  -2   14.26   11.31
  -1   9   2    6.58    2.19
  -1   9   2    8.03    5.69
  -1   9   2    8.25    2.36
   0  -9  -2    3.44    9.36
   0  -9  -2    4.05   11.72
   0   9   2    4.19    4.61
   0   9   2    3.06    1.55
   0   9   2    2.81    1.81
  -1  -9  -2   41.08   16.37
  -1  -9  -2   29.68   14.04
   1   9   2   31.67    2.54
   1   9   2   18.34    2.94
   1   9   2   29.24    2.90
  -2  -9  -2   12.58   12.75
  -2  -9  -2    1.01    9.36
   2   9   2    2.36    2.00
   2   9   2    7.78    2.58
   2   9   2    3.48    2.13
  -3  -9  -2   25.58   13.35
   3   9   2   21.04    3.83
  -4  -9  -2   -0.92    9.10
   4   9   2    1.18    1.95
   4   9   2    2.79    2.83
  -5  -9  -2   15.57   12.24
   5   9   2    7.58    2.78
   5   9   2   17.03    4.48
  -6  -9  -2   -0.72    9.29
   2 -10  -2   15.07   11.52
   2 -10  -2   11.71   17.35
  -2  10   2    9.74    2.71
   1 -10  -2   -6.11   13.58
   1 -10  -2   -1.45    8.85
  -1  10   2    1.57    1.62
  -1  10   2    1.95    1.77
  -1  10   2    2.46    4.66
   0 -10  -2   17.28   13.04
   0 -10  -2   19.70   15.53
   0  10   2   10.56    6.35
   0  10   2    9.12    2.70
   0  10   2   11.91    2.54
  -1 -10  -2   -1.45    9.69
  -1 -10  -2  -12.06   12.53
   1  10   2    3.01    1.99
   1  10   2    3.15    5.08
  -2 -10  -2   20.56   14.72
   2  10   2   16.46    3.04
   2  10   2   12.14    3.33
  -3 -10  -2   -2.17   10.06
   3  10   2    1.79    1.94
   3  10   2    0.65    2.42
  -4 -10  -2   14.39   14.28
  -1 -11  -2    0.68   17.68
  -1 -11  -2   21.07   15.78
  -1 -10   3    4.29   12.13
   0  10  -3   -1.75    2.40
   0 -10   3   -0.60   10.27
  -4  -9   3    6.33   12.77
   3   9  -3    3.53    4.76
   3   9  -3    5.88    4.42
   3   9  -3   -0.19    2.55
  -3  -9   3   -7.37    8.98
   2   9  -3   15.80    4.13
   2   9  -3   26.36    5.58
   2   9  -3   12.56    6.77
  -2  -9   3    2.71   11.43
   1   9  -3    1.51    3.77
   1   9  -3    3.32    4.69
   1   9  -3   -1.11    2.18
  -1  -9   3    0.55   10.48
   0   9  -3    8.94    6.19
   0   9  -3    3.05    3.72
   0   9  -3    8.61    3.14
   0  -9   3   11.46   13.83
  -1   9  -3    1.16    2.20
  -1   9  -3    2.55    6.00
  -1   9  -3    3.57    3.00
   1  -9   3   -1.87    8.39
  -2   9  -3    4.76    2.87
  -2   9  -3    9.22    7.84
   2  -9   3   12.87   17.12
   2  -9   3    1.02    9.68
  -3   9  -3    1.53    7.41
   3  -9   3   11.60    8.30
   3  -9   3   15.12   19.87
   3  -9   3    3.30    8.41
   5   8  -3    9.66    5.46
   5   8  -3   10.09    2.20
  -5  -8   3    0.78   11.66
   4   8  -3    3.48    1.61
   4   8  -3    1.88    4.10
   4   8  -3    1.17    2.77
  -4  -8   3    0.26   10.69
   3   8  -3   28.90    5.50
   3   8  -3   10.82    6.12
   3   8  -3   14.36    3.75
  -3  -8   3   10.05   11.87
   2   8  -3    9.14    4.10
   2   8  -3    5.18    5.19
   2   8  -3    2.66    2.41
  -2  -8   3    3.25   10.87
   1   8  -3   10.95    5.93
   1   8  -3   14.25    4.50
   1   8  -3    9.15    3.06
  -1  -8   3   13.08   11.67
   0   8  -3    4.88    5.59
   0   8  -3    5.33    3.93
   0   8  -3    3.53    2.48
   0  -8   3    2.19   10.15
  -1   8  -3   12.60    3.07
  -1   8  -3    7.58    6.23
  -1   8  -3   12.98    3.83
   1  -8   3    9.79    9.91
   1  -8   3   37.85   16.88
   1  -8   3   18.91    6.86
  -2   8  -3   14.92    3.50
  -2   8  -3    6.62    6.92
  -2   8  -3   10.58    2.87
   2  -8   3    4.57    8.42
   2  -8   3   13.97    7.42
   2  -8   3   41.97   18.60
  -3   8  -3   16.21    3.70
  -3   8  -3   11.61    7.69
   3  -8   3   35.92   18.21
   3  -8   3   17.69    8.43
   3  -8   3    9.60    9.06
  -4   8  -3    5.59    3.10
  -4   8  -3    5.06    7.54
   4  -8   3   15.22   16.07
   4  -8   3    5.97    7.93
   6   7  -3    6.84    2.18
   6   7  -3    9.61    5.42
   6   7  -3    5.02    3.36
  -6  -7   3    3.08   10.40
   5   7  -3   -0.25    2.41
   5   7  -3    3.74    1.77
   5   7  -3    3.86    4.38
  -5  -7   3    1.56    9.35
   4   7  -3   16.33    2.37
   4   7  -3   15.71    4.82
   4   7  -3   12.74    3.49
  -4  -7   3   11.29   12.20
   3   7  -3    4.81    2.44
   3   7  -3    7.75    1.66
   3   7  -3    9.58    4.19
  -3  -7   3    4.25    9.80
   2   7  -3   22.14    4.68
   2   7  -3   14.45    3.45
   2   7  -3   12.38    6.22
   2   7  -3   24.13    2.26
  -2  -7   3   16.66   12.07
   1   7  -3    3.59    4.69
   1   7  -3    4.60    2.19
   1   7  -3    7.88    1.48
   1   7  -3    5.93    3.58
   1   7  -3    4.23    2.33
  -1  -7   3    5.03    9.01
   0   7  -3   21.37    2.20
   0   7  -3   14.07    4.38
   0   7  -3   22.39    3.15
   0   7  -3   13.41    3.22
   0   7  -3   10.38    5.92
   0  -7   3    9.75    9.49
  -1   7  -3   23.93    4.55
  -1   7  -3   21.01    3.66
  -1   7  -3   31.70    3.93
  -1   7  -3   28.23    2.63
  -1   7  -3   16.08    7.33
   1  -7   3   39.78    7.73
   1  -7   3   60.48   17.14
   1  -7   3   27.48   11.91
  -2   7  -3   20.52    3.50
  -2   7  -3   23.38    3.56
  -2   7  -3   23.67    4.19
  -2   7  -3   21.70    8.18
   2  -7   3   66.42   18.04
   2  -7   3   16.66    9.84
   2  -7   3   32.44    7.75
  -3   7  -3   14.13    7.76
  -3   7  -3   16.09    3.69
   3  -7   3   33.07   14.91
   3  -7   3   23.59    7.83
   3  -7   3   11.61    8.45
  -4   7  -3    2.53    6.25
  -4   7  -3    6.64    3.06
   4  -7   3    6.98   13.23
   4  -7   3    0.82    5.89
   4  -7   3    8.43    7.01
  -5   7  -3   11.62    3.85
  -5   7  -3   13.14    7.84
   5  -7   3    9.00    7.82
   5  -7   3   25.94   16.29
  -6   7  -3   -7.98    5.53
   6  -7   3    4.73   15.11
   7   6  -3    4.02    2.25
   7   6  -3    2.28    2.84
   7   6  -3   13.63    5.91
  -7  -6   3    3.06    9.48
  -7  -6   3    5.04    1.76
   6   6  -3    8.18    4.64
   6   6  -3   -0.53    2.56
   6   6  -3    1.67    1.80
  -6  -6   3   -2.11    8.06
  -6  -6   3    0.71    1.28
   5   6  -3   18.12    2.46
   5   6  -3   22.21    5.41
   5   6  -3   10.56    3.33
  -5  -6   3   12.00    1.72
  -5  -6   3    8.88   10.41
   4   6  -3   28.25    2.87
   4   6  -3   17.17    3.96
   4   6  -3   31.42    5.78
  -4  -6   3   21.97   12.42
  -4  -6   3   25.72    2.10
   3   6  -3   23.19    4.79
   3   6  -3   14.80    3.52
   3   6  -3   25.49    2.53
  -3  -6   3   15.13   10.49
  -3  -6   3   22.80    1.66
   2   6  -3   10.87    2.96
   2   6  -3   17.17    4.03
   2   6  -3   13.13    2.86
   2   6  -3   16.41    1.90
  -2  -6   3   14.50   10.17
   1   6  -3   14.29    3.07
   1   6  -3   15.75    4.09
   1   6  -3    9.77    5.34
   1   6  -3   22.71    2.00
   1   6  -3   21.01    3.10
  -1  -6   3   15.24   10.20
   0   6  -3   36.87    9.11
   0   6  -3   53.45    6.24
   0   6  -3   42.11    4.72
   0  -6   3   38.41   13.10
   0  -6   3   53.13    7.29
  -1   6  -3   33.70    3.80
  -1   6  -3   32.53    2.68
  -1   6  -3   39.28    5.39
  -1   6  -3   29.93    8.30
  -1   6  -3   22.59    3.74
   1  -6   3   27.43    6.26
   1  -6   3   24.86   10.58
   1  -6   3   94.57   17.84
  -2   6  -3   76.02    6.88
  -2   6  -3   89.68    7.06
  -2   6  -3   90.95    4.91
  -2   6  -3   86.81    6.00
  -2   6  -3   64.53   12.21
   2  -6   3   63.91   16.00
   2  -6   3   71.88   10.62
  -3   6  -3    9.58    3.18
  -3   6  -3    3.93    5.11
  -3   6  -3    4.03    2.21
  -3   6  -3    1.90    1.18
  -3   6  -3    1.81    1.53
   3  -6   3    3.04    5.36
   3  -6   3    2.38    6.11
   3  -6   3    9.61   10.83
  -4   6  -3   14.38    3.94
  -4   6  -3   24.46    2.42
  -4   6  -3   24.92    8.14
   4  -6   3   23.71   13.04
   4  -6   3   11.04    7.21
   4  -6   3   19.53    7.35
  -5   6  -3    1.13    2.96
  -5   6  -3    0.75    5.62
   5  -6   3    1.71    6.54
   5  -6   3   -0.18   11.03
  -6   6  -3   32.61    9.76
  -6   6  -3   17.57    4.53
   6  -6   3   17.18   13.76
   6  -6   3   20.02    9.19
   7   5  -3    0.81    2.60
   7   5  -3    1.34    1.72
   7   5  -3    7.23    4.75
  -7  -5   3    9.48    9.10
  -7  -5   3    1.76    1.69
   6   5  -3    5.23    2.68
   6   5  -3    8.86    2.04
   6   5  -3   11.00    4.94
  -6  -5   3    5.88    8.52
  -6  -5   3    6.94    1.66
   5   5  -3   28.25    5.61
   5   5  -3   30.16    2.94
   5   5  -3   17.75    3.93
  -5  -5   3   19.34   10.78
  -5  -5   3   26.49    2.40
   4   5  -3   12.97    3.37
   4   5  -3   20.56    2.27
   4   5  -3   20.30    4.58
  -4  -5   3   16.61   10.97
  -4  -5   3   19.50    1.97
   3   5  -3   39.29    2.86
   3   5  -3   31.85    5.32
   3   5  -3   38.30    4.46
   3   5  -3   33.91    3.61
  -3  -5   3   35.30    4.61
  -3  -5   3   33.67    2.33
  -3  -5   3   35.71    2.43
  -3  -5   3   35.21   12.76
   2   5  -3    8.84    2.46
   2   5  -3   14.66    3.57
   2   5  -3   14.84    1.73
   2   5  -3   14.57    2.70
  -2  -5   3   10.46    1.15
  -2  -5   3   16.28    1.21
  -2  -5   3   12.66    9.39
  -2  -5   3   13.47    2.74
   1   5  -3   89.64    5.68
   1   5  -3   87.99    6.97
   1   5  -3   80.51    4.46
  -1  -5   3   79.89    3.82
  -1  -5   3   71.83    3.81
  -1  -5   3   69.81   16.29
  -1  -5   3   76.38    5.39
   0   5  -3    6.06    4.13
   0   5  -3    8.45    1.31
   0   5  -3   10.25    3.37
   0   5  -3    9.41    2.43
   0   5  -3    5.94    1.02
   0   5  -3    5.73    1.92
   0  -5   3    6.42    7.12
   0  -5   3   10.15    3.45
   0  -5   3    9.05    1.50
  -1   5  -3  115.73    8.32
  -1   5  -3  121.18    6.02
  -1   5  -3  113.38    6.94
  -1   5  -3   84.72    8.42
  -1   5  -3  114.44    5.62
   1  -5   3   96.66   16.05
   1  -5   3  104.82   10.79
  -2   5  -3    4.26    1.96
  -2   5  -3    4.31    1.28
  -2   5  -3    4.85    2.83
  -2   5  -3    5.48    4.78
  -2   5  -3    4.80    1.59
   2  -5   3    5.66    4.18
   2  -5   3    7.75    6.63
   2  -5   3    6.35    8.74
  -3   5  -3   31.44    2.63
  -3   5  -3   34.18    3.94
  -3   5  -3   37.60    8.76
  -3   5  -3   33.12    4.64
  -3   5  -3   31.01    3.32
   3  -5   3   17.73    7.90
   3  -5   3   51.30   13.19
   3  -5   3   34.14    7.34
  -4   5  -3    0.56    4.09
  -4   5  -3    0.56    1.12
  -4   5  -3   -1.53    2.42
   4  -5   3   -1.93    8.04
   4  -5   3    2.85    4.58
   4  -5   3    3.53    5.01
  -5   5  -3   65.92   10.90
  -5   5  -3   46.78    6.43
   5  -5   3   60.25   15.33
   5  -5   3   56.60   11.07
  -6   5  -3    0.39    1.13
  -6   5  -3   -1.10    4.66
  -6   5  -3    3.02    3.36
   6  -5   3   -4.85    8.61
   6  -5   3    0.11    5.60
  -7   5  -3   16.16    2.39
  -7   5  -3   15.36    4.68
  -7   5  -3   30.79    9.55
   7  -5   3   13.14   12.31
   7   4  -3   -1.72    3.55
   7   4  -3    2.61    2.58
   7   4  -3    3.67    2.00
  -7  -4   3    1.19    1.45
   6   4  -3   27.38    5.78
   6   4  -3   25.30    3.06
   6   4  -3   19.83    4.10
  -6  -4   3   26.55   10.81
  -6  -4   3   28.15    2.66
   5   4  -3    7.97    1.74
   5   4  -3    5.53    2.43
   5   4  -3    4.72    3.73
  -5  -4   3    8.33    1.54
  -5  -4   3    6.10    1.46
  -5  -4   3    1.40    6.78
   4   4  -3   51.47    3.98
   4   4  -3   49.94    5.00
   4   4  -3   34.93    4.82
   4   4  -3   50.88    3.42
   4   4  -3   67.10    6.54
   4   4  -3   47.50    4.35
  -4  -4   3   39.13    4.11
  -4  -4   3   43.39   13.09
  -4  -4   3   59.89    3.25
   3   4  -3    3.36    1.15
   3   4  -3    0.94    1.81
   3   4  -3    1.14    2.52
   3   4  -3    2.71    1.68
   3   4  -3    4.16    1.37
  -3  -4   3    5.81    2.54
  -3  -4   3    2.97    0.90
  -3  -4   3    3.44    0.90
  -3  -4   3    7.17    7.14
   2   4  -3   63.82    4.96
   2   4  -3   69.33    5.66
   2   4  -3   67.28    3.98
   2   4  -3   71.10    6.25
  -2  -4   3   70.54    5.40
  -2  -4   3   61.13   14.34
  -2  -4   3   69.34    3.74
  -2  -4   3   67.60    3.78
   1   4  -3    0.80    0.65
   1   4  -3    1.83    3.02
   1   4  -3    2.64    2.31
   1   4  -3    2.82    1.64
   1   4  -3    2.53    1.40
   1   4  -3    2.33    0.89
   1   4  -3    1.55    0.80
  -1  -4   3    1.52    4.93
  -1  -4   3    2.43    1.71
  -1  -4   3    2.16    0.52
  -1  -4   3    2.04    0.59
   0   4  -3  206.85   10.38
   0   4  -3  232.57   10.63
   0   4  -3  204.31   11.63
   0   4  -3  203.73   12.56
   0  -4   3  201.27   24.37
   0  -4   3  218.88   10.14
   0  -4   3  189.79   16.49
   0  -4   3  218.92   10.15
  -1   4  -3    2.26    1.30
  -1   4  -3    6.43    3.05
  -1   4  -3    2.62    3.34
  -1   4  -3    3.52    0.65
  -1   4  -3    4.58    1.77
  -1   4  -3    3.26    1.01
   1  -4   3    4.61    5.37
   1  -4   3    2.12    1.01
   1  -4   3    8.04    6.92
   1  -4   3    6.49    2.96
   1  -4   3    4.15    0.40
   1  -4   3    3.68    1.22
  -2   4  -3   86.52    6.84
  -2   4  -3   73.98   11.57
  -2   4  -3   92.62    5.89
  -2   4  -3   88.31    4.70
  -2   4  -3   84.70    6.98
  -2   4  -3   94.23    5.06
   2  -4   3   88.81    4.30
   2  -4   3  106.39    9.88
   2  -4   3   97.75    5.56
   2  -4   3   84.59    4.31
   2  -4   3   79.65   13.02
  -3   4  -3    0.50    1.76
  -3   4  -3    0.39    0.94
  -3   4  -3    0.82    0.95
  -3   4  -3    0.61    2.38
  -3   4  -3    1.05    3.50
   3  -4   3    0.27    1.32
   3  -4   3    2.60    7.31
   3  -4   3    1.82    0.52
   3  -4   3    3.71    3.95
   3  -4   3    0.81    3.99
   3  -4   3    0.50    0.52
  -4   4  -3   71.73    5.95
  -4   4  -3   77.75    5.57
  -4   4  -3   90.67   11.59
  -4   4  -3   64.55    9.19
  -4   4  -3   68.87    4.49
  -4   4  -3   76.19    6.86
   4  -4   3   83.65   10.26
   4  -4   3   79.54    5.74
   4  -4   3   70.28    3.93
   4  -4   3   93.75   15.52
   4  -4   3   60.50   10.25
  -5   4  -3    2.41    4.67
  -5   4  -3    4.61    3.05
   5  -4   3    1.18    4.82
   5  -4   3    1.91    0.87
   5  -4   3    5.21    7.80
  -6   4  -3   41.55    3.23
  -6   4  -3   31.20    5.80
   6  -4   3   34.68   12.12
   6  -4   3   39.73    9.36
  -7   4  -3   -2.34    3.71
  -7   4  -3    1.21    1.26
  -7   4  -3   -1.07    5.48
   7  -4   3    6.20    6.88
   7  -4   3    9.02    9.50
  -8   4  -3    4.93    1.89
  -8   4  -3   15.24    7.56
  -8  -3   3    5.10    2.09
   7   3  -3   15.82    2.74
   7   3  -3   10.43    3.27
  -7  -3   3   14.43    2.14
   6   3  -3    1.14    2.12
   6   3  -3    4.00    1.62
   6   3  -3    3.69    3.69
  -6  -3   3    0.10    1.47
  -6  -3   3    5.35    6.45
  -6  -3   3    2.61    1.42
   5   3  -3   45.04    6.57
   5   3  -3   41.16    5.00
   5   3  -3   45.21    3.64
   5   3  -3   47.07    5.37
  -5  -3   3   41.46   11.99
  -5  -3   3   52.75    4.53
  -5  -3   3   52.36    3.37
  -5  -3   3   50.17    5.70
   4   3  -3   11.69    1.84
   4   3  -3    7.52    2.26
   4   3  -3   15.42    3.09
   4   3  -3   14.20    2.33
   4   3  -3   10.07    3.48
   4   3  -3    7.93    1.66
  -4  -3   3   13.25    1.61
  -4  -3   3   13.18    1.95
  -4  -3   3   11.36    2.84
  -4  -3   3   19.98    8.42
   3   3  -3   80.42    4.54
   3   3  -3   80.46    6.44
   3   3  -3   71.68    6.44
   3   3  -3   77.25    5.74
  -3  -3   3   81.18    4.36
  -3  -3   3   72.08    6.27
  -3  -3   3  104.25   14.65
   2   3  -3    0.86    1.44
   2   3  -3    0.10    1.10
   2   3  -3   -0.46    0.84
   2   3  -3   -0.25    0.64
   2   3  -3    1.01    2.02
  -2  -3   3   -0.07    0.79
  -2  -3   3    0.00    1.58
  -2  -3   3   -3.81    4.28
  -2  -3   3   -0.18    0.52
  -2  -3   3    0.46    0.67
   1   3  -3  308.40   16.79
   1   3  -3  309.16   15.03
   1   3  -3  308.69   15.94
   1   3  -3  298.79   14.94
  -1  -3   3  313.10   14.91
  -1  -3   3  308.28   16.20
  -1  -3   3  306.63   16.07
  -1  -3   3  315.78   14.88
   0   3  -3    3.83    1.13
   0   3  -3    0.50    2.76
   0   3  -3    6.64    1.05
   0   3  -3    4.46    1.49
   0   3  -3    7.78    2.13
   0   3  -3    5.02    2.62
   0   3  -3    6.17    0.85
   0  -3   3    5.87    2.08
   0  -3   3    5.67    1.74
   0  -3   3    3.26    1.22
   0  -3   3    7.50    0.78
   0  -3   3    4.15    1.69
   0  -3   3    5.88    0.72
  -1   3  -3  107.38    5.42
  -1   3  -3  107.38    6.46
  -1   3  -3  119.08    5.83
  -1   3  -3  117.93    7.97
  -1   3  -3   91.45    8.19
   1  -3   3  107.01    5.39
   1  -3   3  111.50    5.36
   1  -3   3  108.52   14.28
  -2   3  -3    2.20    3.05
  -2   3  -3    1.05    0.51
  -2   3  -3    3.72    1.51
  -2   3  -3    2.82    2.33
  -2   3  -3    3.01    1.06
  -2   3  -3    3.04    1.00
   2  -3   3    1.61    0.61
   2  -3   3    4.15    5.37
   2  -3   3    3.18    2.97
   2  -3   3    1.03    0.75
   2  -3   3    3.57    0.63
   2  -3   3    3.08    1.31
   2  -3   3    1.84    3.77
  -3   3  -3   89.79    5.98
  -3   3  -3   87.67    6.89
  -3   3  -3  100.36   11.79
  -3   3  -3   96.36    6.72
  -3   3  -3   87.81    5.00
   3  -3   3   77.78    4.70
   3  -3   3   66.30   10.92
   3  -3   3  102.77   12.20
   3  -3   3   92.51    4.68
  -4   3  -3   14.67    3.51
  -4   3  -3   19.49    3.23
  -4   3  -3   19.86    4.13
  -4   3  -3   20.74    2.21
  -4   3  -3   26.40    6.42
   4  -3   3   23.98    5.93
   4  -3   3   14.21    2.92
   4  -3   3   21.17    8.24
   4  -3   3   20.63    1.74
   4  -3   3   17.93    1.77
  -5   3  -3   72.70    7.06
   5  -3   3   93.90   15.16
   5  -3   3   74.35    4.52
   5  -3   3  102.48   11.47
  -6   3  -3    8.67    4.00
  -6   3  -3    9.38    1.82
  -6   3  -3   23.90    6.91
   6  -3   3    8.30    7.74
   6  -3   3    9.24    1.59
   6  -3   3    9.47    5.84
  -7   3  -3   10.43    2.05
  -7   3  -3   18.17    4.83
  -7   3  -3   28.91    8.34
   7  -3   3   14.21    9.10
   7  -3   3    6.51    6.17
  -8   3  -3    5.58    1.92
  -8   3  -3   11.22    4.99
  -8   3  -3   23.28    8.52
  -8   3  -3    6.97    1.92
   8   2  -3    8.16    2.54
  -8  -2   3    9.97    2.32
   7   2  -3   -1.24    1.75
   7   2  -3   -0.53    1.49
  -7  -2   3    0.31    1.26
   6   2  -3   54.37    7.09
   6   2  -3   46.15    5.26
   6   2  -3   58.57    4.15
   6   2  -3   50.81    7.25
  -6  -2   3   54.99    6.50
  -6  -2   3   47.14    4.81
  -6  -2   3   57.16    3.73
  -6  -2   3   36.92   10.68
   5   2  -3   -0.59    2.26
   5   2  -3    0.24    1.10
   5   2  -3    0.41    3.03
   5   2  -3    0.73    1.44
   5   2  -3    4.15    2.61
  -5  -2   3    0.38    1.04
  -5  -2   3   -0.29    2.41
  -5  -2   3    0.84    5.56
  -5  -2   3    0.62    1.22
   4   2  -3   67.28    5.61
   4   2  -3   70.23    4.18
   4   2  -3   78.57    6.68
   4   2  -3   69.96    6.40
   4   2  -3   55.20    5.80
  -4  -2   3   60.43    5.52
  -4  -2   3   76.45    5.81
  -4  -2   3   74.99    3.98
   3   2  -3    7.18    2.72
   3   2  -3    8.48    2.24
   3   2  -3    8.83    1.33
   3   2  -3    5.71    1.75
   3   2  -3    8.00    1.72
   3   2  -3    7.88    1.49
  -3  -2   3    7.23    2.39
  -3  -2   3    8.09    1.08
  -3  -2   3   10.84    2.41
  -3  -2   3    9.33    1.56
   2   2  -3  212.72   11.89
   2   2  -3  222.76   16.37
   2   2  -3  231.96   12.79
   2   2  -3  213.57   10.80
   2   2  -3  216.05   10.97
  -2  -2   3  216.00   10.87
  -2  -2   3  241.46   16.36
  -2  -2   3  221.75   10.84
  -2  -2   3  208.15   12.24
   1   2  -3   32.16    2.07
   1   2  -3   34.84    4.15
   1   2  -3   33.28    3.15
   1   2  -3   31.47    1.94
   1   2  -3   25.85    3.11
  -1  -2   3   34.71    2.06
  -1  -2   3   32.61    1.94
  -1  -2   3   32.62    3.58
  -1  -2   3   25.41    2.94
   0   2  -3  288.88   14.87
   0   2  -3  284.59   13.12
   0   2  -3  272.81   12.97
   0   2  -3  262.07   13.99
   0   2  -3  250.37   19.58
   0   2  -3  226.05   19.13
   0  -2   3  269.78   12.97
   0  -2   3  294.85   12.97
   0  -2   3  277.18   14.01
   0  -2   3  267.21   14.19
  -1   2  -3   16.81    3.40
  -1   2  -3   15.72    1.13
  -1   2  -3   17.65    1.70
  -1   2  -3   16.33    2.02
  -1   2  -3   16.77    2.26
  -1   2  -3   13.60    4.21
   1  -2   3   15.86    2.25
   1  -2   3   10.60    1.84
   1  -2   3   17.22    1.19
   1  -2   3   13.78    1.25
   1  -2   3   15.96    2.98
   1  -2   3    9.21    3.63
   1  -2   3   38.25    7.47
  -2   2  -3  134.92    6.82
  -2   2  -3  136.38   15.29
  -2   2  -3  129.25    8.82
  -2   2  -3  151.90   10.01
  -2   2  -3  139.60    7.12
  -2   2  -3  144.09    7.89
   2  -2   3  136.92    7.79
   2  -2   3  113.29    8.36
   2  -2   3  139.73    6.84
   2  -2   3  126.12    6.91
  -3   2  -3  109.95   11.34
  -3   2  -3   81.90    5.76
  -3   2  -3   86.90    4.88
  -3   2  -3   88.26    6.45
  -3   2  -3   85.48    6.75
   3  -2   3   85.77    4.66
   3  -2   3   77.56    4.68
   3  -2   3  100.34   10.75
   3  -2   3   82.38    5.87
  -4   2  -3  107.86    7.89
  -4   2  -3  105.42    5.88
  -4   2  -3  111.05    7.25
   4  -2   3   90.25    5.67
   4  -2   3  114.14    7.45
   4  -2   3  115.04    5.75
   4  -2   3  107.16   12.40
  -5   2  -3   34.78    4.69
  -5   2  -3   31.06    2.67
  -5   2  -3   27.24    4.81
   5  -2   3   33.05    4.46
   5  -2   3   35.72    2.63
   5  -2   3   35.70    9.05
  -6   2  -3   15.90    2.17
  -6   2  -3   14.28    4.25
  -6   2  -3   36.22    8.13
   6  -2   3   24.63    7.46
   6  -2   3   19.55    2.27
   6  -2   3   10.75    7.45
  -7   2  -3   16.94    5.06
  -7   2  -3   37.94    8.93
  -7   2  -3   15.74    2.30
   7  -2   3   31.18    8.81
   7  -2   3   13.54    2.24
  -8   2  -3    2.11    1.43
  -8   2  -3    1.06    4.04
  -8   2  -3    8.14    6.47
  -8   2  -3    3.50    1.70
   8  -2   3    5.15    1.79
   8  -2   3    5.49    6.49
   8   1  -3    2.67    2.03
  -8  -1   3    0.83    1.48
   7   1  -3   34.80    7.11
   7   1  -3   39.98    3.70
  -7  -1   3   33.78    3.04
  -7  -1   3   30.10    4.04
  -7  -1   3   39.09    6.10
   6   1  -3   -1.81    3.10
   6   1  -3    2.42    1.59
   6   1  -3    1.95    3.39
   6   1  -3    1.55    1.56
  -6  -1   3    3.20    3.11
  -6  -1   3    1.73    1.22
  -6  -1   3    1.33    1.52
   5   1  -3   38.60    5.91
   5   1  -3   38.91    3.07
   5   1  -3   33.24    3.92
   5   1  -3   36.53    5.61
  -5  -1   3   45.85    5.45
  -5  -1   3   45.49    2.96
  -5  -1   3   39.09    3.96
  -5  -1   3   39.69    5.94
   4   1  -3    7.86    2.92
   4   1  -3    2.85    1.36
   4   1  -3    3.73    1.13
   4   1  -3    3.35    2.27
   4   1  -3    1.70    0.87
   4   1  -3    5.10    2.18
   4   1  -3    4.46    2.66
  -4  -1   3    2.42    0.86
  -4  -1   3    1.49    0.94
  -4  -1   3    3.22    1.27
  -4  -1   3    1.78    2.06
  -4  -1   3    3.97    2.32
   3   1  -3  101.19    8.87
   3   1  -3  131.26    8.30
   3   1  -3  113.24    9.44
   3   1  -3  112.98    6.18
   3   1  -3  104.42    7.19
  -3  -1   3  133.32    8.01
  -3  -1   3  121.65    8.98
  -3  -1   3  124.90    7.47
  -3  -1   3  120.38    5.99
   2   1  -3   45.37    4.57
   2   1  -3   37.89    3.82
   2   1  -3   41.57    2.44
   2   1  -3   45.40    3.79
   2   1  -3   38.74    3.96
   2   1  -3   42.99    2.65
   2   1  -3   44.01    3.70
  -2  -1   3   41.42    3.68
  -2  -1   3   44.72    3.81
  -2  -1   3   46.04    2.50
  -2  -1   3   41.28    4.06
  -2  -1   3   40.68    2.54
   1   1  -3  292.80   22.20
   1   1  -3  281.42   21.64
   1   1  -3  326.70   16.23
   1   1  -3  316.55   14.70
   1   1  -3  290.83   15.49
   1   1  -3  317.55   14.79
  -1  -1   3  303.13   14.73
  -1  -1   3  327.14   16.04
  -1  -1   3  279.15   21.50
  -1  -1   3  322.92   15.76
  -1  -1   3  315.68   14.70
   0   1  -3   39.49    3.14
   0   1  -3   38.60    4.06
   0   1  -3   38.06    2.05
   0   1  -3   36.79    3.08
   0   1  -3   37.36    2.18
   0  -1   3   37.05    3.42
   0  -1   3   31.33    2.94
   0  -1   3   35.88    2.08
   0  -1   3   29.28    2.98
   0  -1   3   29.21    3.01
   0  -1   3   37.69    2.05
  -1   1  -3   94.37    5.37
  -1   1  -3   87.30   10.01
  -1   1  -3   93.73    4.49
  -1   1  -3   93.74    6.67
  -1   1  -3   82.86    6.17
  -1   1  -3   95.42    4.77
   1  -1   3   87.36    5.92
   1  -1   3   91.02    4.52
   1  -1   3   84.17    4.62
   1  -1   3   76.41    6.61
  -2   1  -3  194.48    9.32
  -2   1  -3  193.49   10.89
  -2   1  -3  204.75   13.25
  -2   1  -3  195.72   10.11
  -2   1  -3  187.15    9.09
   2  -1   3  184.74   10.83
   2  -1   3  157.22   19.17
   2  -1   3  175.88   13.24
   2  -1   3  187.77    9.13
   2  -1   3  175.07    9.21
  -3   1  -3   41.64    2.47
  -3   1  -3   39.52    2.65
  -3   1  -3   40.95    3.82
  -3   1  -3   36.97    4.60
   3  -1   3   48.75    6.56
   3  -1   3   39.54    2.57
   3  -1   3   39.92    3.29
   3  -1   3   37.86    3.77
   3  -1   3   45.52    4.97
   3  -1   3   36.77    6.01
   3  -1   3   41.79    2.57
  -4   1  -3   59.48    5.65
  -4   1  -3   63.95    5.04
   4  -1   3   61.24    8.29
   4  -1   3   62.28    3.63
   4  -1   3   60.72    5.04
   4  -1   3   56.30    4.52
  -5   1  -3   16.79    1.91
  -5   1  -3   19.09    3.53
  -5   1  -3   18.38    4.25
   5  -1   3   14.20    1.52
   5  -1   3   13.21    3.08
   5  -1   3   16.35    1.85
   5  -1   3   19.50    6.38
  -6   1  -3   21.48    2.45
  -6   1  -3   22.36    4.64
   6  -1   3   24.05    2.60
   6  -1   3   38.21    7.96
   6  -1   3   20.58    7.23
  -7   1  -3   13.27    6.12
  -7   1  -3    2.07    1.49
  -7   1  -3    4.24    1.63
  -7   1  -3    8.83    4.43
   7  -1   3    6.88    1.78
   7  -1   3    6.21    5.73
  -8   1  -3   26.40    5.76
  -8   1  -3   20.42    2.69
  -8   1  -3   12.67    2.83
   8  -1   3   22.47    2.87
   8  -1   3   24.66    8.43
   8   0  -3    6.15   10.64
   8   0  -3   10.37    6.16
   8   0  -3   13.02    2.67
  -8   0   3   13.41    2.39
   7   0  -3    2.19    4.75
   7   0  -3    1.81    1.60
  -7   0   3    1.66    1.43
  -7   0   3    1.24    1.76
  -7   0   3   -0.27    3.32
   6   0  -3   27.52    3.21
   6   0  -3   30.89    6.58
   6   0  -3   35.02    3.02
   6   0  -3   28.48    5.54
  -6   0   3   34.71    5.54
  -6   0   3   29.82    3.80
  -6   0   3   30.83    2.76
   5   0  -3    2.65    1.36
   5   0  -3    3.95    3.53
   5   0  -3    4.53    2.88
   5   0  -3    1.27    2.61
   5   0  -3    4.69    1.42
  -5   0   3    3.74    1.63
  -5   0   3    3.44    2.51
  -5   0   3    3.77    1.13
  -5   0   3    2.46    0.91
  -5   0   3    1.00    2.38
   4   0  -3   77.11    7.86
   4   0  -3   68.09    6.23
   4   0  -3   68.02    5.74
   4   0  -3   73.46    4.34
  -4   0   3   70.55    4.04
  -4   0   3   63.98    5.86
  -4   0   3   80.03    5.90
  -4   0   3   72.88    6.12
   3   0  -3   78.90    4.44
   3   0  -3   69.19    7.31
   3   0  -3   75.21    5.45
   3   0  -3   77.45    6.16
   3   0  -3   79.47    6.21
   3   0  -3   73.91    4.16
  -3   0   3   85.15    4.24
  -3   0   3   83.22    5.67
  -3   0   3   68.21    5.77
  -3   0   3   85.08    6.41
   2   0  -3  198.18   11.53
   2   0  -3  204.09   10.95
   2   0  -3  188.91    9.90
   2   0  -3  199.92   10.09
   2   0  -3  190.94   15.46
   2   0  -3  216.44   14.70
  -2   0   3  204.85    9.93
  -2   0   3  221.56   15.12
  -2   0   3  200.07   10.07
  -2   0   3  209.09   10.95
  -2   0   3  204.82   11.47
   1   0  -3   88.72    5.93
   1   0  -3   93.29    5.33
   1   0  -3   90.34    4.48
   1   0  -3   86.20    4.60
   1   0  -3   91.80    6.68
   1   0  -3   89.35    6.83
  -1   0   3   95.58    6.84
  -1   0   3   79.72    6.65
  -1   0   3   85.13    4.58
  -1   0   3   90.46    4.49
  -1   0   3   89.16    5.83
  -1   0   3   84.98    7.19
   0   0  -3   85.79    4.47
   0   0  -3   89.59    4.59
   0   0  -3   86.82    5.83
   0   0  -3  103.07    6.65
   0   0  -3   79.70    9.17
   0   0  -3   84.64    5.35
   0   0  -3   79.35    6.67
   0   0   3   89.61    4.48
   0   0   3   99.91    6.77
   0   0   3   89.58    6.59
   0   0   3   83.68    4.53
   0   0   3   78.33    5.70
   0   0   3   86.74    5.42
  -1   0  -3  189.33    9.33
  -1   0  -3  189.05    9.50
  -1   0  -3  206.53   13.75
  -1   0  -3  189.35   10.06
  -1   0  -3  199.72   14.11
  -1   0  -3  185.47   10.72
   1   0   3  187.72   19.27
   1   0   3  185.15    9.46
   1   0   3  204.06   13.73
   1   0   3  191.95    9.37
   1   0   3  198.06   10.21
   1   0   3  182.48   10.58
  -2   0  -3   55.38    3.09
  -2   0  -3   59.70    4.76
  -2   0  -3   62.27    3.34
  -2   0  -3   58.30    4.06
   2   0   3   65.27    7.18
   2   0   3   56.64    3.15
   2   0   3   55.09    4.73
   2   0   3   54.71    3.22
   2   0   3   57.35    4.41
   2   0   3   54.52    4.11
  -3   0  -3  139.86    8.52
  -3   0  -3  136.47    9.10
  -3   0  -3  140.84    7.36
  -3   0  -3  145.46    7.53
   3   0   3  142.43   10.47
   3   0   3  164.47   11.70
   3   0   3  140.44    7.51
   3   0   3  170.73   15.90
   3   0   3  134.65    9.15
   3   0   3  140.09    8.69
   3   0   3  148.55    7.45
  -4   0  -3   53.92    5.49
  -4   0  -3   63.85    5.10
  -4   0  -3   61.54    3.68
  -4   0  -3   68.65    7.01
   4   0   3   63.50    5.94
   4   0   3   61.31    4.74
   4   0   3   60.28    3.67
   4   0   3   58.35    5.12
   4   0   3   59.84    7.00
  -5   0  -3   65.71    6.28
  -5   0  -3   64.99    3.94
  -5   0  -3   62.19    5.63
   5   0   3   61.52    4.88
   5   0   3   63.51    5.84
   5   0   3   69.00    4.10
   5   0   3   57.19    7.95
  -6   0  -3    0.15    2.96
  -6   0  -3   12.62    5.66
  -6   0  -3    1.61    1.15
   6   0   3    4.01    1.42
   6   0   3    1.66    0.79
   6   0   3    5.60    2.83
  -7   0  -3   49.16    3.75
  -7   0  -3   47.68    6.84
   7   0   3   83.67   10.95
   7   0   3   49.68    4.00
  -8   0  -3    5.66    4.43
  -8   0  -3    1.44    1.58
   8   0   3    0.52    5.29
   8   0   3    2.28    1.75
   8  -1  -3   -0.93    9.66
   8  -1  -3    6.94    5.89
   8  -1  -3    2.44    1.86
  -8   1   3    1.95    1.54
  -8   1   3   -2.82    3.99
  -8   1   3   -0.27    2.02
   7  -1  -3   36.38    3.45
   7  -1  -3   29.52    7.75
   7  -1  -3   29.23   12.35
  -7   1   3   30.83    4.35
  -7   1   3   25.60    2.72
  -7   1   3   28.38    5.44
   6  -1  -3    5.53    4.54
   6  -1  -3   12.88   10.68
   6  -1  -3    4.97    1.69
  -6   1   3    4.10    1.32
  -6   1   3    8.25    3.45
  -6   1   3    6.03    2.19
   5  -1  -3   35.46    5.28
   5  -1  -3   38.72    3.06
   5  -1  -3   47.09    6.19
   5  -1  -3   43.22    7.76
   5  -1  -3   44.19    3.64
  -5   1   3   49.12    6.06
  -5   1   3   39.96    2.84
  -5   1   3   36.69    4.40
  -5   1   3   45.85    5.44
   4  -1  -3   82.68    4.77
   4  -1  -3   85.00    6.32
   4  -1  -3   76.74    6.74
   4  -1  -3   91.44    9.22
  -4   1   3   87.78    6.22
  -4   1   3   83.26    4.53
  -4   1   3   74.14    6.97
  -4   1   3   81.78    6.47
   3  -1  -3   68.53    3.82
   3  -1  -3   80.29    5.56
   3  -1  -3   67.95    5.15
   3  -1  -3   70.74    4.01
   3  -1  -3   61.47    7.40
   3  -1  -3   76.91    5.77
  -3   1   3   62.73    5.92
  -3   1   3   71.58    5.15
  -3   1   3   75.31    3.90
  -3   1   3   74.14    5.59
   2  -1  -3   58.02    3.17
   2  -1  -3   49.56    6.08
   2  -1  -3   48.93    3.94
   2  -1  -3   52.29    2.90
   2  -1  -3   62.46    4.42
  -2   1   3   59.76    4.08
  -2   1   3   51.47    4.64
  -2   1   3   50.35    4.44
  -2   1   3   60.18    5.76
  -2   1   3   55.48    2.97
  -2   1   3   53.50    3.11
  -2   1   3   51.24    4.37
   1  -1  -3  106.47    6.21
   1  -1  -3  111.99    5.70
   1  -1  -3  119.32    9.40
   1  -1  -3  103.88    5.51
   1  -1  -3  122.68    8.26
  -1   1   3  102.36    9.35
  -1   1   3  114.67    8.54
  -1   1   3  110.58    5.55
  -1   1   3  120.90    8.27
  -1   1   3  108.55    5.69
  -1   1   3  119.07    6.94
   0  -1  -3   80.98    6.09
   0  -1  -3   81.91    4.12
   0  -1  -3   76.54    4.01
   0  -1  -3   76.50    4.83
   0   1   3   79.38    4.03
   0   1   3   69.82    4.77
   0   1   3   85.16    5.93
   0   1   3   77.89    4.11
   0   1   3   76.53    5.23
   0   1   3   82.88    6.08
  -1  -1  -3   47.11    3.87
  -1  -1  -3   47.91    4.13
  -1  -1  -3   54.31    2.79
  -1  -1  -3   56.11    3.55
  -1  -1  -3   52.95    2.92
   1   1   3   56.70    3.68
   1   1   3   52.79    2.91
   1   1   3   49.61    3.99
   1   1   3   57.12    4.21
   1   1   3   58.10    2.87
  -2  -1  -3  341.76   26.37
  -2  -1  -3  371.07   17.56
  -2  -1  -3  374.59   18.85
  -2  -1  -3  375.80   17.67
  -2  -1  -3  377.01   18.43
   2   1   3  353.60   17.59
   2   1   3  386.46   19.07
   2   1   3  370.18   18.51
   2   1   3  362.60   17.68
  -3  -1  -3   24.32    1.72
  -3  -1  -3   26.08    1.82
  -3  -1  -3   22.89    3.55
  -3  -1  -3   21.23    2.97
   3   1   3   24.06    1.80
   3   1   3   35.87    4.32
   3   1   3   27.05    3.32
   3   1   3   23.54    1.85
  -4  -1  -3  116.13   12.75
  -4  -1  -3  123.50    7.88
  -4  -1  -3  120.30    6.37
  -4  -1  -3  122.68    8.28
   4   1   3  117.88    6.41
   4   1   3  137.39    8.90
   4   1   3  119.02    8.06
  -5  -1  -3    1.14    2.41
  -5  -1  -3    2.01    2.00
  -5  -1  -3   -1.43    3.28
  -5  -1  -3   -0.34    0.80
   5   1   3    4.36    1.16
   5   1   3   -0.08    2.14
   5   1   3   -2.95    2.49
   5   1   3   -2.90    2.39
  -6  -1  -3   76.23    7.22
  -6  -1  -3   73.38    4.38
   6   1   3   65.49    4.41
   6   1   3   57.60    6.97
  -7  -1  -3    1.08    1.09
  -7  -1  -3    0.92    1.34
  -7  -1  -3    1.77    3.18
   7   1   3    1.90    1.42
  -8  -1  -3   20.80    2.61
   8   1   3   34.80    8.92
   8   1   3   18.78    2.66
   9   1   3    0.85    5.80
   8  -2  -3    3.20   10.96
   8  -2  -3    7.85    2.26
   8  -2  -3   13.54    6.99
  -8   2   3   11.90    2.27
  -8   2   3    8.96    3.14
  -8   2   3    9.52    4.51
   7  -2  -3   12.63    6.59
   7  -2  -3    9.40    2.12
   7  -2  -3   11.73   11.04
  -7   2   3    9.53    3.94
  -7   2   3    6.50    2.62
  -7   2   3    9.59    1.91
   6  -2  -3   15.93    9.93
   6  -2  -3   12.43    5.92
   6  -2  -3   14.96    2.23
  -6   2   3   12.48    1.78
  -6   2   3    8.75    2.54
  -6   2   3   12.64    3.86
   5  -2  -3   47.19    5.81
   5  -2  -3   49.19    3.29
   5  -2  -3   64.27   13.68
   5  -2  -3   35.94    6.05
   5  -2  -3   44.11    8.21
  -5   2   3   49.21    5.98
  -5   2   3   46.85    2.98
  -5   2   3   39.48    4.77
  -5   2   3   53.44    5.23
   4  -2  -3   28.61    1.97
   4  -2  -3   49.96   11.36
   4  -2  -3   24.02    4.11
   4  -2  -3   30.77    2.32
   4  -2  -3   28.48    4.12
   4  -2  -3   28.32    6.24
  -4   2   3   29.20    4.25
  -4   2   3   27.13    1.97
  -4   2   3   32.51    3.87
  -4   2   3   22.68    3.19
   3  -2  -3  114.23    5.91
   3  -2  -3  128.36    7.72
   3  -2  -3  127.26    6.10
   3  -2  -3  110.21   11.02
  -3   2   3   98.80    8.49
  -3   2   3  123.98    7.66
  -3   2   3  119.98    5.95
  -3   2   3  123.03    7.19
   2  -2  -3   62.58    3.44
   2  -2  -3   59.34    4.88
   2  -2  -3   52.25    6.93
   2  -2  -3   60.54    4.20
   2  -2  -3   62.15    3.27
  -2   2   3   59.45    3.45
  -2   2   3   71.71    5.02
  -2   2   3   65.86    4.89
  -2   2   3   71.30    6.99
  -2   2   3   59.23    4.19
  -2   2   3   65.93    3.33
   1  -2  -3  176.64    9.72
   1  -2  -3  171.58    9.03
   1  -2  -3  175.18    8.49
   1  -2  -3  175.93    8.64
   1  -2  -3  199.71   14.63
  -1   2   3  188.91    9.93
  -1   2   3  145.64   13.13
  -1   2   3  175.53    9.11
  -1   2   3  181.84    8.54
  -1   2   3  168.94   14.36
  -1   2   3  181.57    8.72
  -1   2   3  193.83   12.68
   0  -2  -3    5.77    1.09
   0  -2  -3    9.36    0.72
   0  -2  -3    7.69    0.58
   0  -2  -3   11.97    3.80
   0  -2  -3   10.18    1.77
   0   2   3    9.75    1.55
   0   2   3    6.31    1.69
   0   2   3    8.12    0.73
   0   2   3    7.40    0.77
   0   2   3    7.99    1.21
  -1  -2  -3  269.11   21.09
  -1  -2  -3  293.96   13.95
  -1  -2  -3  302.36   20.96
  -1  -2  -3  299.55   14.58
  -1  -2  -3  286.75   14.77
   1   2   3  297.09   21.12
   1   2   3  297.64   14.05
   1   2   3  292.50   14.65
   1   2   3  302.00   14.00
   1   2   3  283.30   14.96
  -2  -2  -3    4.92    2.76
  -2  -2  -3    5.95    0.76
  -2  -2  -3    5.57    0.77
  -2  -2  -3    6.78    1.55
  -2  -2  -3    6.32    0.89
   2   2   3    6.88    1.73
   2   2   3    6.61    2.12
   2   2   3    4.98    0.78
   2   2   3    6.17    0.92
  -3  -2  -3  171.20   18.08
  -3  -2  -3  165.94   10.05
  -3  -2  -3  183.19    8.66
  -3  -2  -3  172.90    9.80
  -3  -2  -3  180.21   12.57
  -3  -2  -3  175.03    8.64
   3   2   3  170.43    8.75
   3   2   3  175.34   10.50
   3   2   3  169.24   10.00
   3   2   3  162.05    8.67
  -4  -2  -3    0.80    1.71
  -4  -2  -3    0.50    2.26
  -4  -2  -3    1.17    0.79
  -4  -2  -3    1.03    1.90
   4   2   3    0.82    0.84
   4   2   3    0.43    1.85
   4   2   3    0.90    2.49
   4   2   3   -1.08    2.00
  -5  -2  -3   94.93    5.13
  -5  -2  -3   99.80    7.50
   5   2   3   88.04    5.21
   5   2   3   84.16    7.61
   5   2   3   79.44    7.04
  -6  -2  -3   13.17    1.78
  -6  -2  -3   13.05    3.76
   6   2   3    8.35    3.46
   6   2   3    9.72    1.76
  -7  -2  -3   30.83    2.91
   7   2   3   30.62    5.62
   7   2   3   31.68    3.00
  -8  -2  -3    0.52    1.50
   8   2   3    1.56    5.16
   8   2   3   -1.56    1.36
   9   2   3   10.43    6.72
   8  -3  -3   -1.02    6.67
   8  -3  -3    0.36   11.82
  -8   3   3    4.04    4.67
  -8   3   3    2.26    2.65
  -8   3   3    8.04    2.02
   7  -3  -3   10.04   11.05
   7  -3  -3    6.54    1.83
   7  -3  -3    7.19    7.12
  -7   3   3    4.71    3.68
  -7   3   3    8.39    1.80
  -7   3   3    5.03    2.54
   6  -3  -3   27.64   12.14
   6  -3  -3   21.83    7.39
   6  -3  -3   27.02    2.67
  -6   3   3   31.58    5.10
  -6   3   3   23.39    2.37
  -6   3   3   18.91    3.74
   5  -3  -3    6.90    2.01
   5  -3  -3    7.17    8.96
   5  -3  -3    4.71    5.05
   5  -3  -3    3.18    1.25
  -5   3   3    5.80    2.88
  -5   3   3    5.65    1.18
  -5   3   3    2.90    1.85
   4  -3  -3   67.02    9.93
   4  -3  -3   94.41    9.68
   4  -3  -3   82.94    4.65
   4  -3  -3   81.13    4.54
   4  -3  -3   88.42    6.66
   4  -3  -3  100.80   16.32
  -4   3   3   82.18    4.57
  -4   3   3   78.12    6.35
  -4   3   3   87.21    6.19
   3  -3  -3   26.96    4.51
   3  -3  -3   23.19    1.72
   3  -3  -3   25.60    5.62
   3  -3  -3   21.37    1.55
   3  -3  -3   27.58    3.50
   3  -3  -3   25.42    8.71
  -3   3   3   23.15    1.62
  -3   3   3   22.28    2.88
  -3   3   3   23.19    2.22
  -3   3   3   24.00    3.30
   2  -3  -3   90.76   11.54
   2  -3  -3   72.97    3.85
   2  -3  -3   69.40    5.09
   2  -3  -3   71.89    8.73
   2  -3  -3   74.75    3.78
  -2   3   3   78.56    5.27
  -2   3   3   79.77    5.75
  -2   3   3   72.84    4.02
  -2   3   3   76.79    4.79
  -2   3   3   80.18    8.01
  -2   3   3   74.46    3.88
   1  -3  -3    0.39    2.82
   1  -3  -3    0.12    2.19
   1  -3  -3    0.66    1.28
   1  -3  -3   -1.03    4.55
   1  -3  -3   -0.28    0.71
   1  -3  -3    3.90    3.85
  -1   3   3   -0.79    2.31
  -1   3   3   -1.43    1.44
  -1   3   3    1.83    2.69
  -1   3   3    0.27    1.66
  -1   3   3   -0.17    0.30
  -1   3   3    0.38    0.51
  -1   3   3   -0.60    0.86
  -1   3   3    0.48    0.96
   0  -3  -3  173.12   15.32
   0  -3  -3  166.55    8.29
   0  -3  -3  166.91    8.44
   0   3   3  166.69    9.18
   0   3   3  170.64    8.14
   0   3   3  174.16    8.81
   0   3   3  167.72   14.36
   0   3   3  172.58    8.21
  -1  -3  -3    1.08    0.34
  -1  -3  -3    1.63    3.77
  -1  -3  -3    1.69    2.63
  -1  -3  -3    0.32    1.04
  -1  -3  -3    1.94    1.07
  -1  -3  -3    2.90    3.56
  -1  -3  -3    0.26    0.51
  -1  -3  -3    1.25    0.29
   1   3   3    1.41    0.45
   1   3   3    1.84    1.15
   1   3   3    2.07    0.70
   1   3   3    5.61    3.02
   1   3   3    1.30    0.49
   1   3   3    2.89    1.57
  -2  -3  -3  163.27   17.90
  -2  -3  -3  161.89    9.10
  -2  -3  -3  164.60    8.04
  -2  -3  -3  172.61   13.35
  -2  -3  -3  161.52    8.04
  -2  -3  -3  157.51    8.87
   2   3   3  165.32    8.21
   2   3   3  188.84   12.01
   2   3   3  157.31    9.11
   2   3   3  154.62    8.13
   2   3   3  160.07    9.46
  -3  -3  -3    1.95    1.65
  -3  -3  -3    2.16    0.67
  -3  -3  -3    0.71    3.47
  -3  -3  -3    2.89    0.72
  -3  -3  -3    2.87    3.33
  -3  -3  -3    4.48    1.80
   3   3   3    3.63    2.98
   3   3   3    2.96    0.80
   3   3   3    3.44    1.76
   3   3   3    3.63    2.23
  -4  -3  -3   59.71    9.30
  -4  -3  -3   69.75    5.56
  -4  -3  -3   68.56    3.81
   4   3   3   73.02    6.09
   4   3   3   69.33    4.04
   4   3   3   68.25    5.65
  -5  -3  -3   18.25    1.45
  -5  -3  -3   33.82    7.53
  -5  -3  -3   17.06    1.66
  -5  -3  -3   12.33    1.39
  -5  -3  -3   18.87    3.84
   5   3   3   16.11    1.96
   5   3   3   22.42    4.41
   5   3   3   18.23    3.78
  -6  -3  -3   48.95    5.88
  -6  -3  -3   44.46    3.81
  -6  -3  -3   56.99    3.38
   6   3   3   47.04    3.53
   6   3   3   45.17    6.17
  -7  -3  -3    3.69    1.48
   7   3   3    4.43    1.60
   7   3   3    3.44    1.57
   7   3   3    4.90    3.60
  -8  -3  -3   15.11    2.34
   8   3   3   16.39    2.70
   9   3   3    0.86    5.72
   7  -4  -3   14.24    8.76
   7  -4  -3   11.65   13.06
  -7   4   3    9.27    3.15
  -7   4   3   14.62    2.18
  -7   4   3   12.30    4.36
   6  -4  -3    0.04    5.53
   6  -4  -3    5.80   11.66
  -6   4   3   -0.18    1.04
  -6   4   3   -0.25    1.71
  -6   4   3    1.10    3.10
   5  -4  -3   36.22    2.43
   5  -4  -3   31.64    8.87
   5  -4  -3   40.50   14.21
  -5   4   3   37.72    2.56
  -5   4   3   22.99    3.96
  -5   4   3   36.15    4.77
   4  -4  -3   12.39    9.55
   4  -4  -3   10.74    1.03
   4  -4  -3   11.22    3.58
   4  -4  -3   12.46    2.78
   4  -4  -3   13.70    6.16
   4  -4  -3   12.59    1.18
  -4   4   3    9.92    1.25
  -4   4   3    9.46    2.67
  -4   4   3    8.11    1.28
  -4   4   3    6.98    2.18
  -4   4   3   13.26    2.90
   3  -4  -3   83.80    5.62
   3  -4  -3   84.36   10.14
   3  -4  -3   72.83    9.81
   3  -4  -3   80.76   15.09
  -3   4   3   73.48    5.67
  -3   4   3   82.74    6.03
  -3   4   3   82.37    5.44
  -3   4   3   76.00    4.16
   2  -4  -3   -1.46    2.94
   2  -4  -3   -0.72    5.70
   2  -4  -3   -1.20    0.95
   2  -4  -3    0.05    2.27
   2  -4  -3   -0.89    3.40
  -2   4   3    0.33    1.14
  -2   4   3   -1.13    2.45
  -2   4   3   -0.78    1.57
  -2   4   3    1.18    1.37
  -2   4   3    0.12    0.37
  -2   4   3   -1.04    0.97
  -2   4   3    0.31    0.50
   1  -4  -3  168.50   17.49
   1  -4  -3  141.97   16.25
   1  -4  -3  189.94   14.74
  -1   4   3  154.45    8.53
  -1   4   3  152.53    7.99
  -1   4   3  148.10    7.66
  -1   4   3  154.49    7.51
   0  -4  -3   32.32    8.36
   0  -4  -3   49.21    9.19
   0  -4  -3   30.82    5.86
   0   4   3   22.30    4.86
   0   4   3   26.46    2.21
   0   4   3   26.31    1.42
   0   4   3   24.98    2.62
   0   4   3   26.09    1.47
  -1  -4  -3  163.62    8.14
  -1  -4  -3  150.65   15.38
  -1  -4  -3  208.62   19.41
  -1  -4  -3  156.01    8.26
  -1  -4  -3  166.68   18.62
   1   4   3  167.75    8.08
   1   4   3  176.87    9.09
   1   4   3  163.01    8.70
  -2  -4  -3    5.30    0.52
  -2  -4  -3    2.27    3.48
  -2  -4  -3    6.71    4.80
  -2  -4  -3    3.48    1.33
  -2  -4  -3    4.26    0.54
  -2  -4  -3    3.32    4.12
   2   4   3    2.67    1.49
   2   4   3    3.95    0.73
   2   4   3    5.41    0.82
   2   4   3    4.59    1.88
  -3  -4  -3   77.22   11.91
  -3  -4  -3   96.88    4.83
  -3  -4  -3   96.15    6.12
  -3  -4  -3   90.03    4.77
  -3  -4  -3  114.24   13.50
   3   4   3   95.41    5.03
   3   4   3   96.39    6.75
   3   4   3   94.89    6.32
  -4  -4  -3   41.34    2.53
  -4  -4  -3   43.65    4.62
  -4  -4  -3   50.92   10.35
  -4  -4  -3   32.34    8.00
  -4  -4  -3   37.81    2.41
   4   4   3   40.13    4.96
   4   4   3   34.52    2.67
   4   4   3   36.04    4.70
  -5  -4  -3   60.14    3.62
  -5  -4  -3   85.07   11.48
   5   4   3   55.85    6.39
   5   4   3   68.32    6.61
   5   4   3   56.53    3.90
  -6  -4  -3   27.65    8.11
  -6  -4  -3   15.79    1.86
   6   4   3   20.60    4.58
   6   4   3   16.04    2.20
  -7  -4  -3   22.44    2.41
   7   4   3   16.13    2.35
   7   4   3   28.66    5.55
   7   4   3   12.41    2.85
  -8  -4  -3    9.76    2.09
   8   4   3   10.33    2.23
   7  -5  -3   -4.92   11.84
   7  -5  -3    0.98    7.73
  -7   5   3   -0.84    1.20
  -7   5   3    0.29    2.30
  -7   5   3   -0.78    3.79
   6  -5  -3   29.66   15.92
   6  -5  -3   19.68    9.15
  -6   5   3   23.16    4.50
  -6   5   3   26.99    2.45
   5  -5  -3    0.50    5.37
   5  -5  -3   -3.41    9.63
  -5   5   3    0.83    2.47
  -5   5   3    0.84    1.73
  -5   5   3    2.39    1.03
   4  -5  -3   55.29   15.87
   4  -5  -3   58.07   10.73
  -4   5   3   56.39    3.34
  -4   5   3   56.53    5.09
  -4   5   3   57.92    5.22
   3  -5  -3   -0.53    8.31
   3  -5  -3    1.80    4.61
   3  -5  -3   -1.49    2.44
   3  -5  -3    2.76    4.82
  -3   5   3   -0.56    2.15
  -3   5   3   -0.83    1.28
  -3   5   3    1.51    1.51
  -3   5   3    0.19    0.75
  -3   5   3   -0.04    0.52
  -3   5   3   -0.28    1.50
   2  -5  -3   80.17   15.52
   2  -5  -3   67.03   10.13
   2  -5  -3   81.20   10.43
  -2   5   3   67.40    3.78
  -2   5   3   73.98    4.80
  -2   5   3   74.68    3.68
  -2   5   3   71.45    4.50
   1  -5  -3   54.96   10.84
   1  -5  -3   28.05    6.48
   1  -5  -3   30.28    9.88
   1  -5  -3   25.79    6.65
  -1   5   3   23.47    1.55
  -1   5   3   26.19    1.38
  -1   5   3   25.17    2.33
   0  -5  -3  172.66   17.98
   0  -5  -3  126.39   15.72
   0  -5  -3  125.02   16.51
   0   5   3  144.52    6.74
   0   5   3  140.08    6.71
   0   5   3  138.55    7.50
   0   5   3  140.65    7.15
  -1  -5  -3   25.24    7.17
  -1  -5  -3   37.40    9.11
  -1  -5  -3   37.17    8.92
   1   5   3   29.32    2.77
   1   5   3   28.12    2.33
   1   5   3   28.53    1.63
  -2  -5  -3   57.95   10.13
  -2  -5  -3   74.20   10.92
  -2  -5  -3   48.78    8.95
  -2  -5  -3   50.28    3.20
   2   5   3   44.53    3.81
   2   5   3   53.25    2.80
   2   5   3   48.48    4.24
   2   5   3   48.66    4.00
   2   5   3   50.49    2.83
  -3  -5  -3   52.21    4.00
  -3  -5  -3   44.87   10.19
  -3  -5  -3   65.41   12.84
  -3  -5  -3   52.79    2.74
  -3  -5  -3   50.94    2.69
   3   5   3   45.22    4.40
   3   5   3   50.08    3.05
   3   5   3   53.31    4.88
  -4  -5  -3   33.20    9.56
  -4  -5  -3   27.79    1.87
  -4  -5  -3   27.27    3.59
   4   5   3   28.42    4.27
   4   5   3   26.16    2.15
   4   5   3   23.32    3.78
  -5  -5  -3   32.25    2.31
  -5  -5  -3   42.28   10.65
   5   5   3   28.46    2.55
   5   5   3   26.63    4.58
  -6  -5  -3   21.06    2.13
  -6  -5  -3   38.19   10.10
   6   5   3   16.48    2.29
   6   5   3   11.62    3.87
  -7  -5  -3   18.52    2.16
   7   5   3    8.04    2.54
   7   5   3   15.02    2.37
   7   5   3   18.81    5.12
  -8  -5  -3    2.19    1.47
   8   5   3    2.13    1.68
   8   5   3    4.86    2.15
   8   5   3    6.01    4.52
   6  -6  -3    3.20    7.25
   6  -6  -3    0.45   13.89
  -6   6   3    0.61    3.08
  -6   6   3    3.09    2.39
   5  -6  -3   27.27    8.81
   5  -6  -3   41.10   17.02
  -5   6   3   21.01    4.05
  -5   6   3   29.78    4.42
   4  -6  -3    7.17    6.92
   4  -6  -3    3.11   10.90
   4  -6  -3    6.50    6.39
  -4   6   3    3.58    2.97
  -4   6   3    0.87    1.72
  -4   6   3    3.86    0.94
  -4   6   3    4.62    2.34
   3  -6  -3   56.35   11.99
   3  -6  -3   34.30   14.04
   3  -6  -3   30.01    8.41
  -3   6   3   26.14    6.00
  -3   6   3   30.11    1.94
  -3   6   3   29.02    3.41
  -3   6   3   29.00    3.28
   2  -6  -3   41.05   14.26
   2  -6  -3   32.31    8.47
   2  -6  -3   45.40    8.90
   2  -6  -3   64.55   12.48
  -2   6   3   24.93    6.41
  -2   6   3   31.99    2.03
  -2   6   3   36.74    3.06
  -2   6   3   35.68    2.85
  -2   6   3   36.41    1.96
   1  -6  -3   63.63   14.63
   1  -6  -3   64.31   11.08
   1  -6  -3   44.40   10.10
  -1   6   3   33.63    8.10
  -1   6   3   50.25    3.06
  -1   6   3   53.45    2.49
  -1   6   3   50.23    3.09
  -1   6   3   48.66    2.62
   0  -6  -3   22.26    9.78
   0  -6  -3   25.89    7.75
   0  -6  -3   38.36   10.41
   0   6   3   25.03    1.30
   0   6   3   25.03    1.71
   0   6   3   22.81    2.29
  -1  -6  -3   47.87   11.04
  -1  -6  -3   62.30   13.24
  -1  -6  -3   58.79   12.05
   1   6   3   48.29    2.55
   1   6   3   49.02    2.57
   1   6   3   46.33    3.31
   1   6   3   49.93    3.76
  -2  -6  -3   42.45   11.35
  -2  -6  -3   34.21    9.27
  -2  -6  -3   62.17   11.27
   2   6   3   28.79    3.08
   2   6   3   38.35    2.16
   2   6   3   43.79    3.94
   2   6   3   37.51    3.42
   2   6   3   38.70    2.24
  -3  -6  -3   22.10    9.32
   3   6   3   24.70    3.89
   3   6   3   22.78    1.89
   3   6   3   25.85    3.57
  -4  -6  -3   67.52   14.55
  -4  -6  -3   52.49    2.93
   4   6   3   52.92    3.48
   4   6   3   54.67    5.53
   4   6   3   60.01    5.95
  -5  -6  -3   16.32    9.12
  -5  -6  -3   11.60    1.26
   5   6   3    5.43    2.30
   5   6   3   16.62    4.15
   5   6   3   14.65    1.98
  -6  -6  -3   26.60    9.80
   6   6   3   21.83    4.80
   6   6   3   19.92    2.48
   6   6   3   11.63    3.01
  -7  -6  -3    0.00    1.12
   7   6   3    0.60    1.38
   7   6   3    4.94    3.79
   7   6   3    2.13    1.82
  -8  -6  -3    4.45    1.62
   8   6   3    7.99    2.56
   8   6   3   15.90    5.50
   6  -7  -3    9.18   15.54
   5  -7  -3   -9.96   11.73
   5  -7  -3    1.44    7.64
  -5   7   3    2.39    2.35
  -5   7   3    3.26    2.81
   4  -7  -3   17.62    8.77
   4  -7  -3    9.05    7.46
   4  -7  -3   13.14   14.12
  -4   7   3    4.69    2.32
  -4   7   3   10.14    2.68
   3  -7  -3   20.06    8.26
   3  -7  -3   16.33    7.45
   3  -7  -3    7.59   12.48
  -3   7   3   14.88    2.36
  -3   7   3   10.79    4.73
  -3   7   3   12.17    2.29
  -3   7   3    5.09    2.27
   2  -7  -3   26.73    8.02
   2  -7  -3   52.31   12.55
   2  -7  -3   23.33   13.14
  -2   7   3   14.50    3.00
  -2   7   3    8.82    2.12
  -2   7   3   16.60    5.54
  -2   7   3   23.94    2.16
   1  -7  -3   29.45   10.13
   1  -7  -3   21.69   12.09
  -1   7   3   11.16    2.52
  -1   7   3   10.70    4.86
   0  -7  -3   53.52   13.47
   0  -7  -3   41.51   13.32
  -1  -7  -3   46.10   13.09
  -1  -7  -3   32.88   11.88
   1   7   3   32.84    2.77
   1   7   3   32.65    1.84
   1   7   3   31.13    1.85
   1   7   3   35.36    3.16
  -2  -7  -3    8.81    7.76
  -2  -7  -3   13.93    8.77
   2   7   3    6.99    1.39
   2   7   3   10.53    2.57
   2   7   3    9.70    2.24
   2   7   3    9.17    1.07
  -3  -7  -3   60.83   15.33
   3   7   3   50.61    4.95
   3   7   3   60.68    5.39
   3   7   3   50.61    3.22
  -4  -7  -3    2.63    6.88
   4   7   3    2.13    1.90
   4   7   3    8.57    1.45
   4   7   3    8.52    3.04
  -5  -7  -3   21.58   10.35
   5   7   3   13.40    3.21
   5   7   3   27.60    4.92
   5   7   3   22.28    2.35
  -6  -7  -3   -3.23    6.30
   6   7   3    0.36    1.31
   6   7   3    2.92    1.89
   6   7   3    1.11    2.94
  -7  -7  -3   11.09    9.44
   7   7   3   10.27    2.21
   7   7   3    4.84    2.33
   7   7   3   12.68    4.41
   5  -8  -3   22.84   16.85
   4  -8  -3   27.13   17.34
   4  -8  -3   11.94    9.17
   4  -8  -3   11.00    8.74
  -4   8   3    5.87    2.47
  -4   8   3    7.34    2.64
   3  -8  -3   19.69    9.74
   3  -8  -3   11.03   14.69
   3  -8  -3   10.77    8.18
  -3   8   3   10.60    2.01
  -3   8   3   12.34    2.07
  -3   8   3    7.88    2.60
   2  -8  -3   46.88   16.10
   2  -8  -3   56.41   14.23
  -2   8   3   25.40    4.09
  -2   8   3   29.92    8.01
  -2   8   3   32.87    2.22
  -2   8   3   31.43    2.04
   1  -8  -3   24.14   10.63
   1  -8  -3   19.92   13.15
  -1   8   3    7.83    2.22
  -1   8   3    7.90    4.87
  -1   8   3    7.01    2.07
   0  -8  -3   47.64   14.65
   0  -8  -3   40.98   13.29
   0   8   3   15.51    2.69
   0   8   3   19.34    6.60
   0   8   3   13.87    3.02
  -1  -8  -3    0.55    7.64
  -1  -8  -3   -1.08    9.28
   1   8   3    2.31    1.74
   1   8   3    3.07    1.25
   1   8   3    2.47    1.55
   1   8   3    1.46    1.18
  -2  -8  -3   47.79   15.22
  -2  -8  -3   54.47   14.60
   2   8   3   43.29    4.34
   2   8   3   33.49    3.64
   2   8   3   28.73    3.20
  -3  -8  -3    3.80    8.84
   3   8   3    1.02    1.89
   3   8   3    5.12    2.48
   3   8   3    3.26    2.82
  -4  -8  -3   40.75   14.38
   4   8   3   24.28    4.38
   4   8   3   34.20    2.70
  -5  -8  -3   -3.93    7.85
   5   8   3    0.89    2.99
   5   8   3    0.60    1.19
   5   8   3    2.14    1.74
  -6  -8  -3   21.68   11.85
   6   8   3   11.01    3.27
   6   8   3   15.21    4.47
   6   8   3   12.89    2.17
  -7  -8  -3    8.75    9.40
   7   8   3    1.27    1.72
   4  -9  -3   -2.40   14.53
   4  -9  -3    4.99    9.68
   3  -9  -3   19.95   15.47
   3  -9  -3   47.53   14.31
  -3   9   3   14.66    3.48
  -3   9   3   19.64    1.87
   2  -9  -3    7.50    9.30
   2  -9  -3   -1.25   12.86
  -2   9   3    0.72    4.61
  -2   9   3    3.61    1.98
   1  -9  -3   29.97   13.18
   1  -9  -3   26.39   15.02
  -1   9   3   12.93    6.23
  -1   9   3   10.61    2.56
  -1   9   3    8.43    2.34
   0  -9  -3    0.61    8.08
   0  -9  -3   -1.76   11.30
   0   9   3    2.68    4.38
   0   9   3    2.81    1.75
   0   9   3    1.19    1.41
  -1  -9  -3   16.49   11.85
  -1  -9  -3   26.29   13.83
   1   9   3    9.35    2.07
   1   9   3   11.07    2.90
  -2  -9  -3   -4.46    8.38
  -2  -9  -3   -2.83   11.05
   2   9   3    0.32    1.72
   2   9   3    0.49    1.50
   2   9   3   -1.04    2.01
  -3  -9  -3   36.19   14.81
   3   9   3   32.28    4.29
  -4  -9  -3   -4.84    8.39
   4   9   3    3.82    2.74
   4   9   3    3.35    2.19
  -5  -9  -3   11.14   11.59
   5   9   3    5.91    3.61
   5   9   3    8.42    2.73
  -6  -9  -3    0.17   10.38
   2 -10  -3   16.78   16.07
   2 -10  -3   31.36   14.30
  -2  10   3   11.10    3.03
   1 -10  -3   -3.92    8.87
   1 -10  -3    7.47   13.99
  -1  10   3    1.24    1.73
  -1  10   3    1.64    1.52
  -1  10   3    2.10    4.77
   0 -10  -3   30.16   15.20
   0 -10  -3   33.46   17.08
   0  10   3    7.89    2.58
   0  10   3    9.90    2.46
   0  10   3   10.91    5.95
  -1 -10  -3   -2.40    9.49
  -1 -10  -3    1.67   14.10
   1  10   3    1.93    4.36
   1  10   3    2.70    2.01
  -2 -10  -3   20.33   14.32
  -2 -10  -3   52.30   18.89
   2  10   3   21.26    3.17
   2  10   3   24.25    3.08
   2  10   3   12.48    3.45
  -3 -10  -3    2.04   11.13
   3  10   3    1.30    2.33
   3  10   3    4.51    2.33
  -4 -10  -3   -1.54   10.60
  -1 -11  -3   17.35   15.57
  -1 -11  -3   32.55   19.29
   1  11   3    6.70    5.72
  -2 -11  -3    4.56   13.08
  -3  -9   4    0.92   13.74
   2   9  -4   13.52    5.61
   2   9  -4    7.44    3.50
  -2  -9   4    6.51   13.33
   1   9  -4    0.92    4.88
   1   9  -4    2.57    4.36
   1   9  -4    4.40    2.84
  -1  -9   4   -0.67   10.98
   0   9  -4    7.22    3.15
   0   9  -4    7.82    6.41
   0   9  -4    9.08    4.74
   0  -9   4   10.41   13.41
  -1   9  -4    2.32    2.70
  -1   9  -4    2.78    6.17
  -1   9  -4    5.11    3.85
   1  -9   4    5.94   11.05
   2  -9   4    2.13    9.84
   3  -9   4    7.07    9.42
   5   8  -4    3.35    2.08
  -5  -8   4   -0.25   11.06
   4   8  -4   -0.93    2.77
   4   8  -4    3.24    4.44
   4   8  -4    4.81    4.90
   4   8  -4    0.94    1.74
  -4  -8   4   -3.67   11.39
   3   8  -4    8.91    4.75
   3   8  -4    5.29    3.03
   3   8  -4    4.46    5.02
  -3  -8   4    8.20   13.34
   2   8  -4    5.87    5.33
   2   8  -4    8.86    4.46
   2   8  -4    3.39    2.61
  -2  -8   4   -1.20   10.16
   1   8  -4    6.82    5.64
   1   8  -4   14.09    3.54
   1   8  -4   11.94    4.95
  -1  -8   4   14.64   13.15
   0   8  -4    2.76    2.33
   0   8  -4    5.61    5.48
   0   8  -4    4.71    4.33
   0  -8   4    1.57    9.67
  -1   8  -4    6.09    4.18
  -1   8  -4    9.96    3.11
  -1   8  -4    4.09    5.64
   1  -8   4    8.16   10.56
  -2   8  -4    9.39    2.91
  -2   8  -4   15.02    8.40
  -2   8  -4   14.93    4.03
   2  -8   4   13.90    7.07
   2  -8   4    8.15   10.21
  -3   8  -4    7.46    3.51
  -3   8  -4    7.66    7.79
   3  -8   4    9.05    9.05
   3  -8   4   10.39    7.50
   3  -8   4   17.80   16.54
  -4   8  -4    5.88    7.15
   4  -8   4   20.34    9.21
   4  -8   4   22.93   18.82
   6   7  -4    3.09    4.96
   6   7  -4   10.78    2.54
  -6  -7   4    8.57   11.83
   5   7  -4    3.18    2.85
   5   7  -4    7.48    4.88
   5   7  -4    4.46    1.93
  -5  -7   4    0.34    9.53
   4   7  -4   13.68    2.34
   4   7  -4    5.90    4.73
   4   7  -4    5.60    2.97
  -4  -7   4    3.51   12.24
   3   7  -4   14.69    4.91
   3   7  -4   16.16    2.30
   3   7  -4   14.45    3.83
   3   7  -4    9.58    5.83
  -3  -7   4   14.36   12.13
   2   7  -4   14.43    3.53
   2   7  -4   15.52    2.18
   2   7  -4   18.09    4.93
   2   7  -4    7.83    5.57
  -2  -7   4    9.61   10.87
   1   7  -4   11.57    1.87
   1   7  -4    9.26    3.08
   1   7  -4   10.33    4.37
   1   7  -4    6.60    5.13
  -1  -7   4    3.89    9.66
   0   7  -4   14.80    2.11
   0   7  -4    7.87    4.50
   0   7  -4   10.34    2.86
   0   7  -4   10.41    5.98
   0  -7   4    7.32    9.85
  -1   7  -4   16.01    7.12
  -1   7  -4   24.42    5.32
  -1   7  -4   18.51    3.57
  -1   7  -4   29.82    2.88
   1  -7   4   23.16    6.44
   1  -7   4   23.75   12.15
  -2   7  -4    6.74    3.51
  -2   7  -4    3.57    5.77
  -2   7  -4    3.11    2.06
   2  -7   4    2.90    4.97
   2  -7   4   16.49   14.19
   2  -7   4    7.27    8.58
  -3   7  -4   32.19   10.31
  -3   7  -4   31.11    5.01
   3  -7   4   31.06   12.34
   3  -7   4   38.98    9.18
   3  -7   4   64.25   19.04
  -4   7  -4    0.84    2.98
  -4   7  -4   -2.26    5.23
   4  -7   4    5.03    7.34
   4  -7   4    2.36   13.77
   4  -7   4    7.84    6.90
  -5   7  -4   10.63    7.97
   5  -7   4   10.83    8.18
   5  -7   4   22.50   15.81
   7   6  -4   10.41    6.28
  -7  -6   4    3.48    9.66
   6   6  -4    3.13    5.00
   6   6  -4    4.88    1.95
   6   6  -4    1.58    2.67
  -6  -6   4    5.60    9.78
  -6  -6   4    4.02    1.57
   5   6  -4    6.81    4.96
   5   6  -4    6.25    2.93
   5   6  -4    6.06    1.82
  -5  -6   4    2.73    1.26
  -5  -6   4    6.36   10.37
   4   6  -4   29.45    5.96
   4   6  -4   17.26    4.00
   4   6  -4   22.44    2.65
  -4  -6   4   24.43    2.15
  -4  -6   4   19.41   12.89
   3   6  -4   12.75    3.26
   3   6  -4   15.34    2.08
   3   6  -4   15.00    4.66
  -3  -6   4    8.15   10.19
  -3  -6   4   11.30    1.35
   2   6  -4   17.51    7.02
   2   6  -4   36.80    2.86
   2   6  -4   36.68    5.77
   2   6  -4   29.78    4.35
  -2  -6   4   33.65    1.90
  -2  -6   4   28.65   12.94
   1   6  -4    6.93    2.46
   1   6  -4    9.19    3.90
   1   6  -4   12.25    1.75
   1   6  -4   11.53    2.79
   1   6  -4    3.33    4.35
  -1  -6   4   11.57    9.76
   0   6  -4   48.25    3.29
   0   6  -4   35.99    4.58
   0   6  -4   45.35    6.49
   0   6  -4   31.15    8.70
   0  -6   4   30.04   12.29
   0  -6   4   48.08    6.80
  -1   6  -4    1.06    1.27
  -1   6  -4   -2.09    1.97
  -1   6  -4   -3.02    3.50
  -1   6  -4   -0.29    1.47
  -1   6  -4   -0.65    4.18
   1  -6   4    5.22    3.99
   1  -6   4   -1.57    5.59
  -2   6  -4   43.19    5.96
  -2   6  -4   46.82    4.95
  -2   6  -4   42.59    4.70
  -2   6  -4   47.26    3.60
  -2   6  -4   39.06    9.99
   2  -6   4   30.41   11.76
   2  -6   4   53.23    8.94
   2  -6   4  104.86   19.14
  -3   6  -4    2.91    1.66
  -3   6  -4    1.20    1.30
  -3   6  -4   -0.83    2.85
  -3   6  -4    2.47    5.03
   3  -6   4   12.74   11.89
   3  -6   4    0.99    4.98
   3  -6   4    2.05    5.39
  -4   6  -4   45.02   10.57
  -4   6  -4   18.55    4.45
  -4   6  -4   20.24    2.50
   4  -6   4   15.35    7.82
   4  -6   4   40.23   14.49
   4  -6   4   19.46    7.50
  -5   6  -4    0.78    1.46
  -5   6  -4    0.78    5.51
  -5   6  -4    0.72    3.20
   5  -6   4    1.20    6.15
   5  -6   4   -5.08    9.94
  -6   6  -4   29.43   10.19
  -6   6  -4   21.20    5.18
   6  -6   4   23.04   14.62
   6  -6   4   22.19    9.41
   7   5  -4    5.83    5.02
   7   5  -4    2.57    2.25
   7   5  -4    4.79    3.15
  -7  -5   4    4.48    1.91
  -7  -5   4    3.07    8.62
   6   5  -4   -0.01    4.08
   6   5  -4    4.95    3.16
   6   5  -4    6.74    2.12
  -6  -5   4    3.88    8.77
  -6  -5   4    3.11    1.56
   5   5  -4   23.07    4.50
   5   5  -4   29.71    6.22
   5   5  -4   24.72    2.98
  -5  -5   4   23.62    2.42
  -5  -5   4   16.27   11.37
   4   5  -4    4.97    1.65
   4   5  -4    1.11    3.51
   4   5  -4    4.63    2.43
  -4  -5   4    2.58    8.08
  -4  -5   4    2.40    1.14
   3   5  -4   44.88    3.35
   3   5  -4   50.35    6.59
   3   5  -4   34.03    4.90
  -3  -5   4   48.96    2.94
  -3  -5   4   30.91   12.57
   2   5  -4   11.17    2.75
   2   5  -4   13.78    4.22
   2   5  -4    8.41    2.58
   2   5  -4   11.10    1.64
  -2  -5   4    9.70    2.82
  -2  -5   4   11.71    1.24
  -2  -5   4   11.83    1.37
  -2  -5   4    8.15    8.60
   1   5  -4   37.45    2.71
   1   5  -4   38.30    4.24
   1   5  -4   36.09    5.55
   1   5  -4   29.43    4.18
  -1  -5   4   32.72   11.96
  -1  -5   4   35.95    2.04
  -1  -5   4   33.94    2.03
  -1  -5   4   24.39    3.60
   0   5  -4   -0.41    3.09
   0   5  -4    0.11    2.20
   0   5  -4    1.51    3.39
   0   5  -4    0.13    1.43
   0   5  -4    1.40    1.04
   0  -5   4    0.14    0.26
   0  -5   4    1.46    6.62
   0  -5   4    0.29    0.22
   0  -5   4   -0.93    1.35
   0  -5   4   -0.16    2.46
  -1   5  -4   75.57    7.91
  -1   5  -4   69.00    5.52
  -1   5  -4   74.93    4.43
  -1   5  -4   52.31   10.64
  -1   5  -4   65.77    6.17
   1  -5   4   52.27   14.68
   1  -5   4   70.86    8.40
   1  -5   4   73.59    4.66
  -2   5  -4    1.08    3.92
  -2   5  -4    1.86    3.09
  -2   5  -4    1.35    1.47
  -2   5  -4    2.23    2.00
  -2   5  -4    0.92    1.20
   2  -5   4    7.40    9.24
   2  -5   4    0.55    5.59
   2  -5   4   -1.82    3.47
  -3   5  -4   45.39    4.65
  -3   5  -4   42.58    3.35
  -3   5  -4   47.26    4.35
  -3   5  -4   42.18    5.67
  -3   5  -4   46.59    9.38
   3  -5   4   46.06    8.36
   3  -5   4   26.44    9.75
   3  -5   4   72.61   16.28
  -4   5  -4   -0.14    2.96
  -4   5  -4    2.02    1.32
  -4   5  -4    1.26    4.21
   4  -5   4    1.74    4.77
   4  -5   4   -0.27    4.61
   4  -5   4    6.81    9.92
  -5   5  -4   17.47    2.42
  -5   5  -4   15.25    4.36
  -5   5  -4   24.45    8.28
   5  -5   4   16.39    7.01
   5  -5   4   25.68   12.79
  -6   5  -4    5.28    1.62
  -6   5  -4    9.64    6.83
  -6   5  -4    2.57    3.53
   6  -5   4    6.27   10.48
   6  -5   4    9.06    7.14
  -7   5  -4   10.10    2.03
  -7   5  -4   19.89    8.98
   7  -5   4   18.18   13.00
   7   4  -4    1.04    1.77
   7   4  -4   -0.07    2.59
  -7  -4   4    1.80    1.70
   6   4  -4   19.30    5.56
   6   4  -4   14.20    2.43
   6   4  -4   14.68    3.67
  -6  -4   4   20.57   10.42
  -6  -4   4   14.44    2.12
   5   4  -4    1.14    1.96
   5   4  -4   -0.27    1.24
   5   4  -4    8.10    4.03
  -5  -4   4    0.30    1.20
  -5  -4   4   -2.47    6.91
  -5  -4   4    1.39    1.22
   4   4  -4   33.48    2.95
   4   4  -4   41.99    6.16
   4   4  -4   26.05    4.05
  -4  -4   4   37.21    2.60
  -4  -4   4   24.94    3.18
  -4  -4   4   33.82   12.29
   3   4  -4   19.01    3.49
   3   4  -4   20.56    2.33
   3   4  -4   20.94    3.72
   3   4  -4   21.71    4.63
  -3  -4   4   23.81    4.14
  -3  -4   4   19.89    1.92
  -3  -4   4   23.39   10.64
   2   4  -4   77.84    7.19
   2   4  -4   72.97    5.77
   2   4  -4   59.06    6.51
   2   4  -4   74.73    4.38
  -2  -4   4   77.33    6.06
  -2  -4   4   80.90    4.20
  -2  -4   4   78.11   16.53
  -2  -4   4   74.94    4.10
   1   4  -4   -0.47    1.57
   1   4  -4    0.47    1.44
   1   4  -4    0.35    0.88
   1   4  -4    3.03    2.97
   1   4  -4    1.33    2.91
  -1  -4   4   -0.81    1.73
  -1  -4   4    0.74    0.64
  -1  -4   4    2.44    5.81
  -1  -4   4    0.50    0.52
   0   4  -4  111.09   10.33
   0   4  -4  143.79    9.94
   0   4  -4  127.99    8.30
   0   4  -4  148.73    7.19
   0  -4   4  140.40    6.66
   0  -4   4  121.28   11.06
   0  -4   4  128.09   18.50
   0  -4   4  143.05    8.11
   0  -4   4  137.78    6.64
  -1   4  -4   17.07    2.00
  -1   4  -4   12.55    2.38
  -1   4  -4   11.13    4.83
  -1   4  -4   20.90    3.08
  -1   4  -4   12.61    4.13
   1  -4   4   14.45    2.29
   1  -4   4   14.82    8.13
   1  -4   4   13.20    3.74
   1  -4   4   13.41    1.10
   1  -4   4   14.62    1.11
  -2   4  -4   79.58    6.46
  -2   4  -4   80.04    5.81
  -2   4  -4   81.50    4.79
  -2   4  -4   70.69   11.13
  -2   4  -4   89.98    7.50
   2  -4   4   73.12    4.04
   2  -4   4   78.26    5.24
   2  -4   4   70.18   12.99
   2  -4   4   77.08    4.01
   2  -4   4   87.81    8.89
  -3   4  -4    1.12    1.87
  -3   4  -4    4.36    3.15
  -3   4  -4    2.65    1.26
  -3   4  -4    3.05    1.28
  -3   4  -4    1.73    4.19
   3  -4   4    2.79    0.98
   3  -4   4   -0.04    7.87
   3  -4   4    1.22    1.56
   3  -4   4    2.04    0.74
   3  -4   4    2.02    0.68
   3  -4   4    4.29    4.80
   3  -4   4    3.26    4.20
  -4   4  -4   35.46    3.01
  -4   4  -4   36.84    3.33
  -4   4  -4   48.48    8.63
  -4   4  -4   32.87    5.39
   4  -4   4   55.33   12.83
   4  -4   4   24.17    8.00
   4  -4   4   50.67    8.61
   4  -4   4   33.87    2.32
  -5   4  -4    7.74    3.97
  -5   4  -4   30.18    8.22
  -5   4  -4   20.82    2.58
   5  -4   4   16.82    1.73
   5  -4   4   17.70    9.60
   5  -4   4   20.43    6.91
  -6   4  -4   27.56    5.56
  -6   4  -4   25.48    2.72
  -6   4  -4   50.16   10.47
   6  -4   4   36.16    9.09
   6  -4   4   32.76   12.28
  -7   4  -4   13.09    7.94
  -7   4  -4    7.50    4.47
  -7   4  -4    6.18    1.86
   7  -4   4    4.29    6.33
   7  -4   4   13.35   11.09
   7   3  -4   14.14    3.51
   7   3  -4   13.46    2.60
  -7  -3   4   14.80    2.44
   6   3  -4    4.20    3.75
   6   3  -4    0.13    1.85
   6   3  -4    0.58    1.45
  -6  -3   4   -3.15    1.40
  -6  -3   4   -0.95    1.17
  -6  -3   4    1.84    6.54
   5   3  -4   50.88    3.93
   5   3  -4   51.69    7.34
   5   3  -4   46.53    5.63
  -5  -3   4   56.48    3.76
  -5  -3   4   53.75    6.24
  -5  -3   4   61.52    5.22
  -5  -3   4   65.62   15.35
   4   3  -4    2.43    1.24
   4   3  -4    8.54    3.66
   4   3  -4    4.95    2.11
   4   3  -4    9.49    2.88
  -4  -3   4    4.39    1.26
  -4  -3   4    3.57    1.53
  -4  -3   4    4.73    6.76
   3   3  -4   97.62    5.59
   3   3  -4  102.14    7.03
   3   3  -4   83.03    8.16
   3   3  -4  107.93    8.11
   3   3  -4  104.29    8.44
  -3  -3   4   90.66    7.86
  -3  -3   4  106.60    5.43
  -3  -3   4  106.43    7.38
   2   3  -4    5.37    1.77
   2   3  -4    4.72    1.17
   2   3  -4    4.77    2.80
   2   3  -4    7.25    2.14
   2   3  -4    4.80    1.44
  -2  -3   4    5.38    0.91
  -2  -3   4    2.85    1.24
  -2  -3   4    4.54    1.01
   1   3  -4  120.83    8.30
   1   3  -4  127.22    8.78
   1   3  -4  100.00    6.99
   1   3  -4  111.82    6.02
  -1  -3   4  104.80    7.37
  -1  -3   4  112.77    5.83
  -1  -3   4  103.04    5.75
   0   3  -4   32.85    3.18
   0   3  -4   32.39    2.10
   0   3  -4   33.37    2.42
   0   3  -4   33.27    3.90
   0   3  -4   41.25    5.32
   0   3  -4   28.78    3.37
   0   3  -4   21.06    5.81
   0  -3   4   32.05    2.04
   0  -3   4   38.13    3.95
   0  -3   4   31.90    2.03
   0  -3   4   37.36    3.87
  -1   3  -4  132.48    6.47
  -1   3  -4  101.65   14.63
  -1   3  -4  135.31    6.92
  -1   3  -4  130.74    7.87
  -1   3  -4  138.14    9.55
  -1   3  -4  129.65    9.81
   1  -3   4  133.02    7.63
   1  -3   4  127.38    6.41
   1  -3   4  125.43    6.48
  -2   3  -4   18.42    5.46
  -2   3  -4   12.04    1.73
  -2   3  -4    9.94    3.26
  -2   3  -4   11.79    2.28
  -2   3  -4   12.76    1.99
   2  -3   4    8.14    2.01
   2  -3   4   14.39    6.49
   2  -3   4   12.06    1.19
   2  -3   4   11.87    1.32
   2  -3   4   23.65    7.85
   2  -3   4   17.35    4.06
  -3   3  -4   42.92    3.15
  -3   3  -4   55.31    8.12
  -3   3  -4   42.04    4.21
  -3   3  -4   45.76    3.84
  -3   3  -4   45.12    5.70
   3  -3   4   35.37    2.70
   3  -3   4   43.88    2.67
   3  -3   4   40.20    3.94
   3  -3   4   39.07    9.34
   3  -3   4   77.21   12.05
  -4   3  -4   44.90    4.49
  -4   3  -4   40.80    5.57
  -4   3  -4   44.50    3.29
  -4   3  -4   54.23    8.59
   4  -3   4   41.85    4.86
   4  -3   4   39.25    2.74
   4  -3   4   66.93    8.48
   4  -3   4   37.70    2.83
   4  -3   4   32.98    7.92
   4  -3   4   55.65   11.48
  -5   3  -4   22.09    4.97
  -5   3  -4   53.90    9.29
   5  -3   4   30.85    2.57
   5  -3   4   39.44    8.17
   5  -3   4   33.70   10.35
  -6   3  -4   25.83    2.83
  -6   3  -4   45.52    9.61
  -6   3  -4   24.08    5.50
   6  -3   4   24.90    2.42
   6  -3   4   32.69    8.37
   6  -3   4   22.97    9.20
  -7   3  -4   21.76    7.93
  -7   3  -4    9.82    4.60
  -7   3  -4    7.50    1.80
   7  -3   4    7.86    7.24
   7  -3   4    8.37    1.79
  -8   3  -4   19.14    5.76
  -8   3  -4   24.78    9.49
   7   2  -4    0.39    1.63
   7   2  -4   -0.05    1.99
  -7  -2   4    1.89    1.53
   6   2  -4   39.35    3.38
   6   2  -4   41.34    6.58
   6   2  -4   34.58    4.51
   6   2  -4   31.08    5.49
  -6  -2   4   33.04   10.72
  -6  -2   4   40.29    3.19
  -6  -2   4   29.95    3.97
   5   2  -4    4.74    3.41
   5   2  -4    2.88    1.87
   5   2  -4    2.91    2.45
   5   2  -4    3.57    1.46
  -5  -2   4    7.00    7.13
  -5  -2   4    2.84    1.33
  -5  -2   4    3.47    1.66
  -5  -2   4    8.15    3.06
   4   2  -4   65.31    6.37
   4   2  -4   78.55    7.19
   4   2  -4   75.93    4.58
   4   2  -4   67.72    6.04
   4   2  -4   62.40    6.44
  -4  -2   4   75.45    6.08
  -4  -2   4   73.01    4.24
  -4  -2   4   76.74    6.14
   3   2  -4   13.56    3.44
   3   2  -4    9.40    1.86
   3   2  -4   10.58    2.61
   3   2  -4    9.47    2.30
   3   2  -4   12.52    1.64
  -3  -2   4   10.86    1.34
  -3  -2   4   11.28    1.83
   2   2  -4   75.82    6.26
   2   2  -4   70.20    5.15
   2   2  -4   67.12    3.93
   2   2  -4   59.22    5.72
   2   2  -4   67.01    5.61
  -2  -2   4   71.40    5.40
  -2  -2   4   67.48    5.63
  -2  -2   4   64.20    3.76
  -2  -2   4   69.54    3.81
  -2  -2   4   69.63    5.59
   1   2  -4   88.50    5.90
   1   2  -4   92.40    4.80
   1   2  -4   82.79    4.59
   1   2  -4   80.94    6.96
   1   2  -4   94.87    7.02
   1   2  -4   94.81    6.88
  -1  -2   4   88.49    6.22
  -1  -2   4   79.66    6.90
  -1  -2   4   84.44    4.58
  -1  -2   4   92.25    4.63
  -1  -2   4   62.49    5.62
   0   2  -4  136.01    9.30
   0   2  -4  127.31    8.32
   0   2  -4  140.29   10.35
   0   2  -4  137.85   10.33
   0   2  -4  138.56    7.12
   0   2  -4  131.29    6.87
   0  -2   4  133.65    6.89
   0  -2   4  141.41    6.89
   0  -2   4  128.86    8.48
  -1   2  -4   40.56    2.80
  -1   2  -4   40.49    2.29
  -1   2  -4   41.61    3.59
  -1   2  -4   40.81    5.37
  -1   2  -4   38.16    3.59
  -1   2  -4   30.15    3.40
  -1   2  -4   37.17    6.39
   1  -2   4   40.09    2.32
   1  -2   4   45.77    3.80
   1  -2   4   35.89    2.41
   1  -2   4   40.60    4.80
  -2   2  -4   80.72    6.77
  -2   2  -4   86.77    5.59
  -2   2  -4   87.41    6.39
  -2   2  -4   80.41    4.29
  -2   2  -4   82.59    4.72
  -2   2  -4   80.32   10.38
   2  -2   4   81.97    4.34
   2  -2   4   74.42    4.43
   2  -2   4   76.42    5.48
  -3   2  -4  108.20    7.88
  -3   2  -4  102.16    7.26
  -3   2  -4   94.52    5.43
  -3   2  -4   96.08    6.46
   3  -2   4   87.82    5.19
   3  -2   4   94.08    6.50
   3  -2   4   94.05    5.12
  -4   2  -4   30.85    2.70
  -4   2  -4   28.73    3.91
  -4   2  -4   27.20    4.63
   4  -2   4   23.48    3.56
   4  -2   4   37.76    8.56
   4  -2   4   34.13    2.39
  -5   2  -4   76.94    8.12
   5  -2   4   68.14    4.36
   5  -2   4   87.95   11.50
  -6   2  -4   17.65    4.53
  -6   2  -4   21.58    6.95
  -6   2  -4    9.42    1.77
   6  -2   4   15.78    6.39
   6  -2   4    7.15    1.60
   6  -2   4    9.28    6.79
  -7   2  -4   33.19    8.58
  -7   2  -4   11.88    4.55
  -7   2  -4   13.79    2.25
   7  -2   4   16.99    7.06
   7  -2   4   15.11    2.25
  -8   2  -4    4.30    1.62
  -8   2  -4    0.82    4.04
  -8   2  -4    1.57    1.64
  -8   2  -4   -4.20    5.78
   8  -2   4   -1.50    6.41
   8  -2   4    1.85    1.68
   8   1  -4    0.13    2.00
  -8  -1   4    0.19    1.73
   7   1  -4   13.57    5.61
   7   1  -4   15.10    2.54
  -7  -1   4   13.60    2.84
  -7  -1   4   13.41    2.13
   6   1  -4    3.83    1.89
   6   1  -4    7.80    1.85
   6   1  -4    9.23    4.05
   6   1  -4    4.46    3.51
  -6  -1   4    4.66    1.47
  -6  -1   4    2.03    3.11
  -6  -1   4    4.19    1.82
   5   1  -4   59.97    7.33
   5   1  -4   61.40    4.10
   5   1  -4   56.35    7.03
   5   1  -4   55.86    5.44
  -5  -1   4   59.51    3.73
  -5  -1   4   63.58    6.10
  -5  -1   4   56.96    5.38
   4   1  -4    8.53    2.59
   4   1  -4    9.21    1.67
   4   1  -4    6.84    3.18
   4   1  -4    6.09    2.59
   4   1  -4    8.26    1.98
  -4  -1   4    8.79    1.38
  -4  -1   4   12.78    3.02
  -4  -1   4    8.09    2.90
  -4  -1   4    8.51    1.86
   3   1  -4   43.46    4.73
   3   1  -4   54.92    5.93
   3   1  -4   47.80    4.33
   3   1  -4   38.40    4.06
   3   1  -4   49.62    3.12
   3   1  -4   34.09    3.98
  -3  -1   4   53.33    4.91
  -3  -1   4   45.30    4.13
  -3  -1   4   46.61    4.28
  -3  -1   4   47.19    2.77
   2   1  -4   68.06    5.03
   2   1  -4   68.39    5.61
   2   1  -4   66.94    3.91
   2   1  -4   63.86    3.63
   2   1  -4   70.81    6.03
   2   1  -4   64.94    5.59
  -2  -1   4   63.69    5.47
  -2  -1   4   64.07    3.78
  -2  -1   4   63.90    3.66
  -2  -1   4   71.34    5.62
   1   1  -4  136.14    8.85
   1   1  -4  127.99    6.77
   1   1  -4  131.31    9.89
   1   1  -4  126.26   10.01
   1   1  -4  122.99    7.79
   1   1  -4  130.01    6.64
  -1  -1   4  132.32    8.05
  -1  -1   4  149.13   10.10
  -1  -1   4  132.97    6.66
  -1  -1   4  136.72    8.49
  -1  -1   4  123.14    6.68
  -1  -1   4  124.47    9.89
   0   1  -4   63.80    4.50
   0   1  -4   62.06    4.58
   0   1  -4   52.81    5.43
   0   1  -4   52.63    2.98
   0   1  -4   53.61    3.21
   0   1  -4   56.45    4.54
   0  -1   4   53.01    3.02
   0  -1   4   47.75    3.02
   0  -1   4   48.29    4.51
   0  -1   4   45.67    4.73
   0  -1   4   57.94    4.59
   0  -1   4   46.75    4.49
  -1   1  -4   99.18    5.21
  -1   1  -4  103.87    7.93
  -1   1  -4  105.72    6.45
  -1   1  -4  106.22    5.62
  -1   1  -4  107.32   11.79
  -1   1  -4  107.92    7.87
  -1   1  -4  118.32    7.90
   1  -1   4   94.96    7.08
   1  -1   4  100.20    5.28
   1  -1   4   90.15    7.78
   1  -1   4   95.55    5.40
   1  -1   4  112.52    6.61
  -2   1  -4  102.72    7.06
  -2   1  -4   96.46    5.17
  -2   1  -4   88.57    4.77
  -2   1  -4   92.86    7.19
  -2   1  -4   94.16    6.00
  -2   1  -4  110.07   11.32
   2  -1   4   84.22    7.01
   2  -1   4   94.20    6.06
   2  -1   4   82.93    6.67
   2  -1   4   88.22    4.82
   2  -1   4   82.31    4.91
  -3   1  -4   20.37    1.87
  -3   1  -4   16.20    3.51
  -3   1  -4   18.87    2.87
  -3   1  -4   30.21    5.24
   3  -1   4   18.03    2.86
   3  -1   4   16.75    1.53
   3  -1   4   11.19    3.12
   3  -1   4   16.73    1.98
   3  -1   4   18.77    1.75
  -4   1  -4  117.27    6.32
  -4   1  -4  118.35    7.68
  -4   1  -4  104.82    8.36
   4  -1   4  103.69    8.35
   4  -1   4  104.98    7.59
   4  -1   4  116.03    6.10
   4  -1   4  143.38   12.19
  -5   1  -4   12.50    3.28
  -5   1  -4   17.08    2.63
  -5   1  -4   12.05    3.83
   5  -1   4   13.55    3.18
   5  -1   4   19.57    6.11
   5  -1   4   11.17    1.66
   5  -1   4   11.99    1.70
  -6   1  -4   30.26    5.53
  -6   1  -4   26.01    2.59
   6  -1   4   29.63    2.63
  -7   1  -4    2.09    3.50
  -7   1  -4    1.66    5.22
  -7   1  -4   -0.21    1.28
   7  -1   4   -0.34    5.60
   7  -1   4    0.41    1.44
  -8   1  -4   12.28    2.20
  -8   1  -4   18.79    5.23
  -8   1  -4    6.34    1.98
  -8   1  -4   36.64    9.46
   8  -1   4   11.51    2.17
   8  -1   4   24.67    8.66
   8   0  -4    3.97    2.09
   8   0  -4  -10.39   11.41
  -8   0   4    9.14    2.09
   7   0  -4    9.44    5.13
   7   0  -4   10.06    2.42
  -7   0   4    4.98    4.00
  -7   0   4   10.69    2.77
  -7   0   4   10.78    2.00
   6   0  -4   31.06    3.58
   6   0  -4   32.18    6.70
   6   0  -4   35.09    3.33
  -6   0   4   35.48    2.97
  -6   0   4   32.25    4.14
  -6   0   4   34.13    5.36
   5   0  -4   11.19    4.11
   5   0  -4   15.48    2.29
   5   0  -4   11.14    3.80
   5   0  -4   14.83    2.41
   5   0  -4   27.03    4.80
  -5   0   4   18.16    3.83
  -5   0   4   13.92    2.62
  -5   0   4   15.84    1.98
  -5   0   4   20.95    4.16
   4   0  -4   33.35    5.75
   4   0  -4   43.00    4.05
   4   0  -4   40.01    3.11
   4   0  -4   49.60    6.01
  -4   0   4   45.26    5.59
  -4   0   4   41.78    2.77
  -4   0   4   42.75    4.87
  -4   0   4   46.54    4.31
   3   0  -4   94.27    5.48
   3   0  -4  104.58    7.84
   3   0  -4  106.52    7.81
   3   0  -4   99.88    6.69
   3   0  -4   83.60    8.86
  -3   0   4   97.51    7.32
  -3   0   4  101.55    5.31
  -3   0   4   99.31    6.69
  -3   0   4  110.43    8.06
   2   0  -4   78.02    5.89
   2   0  -4   74.08    6.76
   2   0  -4   65.18    5.01
   2   0  -4   60.88    5.87
   2   0  -4   73.27    4.11
   2   0  -4   78.50    6.23
   2   0  -4   68.03    3.85
  -2   0   4   71.71    4.06
  -2   0   4   80.26    5.99
  -2   0   4   82.90    6.68
  -2   0   4   75.68    5.19
  -2   0   4   76.11    5.96
  -2   0   4   71.30    3.90
   1   0  -4  245.67   17.73
   1   0  -4  268.22   17.26
   1   0  -4  248.33   11.85
   1   0  -4  241.53   11.66
   1   0  -4  245.92   13.56
   1   0  -4  227.91   12.66
  -1   0   4  253.49   13.54
  -1   0   4  236.14   11.78
  -1   0   4  247.48   12.88
  -1   0   4  225.37   17.63
  -1   0   4  217.12   17.21
  -1   0   4  223.78   17.93
  -1   0   4  240.23   11.67
   0   0  -4   79.71    6.24
   0   0  -4   83.78    4.46
   0   0  -4   80.46    5.51
   0   0  -4   74.53    6.33
   0   0  -4   91.59    6.36
   0   0  -4   80.63    8.93
   0   0  -4   79.34    4.26
   0   0   4   85.94    6.36
   0   0   4   84.25    5.51
   0   0   4   75.52    5.93
   0   0   4   77.42    4.36
   0   0   4   81.50    4.29
  -1   0  -4  154.70   10.62
  -1   0  -4  147.84    7.43
  -1   0  -4  151.00    9.25
  -1   0  -4  165.13   10.86
  -1   0  -4  143.83    8.18
  -1   0  -4  143.54    7.17
   1   0   4  143.77    8.35
   1   0   4  149.69   10.59
   1   0   4  145.26    7.24
   1   0   4  122.41   14.91
   1   0   4  127.27    8.75
   1   0   4  132.50    7.31
  -2   0  -4   19.08    2.68
  -2   0  -4   18.61    2.11
  -2   0  -4   19.77    1.78
  -2   0  -4   21.25    1.46
  -2   0  -4   23.94    3.79
   2   0   4   19.01    3.99
   2   0   4   19.81    1.67
   2   0   4   23.21    2.23
   2   0   4   17.88    2.81
   2   0   4   21.92    1.64
   2   0   4   19.68    3.60
  -3   0  -4  259.54   14.56
  -3   0  -4  259.33   12.63
  -3   0  -4  257.08   13.71
   3   0   4  251.23   13.81
   3   0   4  256.55   14.65
   3   0   4  242.12   12.57
   3   0   4  255.96   17.94
   3   0   4  244.78   12.45
  -4   0  -4   20.07    3.34
  -4   0  -4   15.96    3.60
   4   0   4   17.90    1.91
   4   0   4   18.53    3.98
   4   0   4   18.91    2.02
   4   0   4   32.99    5.33
   4   0   4   16.42    3.11
  -5   0  -4   93.01    5.53
  -5   0  -4  101.07    8.16
  -5   0  -4   98.66    7.31
  -5   0  -4   90.01   10.16
   5   0   4   95.41    7.48
   5   0   4   97.42    7.25
   5   0   4  124.27    9.96
   5   0   4   89.53    5.51
  -6   0  -4    2.67    4.67
  -6   0  -4   -1.25    1.12
  -6   0  -4   -0.22    2.81
   6   0   4    0.17    2.26
   6   0   4   -0.85    1.04
  -7   0  -4   28.59    2.90
  -7   0  -4   28.62    5.88
   7   0   4   31.78    3.34
   7   0   4   50.94    9.61
  -8   0  -4    0.69    1.37
   8   0   4    1.19    1.66
   8   0   4    7.28    6.82
   8  -1  -4    8.76    2.37
   8  -1  -4    8.71    6.51
   8  -1  -4    5.09   11.98
  -8   1   4    5.64    2.69
  -8   1   4    9.09    2.03
   7  -1  -4   10.07   11.29
   7  -1  -4   15.36    2.67
   7  -1  -4   10.09    6.01
  -7   1   4   14.65    2.15
  -7   1   4   12.43    2.93
  -7   1   4   14.35    4.81
   6  -1  -4   13.43    5.54
   6  -1  -4   17.36    2.38
  -6   1   4   13.12    3.89
  -6   1   4   17.64    2.14
  -6   1   4   18.83    3.34
   5  -1  -4   26.49    6.12
   5  -1  -4   27.28    2.82
   5  -1  -4   22.58    4.30
   5  -1  -4   30.33    5.14
   5  -1  -4   26.94    2.53
  -5   1   4   21.42    3.46
  -5   1   4   29.13    4.39
  -5   1   4   24.75    2.20
   4  -1  -4   56.67    3.75
   4  -1  -4   43.61    7.32
   4  -1  -4   61.29    4.86
   4  -1  -4   52.85    6.26
  -4   1   4   59.66    3.50
  -4   1   4   57.15    5.43
  -4   1   4   56.91    5.59
  -4   1   4   58.37    5.23
   3  -1  -4   31.42    4.36
   3  -1  -4   32.73    5.42
   3  -1  -4   34.98    2.35
   3  -1  -4   35.32    3.07
   3  -1  -4   29.43    1.98
  -3   1   4   34.24    4.44
  -3   1   4   34.33    3.47
  -3   1   4   35.42    3.85
  -3   1   4   23.39    2.94
  -3   1   4   31.33    2.07
   2  -1  -4  270.17   13.76
   2  -1  -4  280.25   15.63
   2  -1  -4  286.99   14.01
   2  -1  -4  284.21   21.82
   2  -1  -4  321.55   20.40
   2  -1  -4  270.36   14.77
  -2   1   4  293.55   21.09
  -2   1   4  262.14   20.34
  -2   1   4  287.61   13.81
  -2   1   4  271.66   13.98
  -2   1   4  291.62   21.77
  -2   1   4  299.09   15.74
  -2   1   4  295.79   14.94
   1  -1  -4   42.11    3.52
   1  -1  -4   53.40    3.99
   1  -1  -4   47.66    2.85
   1  -1  -4   39.85    3.96
   1  -1  -4   44.86    2.52
  -1   1   4   45.00    2.78
  -1   1   4   45.16    3.80
  -1   1   4   50.04    4.03
  -1   1   4   47.46    3.92
  -1   1   4   47.12    2.59
  -1   1   4   43.74    4.87
  -1   1   4   41.09    5.40
   0  -1  -4  167.12    8.66
   0  -1  -4  171.02    9.73
   0  -1  -4  193.33   12.82
   0  -1  -4  183.78   13.16
   0  -1  -4  178.47    8.82
   0  -1  -4  167.14   10.21
   0   1   4  163.53   13.08
   0   1   4  201.97   12.82
   0   1   4  176.21   17.45
   0   1   4  172.81    9.75
   0   1   4  175.09    8.82
   0   1   4  168.05   10.35
   0   1   4  167.94    8.68
  -1  -1  -4    0.40    1.60
  -1  -1  -4   -1.34    1.03
  -1  -1  -4   -0.77    0.53
  -1  -1  -4    0.39    0.41
  -1  -1  -4    0.42    0.63
  -1  -1  -4    0.44    1.87
   1   1   4    0.55    0.50
   1   1   4    0.36    0.63
   1   1   4    1.13    1.35
   1   1   4    0.46    0.75
   1   1   4   -0.68    1.79
   1   1   4    0.92    0.59
   1   1   4    1.17    1.43
  -2  -1  -4  221.22   10.78
  -2  -1  -4  214.11   10.59
  -2  -1  -4  242.88   15.91
  -2  -1  -4  202.21   12.26
  -2  -1  -4  229.27   11.70
   2   1   4  211.66   10.66
   2   1   4  215.62   15.50
   2   1   4  199.43   12.29
   2   1   4  215.38   11.80
   2   1   4  206.14   10.75
  -3  -1  -4    1.48    1.57
  -3  -1  -4    4.25    2.86
  -3  -1  -4    0.49    1.80
  -3  -1  -4    1.40    0.78
  -3  -1  -4    6.09    3.21
  -3  -1  -4    3.35    0.76
  -3  -1  -4    2.04    0.90
   3   1   4    2.93    0.89
   3   1   4    4.18    1.96
   3   1   4    1.41    0.88
   3   1   4    0.19    2.36
   3   1   4    3.03    2.40
  -4  -1  -4  166.29   10.49
  -4  -1  -4  155.65    8.32
  -4  -1  -4  178.15   10.01
   4   1   4  153.41    8.34
   4   1   4  163.01   10.07
   4   1   4  168.17   10.82
  -5  -1  -4    1.95    2.66
  -5  -1  -4    2.08    1.02
  -5  -1  -4    1.29    2.29
  -5  -1  -4    0.67    1.99
  -5  -1  -4    8.04    4.41
   5   1   4    3.73    2.35
   5   1   4    0.73    3.20
   5   1   4    1.64    1.05
  -6  -1  -4   34.83    2.90
  -6  -1  -4   35.94    5.61
   6   1   4   30.20    5.26
   6   1   4   29.86    2.95
  -7  -1  -4   -0.98    3.17
  -7  -1  -4    5.84    1.67
  -7  -1  -4    3.46    1.32
   7   1   4    4.97    1.61
  -8  -1  -4   16.24    2.38
   8   1   4   16.49    2.65
   8   1   4   31.14    8.96
   8  -2  -4   -0.11   12.26
   8  -2  -4    0.29    2.01
   8  -2  -4    0.20    6.40
  -8   2   4   -1.22    2.11
  -8   2   4    1.89    1.85
  -8   2   4   -3.40    3.84
   7  -2  -4    6.76   11.33
   7  -2  -4   13.90    6.64
   7  -2  -4   13.71    2.45
  -7   2   4   16.18    4.32
  -7   2   4   15.91    2.20
  -7   2   4   13.94    3.40
   6  -2  -4    9.64    5.89
   6  -2  -4    8.32    1.92
   6  -2  -4   18.29   11.71
  -6   2   4    7.28    3.50
  -6   2   4    7.59    2.54
  -6   2   4    9.26    1.65
   5  -2  -4   31.16    7.16
   5  -2  -4   30.79   12.28
   5  -2  -4   30.88    2.81
  -5   2   4   36.66    4.87
  -5   2   4   34.81    2.60
  -5   2   4   29.61    4.08
   4  -2  -4    9.67    3.73
   4  -2  -4    3.57    3.74
   4  -2  -4    3.92    1.23
   4  -2  -4    2.37    1.53
   4  -2  -4    4.08    2.81
  -4   2   4    6.22    2.59
  -4   2   4    3.10    2.47
  -4   2   4    2.26    1.04
  -4   2   4    2.55    1.60
  -4   2   4    4.02    0.95
   3  -2  -4  207.34   12.06
   3  -2  -4  194.34   17.12
   3  -2  -4  199.61   10.01
   3  -2  -4  214.59   10.26
  -3   2   4  222.39   10.10
  -3   2   4  204.56   11.32
  -3   2   4  183.86   14.67
  -3   2   4  209.44   12.14
  -3   2   4  196.25   15.52
   2  -2  -4    2.76    1.33
   2  -2  -4    1.69    0.96
   2  -2  -4    3.32    0.88
   2  -2  -4    3.26    0.60
   2  -2  -4    2.69    2.13
   2  -2  -4    9.99    3.63
   2  -2  -4    5.90    3.33
  -2   2   4    4.57    1.46
  -2   2   4    5.29    1.81
  -2   2   4    3.86    1.13
  -2   2   4    3.27    0.68
  -2   2   4    2.40    0.77
  -2   2   4    4.93    2.65
  -2   2   4    1.30    1.93
   1  -2  -4  182.41    9.72
   1  -2  -4  181.25    8.93
   1  -2  -4  184.27    9.16
   1  -2  -4  182.48   10.58
  -1   2   4  190.85   13.89
  -1   2   4  171.68    9.19
  -1   2   4  164.58   15.17
  -1   2   4  183.80   10.78
  -1   2   4  204.86   13.38
  -1   2   4  185.91    9.00
  -1   2   4  194.75   10.06
   0  -2  -4    1.45    0.75
   0  -2  -4    1.92    0.64
   0  -2  -4    5.68    3.13
   0  -2  -4    0.77    1.77
   0  -2  -4    2.32    1.54
   0  -2  -4    1.17    0.45
   0   2   4    3.16    1.31
   0   2   4    1.69    0.59
   0   2   4    1.42    0.63
   0   2   4    1.39    1.45
   0   2   4    1.38    0.80
   0   2   4    1.53    0.83
   0   2   4    1.24    1.86
  -1  -2  -4  206.14   11.68
  -1  -2  -4  216.66   15.86
  -1  -2  -4  218.35   10.48
  -1  -2  -4  221.61   10.56
  -1  -2  -4  213.89   11.37
   1   2   4  220.18   11.49
   1   2   4  220.26   10.63
   1   2   4  200.87   11.91
   1   2   4  218.64   10.54
   1   2   4  216.99   15.85
  -2  -2  -4   15.46    3.63
  -2  -2  -4    7.40    0.89
  -2  -2  -4    3.49    1.54
  -2  -2  -4   14.23    4.18
  -2  -2  -4    5.92    1.06
   2   2   4    6.63    1.94
   2   2   4    5.54    2.41
   2   2   4    4.85    0.89
   2   2   4   12.73    3.26
   2   2   4    6.11    1.07
   2   2   4    5.53    1.16
  -3  -2  -4  232.37   12.69
  -3  -2  -4  260.94   16.97
  -3  -2  -4  235.75   11.46
  -3  -2  -4  225.02   13.15
  -3  -2  -4  229.28   11.49
   3   2   4  218.50   11.51
   3   2   4  216.96   13.29
   3   2   4  230.15   12.89
  -4  -2  -4    3.51    1.02
  -4  -2  -4    9.74    3.96
  -4  -2  -4    4.90    0.92
  -4  -2  -4    5.56    3.24
  -4  -2  -4    6.62    2.60
  -4  -2  -4    5.92    2.10
   4   2   4    3.81    1.02
   4   2   4    3.30    2.66
   4   2   4    5.57    2.32
  -5  -2  -4   49.58    5.80
  -5  -2  -4   30.07    6.13
  -5  -2  -4   42.40    2.81
  -5  -2  -4   32.57    3.10
   5   2   4   41.63    5.82
   5   2   4   33.16    4.90
   5   2   4   38.39    2.80
  -6  -2  -4    0.28    2.81
  -6  -2  -4    4.64    1.38
   6   2   4    2.57    2.86
   6   2   4    5.71    1.64
  -7  -2  -4   36.36    3.15
   7   2   4   38.14    6.13
   7   2   4   33.13    3.16
  -8  -2  -4    4.22    1.60
   8   2   4    6.87    2.09
   9   2   4   15.93    7.76
   8  -3  -4   15.90   15.03
   8  -3  -4   24.47    9.54
  -8   3   4   11.19    5.01
  -8   3   4    9.46    3.51
   7  -3  -4    6.18    6.82
   7  -3  -4    1.27    1.66
   7  -3  -4    8.71   12.06
  -7   3   4    3.71    2.56
  -7   3   4    2.46    1.39
  -7   3   4   -2.32    3.55
   6  -3  -4   19.31    7.32
   6  -3  -4   11.42   11.81
  -6   3   4   21.59    2.31
  -6   3   4   16.52    4.47
  -6   3   4   15.27    3.45
   5  -3  -4   -0.29    4.81
   5  -3  -4   -0.56    1.12
   5  -3  -4    1.43    1.94
   5  -3  -4    1.14    8.72
  -5   3   4    0.09    0.87
  -5   3   4    0.83    1.65
  -5   3   4    0.67    2.45
   4  -3  -4  102.63    7.65
   4  -3  -4  100.20    5.39
   4  -3  -4  112.60   18.04
   4  -3  -4   88.13   11.12
  -4   3   4  101.49    5.26
  -4   3   4  112.24    7.25
  -4   3   4   79.64    8.18
  -4   3   4  102.64    7.50
   3  -3  -4    0.02    3.63
   3  -3  -4    0.05    2.33
   3  -3  -4   -0.01    6.21
   3  -3  -4   -2.63    1.56
   3  -3  -4    0.00    0.72
  -3   3   4    1.03    1.67
  -3   3   4    0.32    0.58
  -3   3   4   -0.62    0.75
  -3   3   4    0.82    1.64
  -3   3   4   -0.73    1.07
   2  -3  -4  147.36   13.63
   2  -3  -4  142.80    7.41
   2  -3  -4  152.22    8.99
   2  -3  -4  142.88    7.25
  -2   3   4  151.13    7.36
  -2   3   4  143.39    7.56
  -2   3   4  148.11    8.33
  -2   3   4  158.91   10.92
  -2   3   4  159.68    9.09
   1  -3  -4    0.03    0.26
   1  -3  -4   -0.07    1.70
   1  -3  -4    1.54    4.07
   1  -3  -4    0.37    0.41
   1  -3  -4    0.69    2.58
   1  -3  -4    0.18    4.49
   1  -3  -4   -0.32    0.83
   1  -3  -4    0.14    0.66
  -1   3   4    0.11    2.01
  -1   3   4    0.41    0.79
  -1   3   4    0.63    0.98
  -1   3   4    1.04    2.66
  -1   3   4    0.20    0.41
  -1   3   4   -0.12    0.62
   0  -3  -4  125.96    7.11
   0  -3  -4  162.33   13.62
   0  -3  -4  121.12    5.96
   0  -3  -4  113.51    6.64
   0  -3  -4  128.84    6.03
   0   3   4  129.10    7.17
   0   3   4  124.32   11.59
   0   3   4  121.03    6.25
   0   3   4  124.31    6.16
   0   3   4  121.72    7.80
   0   3   4  124.20    9.50
  -1  -3  -4    9.72    4.60
  -1  -3  -4   17.63    6.20
  -1  -3  -4    8.66    3.82
  -1  -3  -4    3.85    1.46
  -1  -3  -4    5.89    1.75
  -1  -3  -4    5.75    0.72
  -1  -3  -4    5.97    0.68
   1   3   4    4.93    1.55
   1   3   4    7.19    0.88
   1   3   4    8.56    0.97
   1   3   4    7.21    1.25
   1   3   4   19.76    4.90
   1   3   4   12.75    2.93
   1   3   4    3.58    1.95
  -2  -3  -4  282.31   15.27
  -2  -3  -4  301.54   14.15
  -2  -3  -4  288.56   21.60
  -2  -3  -4  293.72   15.07
   2   3   4  293.80   14.32
   2   3   4  295.40   14.25
   2   3   4  287.31   15.25
   2   3   4  307.46   15.89
  -3  -3  -4   11.31    1.27
  -3  -3  -4   15.75    4.96
  -3  -3  -4   34.64    7.73
  -3  -3  -4   13.58    1.20
  -3  -3  -4   13.99    2.48
  -3  -3  -4   13.03    1.24
   3   3   4   11.88    2.63
   3   3   4   12.93    1.32
   3   3   4   17.17    3.27
  -4  -3  -4   66.23    5.04
  -4  -3  -4   70.73    5.68
  -4  -3  -4   63.12    9.28
  -4  -3  -4   71.69    3.85
   4   3   4   68.43    5.68
   4   3   4   62.82    3.94
   4   3   4   67.16    6.14
  -5  -3  -4   27.49    4.31
  -5  -3  -4   23.44    2.08
  -5  -3  -4   23.15    2.09
  -5  -3  -4   21.53    6.28
   5   3   4   17.75    3.93
   5   3   4   22.52    4.69
   5   3   4   22.06    2.20
  -6  -3  -4   16.15    1.89
  -6  -3  -4   32.70    5.25
   6   3   4   27.35    2.50
   6   3   4   26.85    4.92
  -7  -3  -4   12.80    1.97
   7   3   4    9.33    2.21
   7   3   4   16.14    2.32
   7   3   4   20.99    4.88
  -8  -3  -4   11.06    1.97
   8   3   4   10.33    2.17
   7  -4  -4    9.41   12.79
   7  -4  -4    8.08    7.62
  -7   4   4   11.38    2.04
  -7   4   4    7.80    3.15
  -7   4   4    9.49    4.60
   6  -4  -4   -2.51    5.27
   6  -4  -4   -8.95    9.90
  -6   4   4    0.48    2.12
  -6   4   4    0.50    1.12
  -6   4   4    0.78    3.23
   5  -4  -4   51.75   10.51
   5  -4  -4   57.72   16.20
   5  -4  -4   47.00    3.14
  -5   4   4   43.32    5.29
  -5   4   4   54.56    5.41
  -5   4   4   52.09    3.27
   4  -4  -4    9.24    1.22
   4  -4  -4   11.61    5.78
   4  -4  -4   12.97    9.96
   4  -4  -4   15.06    3.19
   4  -4  -4    9.65    3.78
  -4   4   4   11.29    3.03
  -4   4   4   10.85    1.36
  -4   4   4    8.51    2.80
  -4   4   4    7.12    2.38
   3  -4  -4   85.81    4.58
   3  -4  -4   92.13    4.65
   3  -4  -4   93.90   11.21
   3  -4  -4  107.75   11.82
   3  -4  -4  102.52   16.99
   3  -4  -4   89.95    6.51
  -3   4   4   89.35    6.67
  -3   4   4   97.41    4.92
  -3   4   4  102.64    6.32
   2  -4  -4    5.16    5.05
   2  -4  -4    6.72    3.45
   2  -4  -4    1.12    3.59
   2  -4  -4    2.91    1.57
   2  -4  -4    2.27    5.99
  -2   4   4    2.68    0.57
  -2   4   4    0.46    1.15
  -2   4   4    3.76    1.48
  -2   4   4    2.48    0.95
  -2   4   4    2.78    1.62
  -2   4   4    3.28    1.89
  -2   4   4    2.37    0.77
   1  -4  -4   95.74    5.30
   1  -4  -4  112.01   13.29
  -1   4   4  100.72    4.95
  -1   4   4   99.70    6.62
  -1   4   4   94.44    5.16
  -1   4   4  111.81    5.96
   0  -4  -4   22.68    7.17
   0  -4  -4   19.16    1.33
   0  -4  -4   43.33    9.09
   0  -4  -4   30.65    6.42
   0  -4  -4   22.11    1.50
   0   4   4   19.72    1.41
   0   4   4   20.95    2.39
   0   4   4   20.07    2.37
   0   4   4   18.81    1.30
   0   4   4   19.87    2.90
  -1  -4  -4  415.86   37.10
  -1  -4  -4  345.60   28.38
  -1  -4  -4  360.06   17.88
   1   4   4  367.45   26.55
   1   4   4  347.27   18.61
   1   4   4  353.53   18.22
   1   4   4  364.44   17.54
   1   4   4  371.00   17.49
  -2  -4  -4  121.46    5.96
  -2  -4  -4  117.08    5.90
  -2  -4  -4  128.29   12.00
  -2  -4  -4  125.75    7.07
  -2  -4  -4  118.85   14.59
   2   4   4  121.77    7.24
   2   4   4  126.46    7.77
   2   4   4  120.82    9.02
   2   4   4  120.17    6.21
   2   4   4  119.16    6.14
  -3  -4  -4   60.92    3.38
  -3  -4  -4   61.59    3.37
  -3  -4  -4   69.53    4.92
  -3  -4  -4   58.12    9.64
   3   4   4   62.30    4.91
   3   4   4   70.49    5.67
   3   4   4   62.33    3.60
  -4  -4  -4   43.61    2.69
  -4  -4  -4   38.56    7.83
  -4  -4  -4   43.03    2.65
  -4  -4  -4   48.93    5.05
   4   4   4   39.93    2.90
   4   4   4   49.74    5.41
   4   4   4   43.02    5.41
  -5  -4  -4   33.05    8.90
  -5  -4  -4   15.23    1.72
  -5  -4  -4   15.95    5.85
   5   4   4   15.46    2.08
   5   4   4   12.49    3.73
   5   4   4   16.64    4.15
  -6  -4  -4   45.20   10.11
  -6  -4  -4   22.91    2.29
   6   4   4   24.40    2.81
   6   4   4   26.34    4.93
  -7  -4  -4   15.69    2.12
   7   4   4   12.79    2.16
   7   4   4    9.53    2.37
   7   4   4   11.36    4.55
  -8  -4  -4   12.58    2.13
   8   4   4   10.30    2.23
   7  -5  -4    6.47   13.54
  -7   5   4    1.63    4.06
  -7   5   4   -1.87    1.24
   6  -5  -4    0.20   11.96
   6  -5  -4   12.80    7.94
  -6   5   4   19.61    2.23
  -6   5   4   14.99    3.56
  -6   5   4   13.05    4.04
   5  -5  -4    9.60    7.29
   5  -5  -4   -7.83    9.78
  -5   5   4    8.14    1.37
  -5   5   4    6.73    3.07
  -5   5   4    4.93    2.46
   4  -5  -4   61.90   17.17
   4  -5  -4   48.41    8.75
   4  -5  -4   77.89   12.16
  -4   5   4   66.74    5.80
  -4   5   4   67.99    5.57
  -4   5   4   69.21    3.74
   3  -5  -4   11.87    4.99
   3  -5  -4   10.85    9.49
   3  -5  -4   10.31    5.85
   3  -5  -4   33.05    8.95
  -3   5   4   11.31    2.60
  -3   5   4   12.71    2.99
  -3   5   4    9.37    1.68
  -3   5   4   10.16    1.15
  -3   5   4   10.50    2.33
  -3   5   4    5.09    2.05
   2  -5  -4   48.27    8.46
   2  -5  -4   61.47   13.99
   2  -5  -4   64.04    9.87
  -2   5   4   53.48    2.78
  -2   5   4   59.11    3.91
  -2   5   4   49.61    2.98
  -2   5   4   50.87    4.25
  -2   5   4   41.20    6.67
   1  -5  -4   55.02   12.07
   1  -5  -4   46.47    8.01
  -1   5   4   45.88    3.41
  -1   5   4   46.88    2.42
  -1   5   4   44.25    2.66
  -1   5   4   48.50    3.98
   0  -5  -4   79.56   11.49
   0  -5  -4   83.17   14.45
   0   5   4   86.91    4.95
   0   5   4   83.03    4.15
   0   5   4   81.14    5.54
   0   5   4   83.09    4.23
  -1  -5  -4   83.68   11.92
  -1  -5  -4  100.69   14.57
   1   5   4   81.41    4.18
   1   5   4   82.85    5.54
   1   5   4   84.07    4.14
   1   5   4   76.46    6.41
   1   5   4   74.23    4.90
  -2  -5  -4   43.49    9.49
  -2  -5  -4   39.56    2.99
  -2  -5  -4   53.07    9.59
  -2  -5  -4   56.82    9.89
   2   5   4   39.15    2.50
   2   5   4   39.08    4.29
   2   5   4   42.58    2.49
   2   5   4   44.34    3.53
   2   5   4   37.26    3.56
  -3  -5  -4   26.78    1.68
  -3  -5  -4   27.12    1.64
  -3  -5  -4   50.47    8.51
  -3  -5  -4   21.84    7.63
  -3  -5  -4   42.42   10.30
  -3  -5  -4   23.70    2.97
   3   5   4   29.03    2.05
   3   5   4   23.46    3.43
   3   5   4   29.42    4.18
  -4  -5  -4   15.07    1.35
  -4  -5  -4   10.59    5.90
  -4  -5  -4   13.11    2.70
  -4  -5  -4   26.80    8.61
  -4  -5  -4   13.58    1.35
   4   5   4   11.36    2.99
   4   5   4   13.58    1.70
   4   5   4   18.23    3.80
  -5  -5  -4   70.24   11.72
  -5  -5  -4   41.86    2.84
   5   5   4   41.82    3.22
   5   5   4   42.19    5.69
  -6  -5  -4   11.87    1.62
  -6  -5  -4   22.01    8.67
   6   5   4    4.86    2.14
   6   5   4    9.42    3.83
   6   5   4   10.64    2.02
  -7  -5  -4   22.83    2.51
   7   5   4   23.64    2.99
   7   5   4   25.92    5.49
  -8  -5  -4    1.17    1.38
   8   5   4    0.47    3.74
   8   5   4    1.80    1.82
   6  -6  -4    2.05    7.53
   6  -6  -4    2.53   13.87
  -6   6   4    5.74    3.68
  -6   6   4    5.18    2.97
   5  -6  -4   30.28    9.94
   5  -6  -4   23.81   15.23
  -5   6   4   27.47    4.37
  -5   6   4   18.40    3.84
   4  -6  -4   28.05    8.42
   4  -6  -4    8.83   12.65
  -4   6   4   21.21    1.81
  -4   6   4   20.67    3.44
   3  -6  -4   19.58    7.39
   3  -6  -4   17.84   11.90
   3  -6  -4   42.41   10.69
   3  -6  -4   13.31    5.85
  -3   6   4   15.48    2.80
  -3   6   4   11.68    2.81
  -3   6   4   13.23    2.53
  -3   6   4   17.68    1.40
  -3   6   4   19.36    4.40
   2  -6  -4   32.04   12.91
   2  -6  -4   56.85   11.85
   2  -6  -4   38.35    8.49
   2  -6  -4   24.72    7.46
  -2   6   4   24.36    1.49
  -2   6   4   13.78    2.95
  -2   6   4   24.01    1.70
  -2   6   4   20.89    5.33
  -2   6   4   21.09    2.74
   1  -6  -4   26.01    8.05
   1  -6  -4   52.58   11.49
   1  -6  -4   37.75   12.47
  -1   6   4   28.75    2.62
  -1   6   4   30.17    1.59
  -1   6   4   32.54    1.90
  -1   6   4   16.88    5.37
  -1   6   4   30.90    2.99
  -1   6   4   20.64    3.25
   0  -6  -4   79.75   15.50
   0  -6  -4   65.81   11.42
   0   6   4   67.31    3.42
   0   6   4   68.42    3.49
   0   6   4   68.92    4.06
   0   6   4   63.59    4.83
  -1  -6  -4   53.38   11.64
  -1  -6  -4   46.22   10.45
  -1  -6  -4   62.61   13.04
   1   6   4   46.91    3.94
   1   6   4   41.93    3.27
   1   6   4   38.42    3.94
   1   6   4   43.05    2.41
   1   6   4   47.08    2.49
  -2  -6  -4   59.35   10.96
  -2  -6  -4   63.05   13.48
  -2  -6  -4   39.97   10.24
   2   6   4   45.09    3.88
   2   6   4   47.88    4.52
   2   6   4   44.90    2.71
   2   6   4   46.64    3.93
  -3  -6  -4    9.76    6.31
  -3  -6  -4   16.54    7.44
  -3  -6  -4   11.32    7.74
   3   6   4   11.48    1.39
   3   6   4    9.77    3.13
   3   6   4   10.00    1.13
   3   6   4   13.41    2.72
  -4  -6  -4   37.92   10.78
  -4  -6  -4   81.30   15.90
  -4  -6  -4   46.68    2.66
   4   6   4   48.19    5.55
   4   6   4   53.12    6.23
   4   6   4   49.38    3.25
  -5  -6  -4    9.49    7.43
  -5  -6  -4    6.13    1.07
   5   6   4    7.36    3.26
   5   6   4    7.98    1.70
  -6  -6  -4   48.75   12.64
  -6  -6  -4   28.21    2.31
   6   6   4   28.56    2.83
   6   6   4   30.47    5.45
  -7  -6  -4   -0.18    1.12
   7   6   4    3.42    1.93
   7   6   4   -0.01    1.48
   7   6   4   -0.45    3.06
  -8  -6  -4    7.09    1.74
   8   6   4    7.82    4.50
   8   6   4    8.92    2.51
   6  -7  -4   -3.44   14.37
   5  -7  -4   12.07    8.36
   5  -7  -4   11.02   15.41
  -5   7   4    6.54    2.97
  -5   7   4   11.23    3.42
   4  -7  -4   17.09    8.01
   4  -7  -4    9.32   14.04
  -4   7   4    7.64    2.69
  -4   7   4   12.47    2.93
   3  -7  -4   30.15   10.17
   3  -7  -4    1.00   12.06
   3  -7  -4   23.66    8.35
  -3   7   4   11.58    2.35
  -3   7   4   13.29    2.52
  -3   7   4    8.43    2.58
  -3   7   4   12.39    4.57
   2  -7  -4   19.07    7.54
   2  -7  -4   26.58   13.51
   2  -7  -4   35.46   11.29
  -2   7   4   17.61    2.29
  -2   7   4    9.72    2.59
  -2   7   4   12.29    4.79
   1  -7  -4   69.88   16.91
   1  -7  -4   68.16   11.92
  -1   7   4   69.75    4.05
  -1   7   4   66.22    3.96
   0  -7  -4   25.46   10.01
   0  -7  -4   12.65    9.85
   0  -7  -4   19.93    7.60
   0   7   4   11.40    2.36
   0   7   4   14.24    1.00
   0   7   4   15.62    1.58
   0   7   4   17.10    2.26
  -1  -7  -4   48.44   11.85
  -1  -7  -4   56.10   13.25
  -1  -7  -4   77.30   15.76
   1   7   4   46.98    3.33
   1   7   4   45.18    3.99
   1   7   4   45.15    2.42
   1   7   4   35.19    4.05
  -2  -7  -4    1.73    6.87
  -2  -7  -4    0.30    7.72
  -2  -7  -4    3.22    5.32
   2   7   4    2.32    1.75
   2   7   4    3.78    0.81
   2   7   4    3.78    2.35
   2   7   4    2.04    1.06
  -3  -7  -4   86.10   14.54
  -3  -7  -4   71.36   16.08
   3   7   4   41.34    5.26
   3   7   4   45.18    4.47
   3   7   4   41.62    2.86
  -4  -7  -4    4.75    6.71
   4   7   4    2.39    2.40
   4   7   4    1.22    1.00
  -5  -7  -4   53.08   14.41
   5   7   4   39.32    3.21
   5   7   4   39.07    5.77
  -6  -7  -4   -2.28    6.46
   6   7   4    5.08    3.57
   6   7   4    0.85    1.36
   6   7   4    2.41    1.79
  -7  -7  -4   16.63   10.53
   7   7   4    9.21    2.74
   7   7   4    9.86    4.19
   7   7   4    8.81    2.09
   5  -8  -4   -6.60   14.27
   4  -8  -4   -1.41   14.23
   4  -8  -4    7.65    8.45
   4  -8  -4   20.84   11.19
  -4   8   4    9.01    3.00
  -4   8   4    8.84    2.62
   3  -8  -4    2.73    7.24
   3  -8  -4    8.89   14.24
   3  -8  -4    0.75    7.05
  -3   8   4    3.01    1.67
  -3   8   4    2.85    2.13
   2  -8  -4   32.03   15.53
   2  -8  -4   71.68   15.80
  -2   8   4   42.73    3.04
  -2   8   4   39.96    2.82
  -2   8   4   28.48    7.70
   1  -8  -4    7.92   11.53
   1  -8  -4    1.50    7.51
  -1   8   4    0.81    1.51
  -1   8   4    4.10    4.10
   0  -8  -4   53.89   15.47
   0  -8  -4   74.38   16.55
   0   8   4   30.61    3.86
  -1  -8  -4    0.38    8.18
  -1  -8  -4    2.87    9.77
   1   8   4   -0.41    1.65
   1   8   4    2.06    1.19
   1   8   4   -0.09    1.14
  -2  -8  -4   55.24   13.65
  -2  -8  -4   48.51   14.85
   2   8   4   33.85    4.15
   2   8   4   28.97    3.20
   2   8   4   31.42    3.49
  -3  -8  -4   -2.05    7.24
  -3  -8  -4   -5.58    8.09
   3   8   4    0.19    1.92
   3   8   4   -0.70    1.75
  -4  -8  -4   55.20   16.17
   4   8   4   36.15    4.92
   4   8   4   34.11    2.82
  -5  -8  -4   -3.83    7.02
   5   8   4    3.25    1.93
   5   8   4    3.69    3.16
   5   8   4    2.72    1.34
  -6  -8  -4   16.20   11.42
   6   8   4   14.62    4.65
   6   8   4   10.45    2.99
   6   8   4   11.95    2.10
  -7  -8  -4    9.91   10.06
   7   8   4    3.00    1.76
   4  -9  -4   -0.79    9.32
   4  -9  -4  -12.90   13.36
   3  -9  -4   32.10   12.71
   3  -9  -4   16.46   15.69
  -3   9   4   10.66    1.65
  -3   9   4   11.60    1.98
  -3   9   4    9.40    2.91
   2  -9  -4    1.28    7.80
   2  -9  -4   -1.82   12.60
  -2   9   4    1.97    1.91
   1  -9  -4   47.71   15.29
   1  -9  -4   41.38   16.19
  -1   9   4   12.62    2.78
  -1   9   4   15.36    2.98
  -1   9   4   17.16    6.45
   0  -9  -4   -4.61    8.46
   0  -9  -4   -6.81   11.24
   0   9   4    0.68    1.43
   0   9   4    1.53    4.03
   0   9   4    2.49    1.62
  -1  -9  -4   42.20   15.68
  -1  -9  -4   33.48   13.98
   1   9   4   17.97    2.09
   1   9   4   22.94    1.93
   1   9   4   11.35    3.09
   1   9   4   13.90    2.60
  -2  -9  -4    4.88   10.04
  -2  -9  -4    4.30    9.81
   2   9   4    4.75    1.91
   2   9   4    3.82    2.11
   2   9   4    6.61    2.58
  -3  -9  -4   32.06   14.11
   3   9   4   11.69    3.26
   3   9   4   19.32    3.35
  -4  -9  -4    6.23   10.39
   4   9   4    9.02    3.02
   4   9   4    3.17    2.09
  -5  -9  -4    2.14    9.46
   5   9   4    9.15    2.77
   5   9   4   14.52    4.20
  -6  -9  -4    8.34   11.42
   2 -10  -4   32.01   18.30
   2 -10  -4   28.33   14.25
   1 -10  -4   -0.33   10.36
   1 -10  -4    3.60   13.72
  -1  10   4    3.00    1.58
  -1  10   4   -0.36    1.64
   0 -10  -4   19.91   13.27
   0 -10  -4   26.51   15.80
   0  10   4    8.34    5.33
   0  10   4    7.96    2.53
   0  10   4    9.19    2.58
  -1 -10  -4    2.80   10.68
  -1 -10  -4    7.21   13.16
   1  10   4    6.71    2.34
   1  10   4    6.49    4.92
  -2 -10  -4   22.11   14.51
  -2 -10  -4   21.64   15.96
   2  10   4   14.05    2.84
   2  10   4   13.43    2.31
   2  10   4    6.67    2.61
  -3 -10  -4    1.68   11.76
   3  10   4    5.24    2.26
   3  10   4    4.64    2.37
  -4 -10  -4    8.65   12.92
  -1 -11  -4   11.61   16.25
  -1 -11  -4    1.22   12.60
   1  11   4   14.32    6.54
  -2 -11  -4    7.51   13.59
  -2 -11  -4   -7.48   15.00
  -2  -9   5   -4.33   11.28
   1   9  -5    4.64    3.25
  -1  -9   5    0.99   12.43
   0   9  -5    2.83    2.86
   0  -9   5    4.06   11.68
  -1   9  -5    0.27    2.62
   1  -9   5    6.33   12.04
   2  -9   5    4.02   10.76
   4   8  -5    1.55    2.04
  -4  -8   5    4.63   13.04
   3   8  -5    2.63    2.72
   3   8  -5    8.17    5.94
   3   8  -5    8.57    5.19
  -3  -8   5   -4.27   10.82
   2   8  -5   15.30    5.26
   2   8  -5   10.94    6.28
   2   8  -5   12.39    3.95
  -2  -8   5    4.58   13.08
   1   8  -5    4.78    3.06
   1   8  -5    7.08    6.14
   1   8  -5    2.89    4.37
  -1  -8   5   -1.33    9.82
   0   8  -5    7.91    3.17
   0   8  -5   10.36    6.53
   0   8  -5   12.64    5.36
   0  -8   5    7.92   12.57
  -1   8  -5    4.25    2.72
  -1   8  -5    2.40    4.22
  -1   8  -5    6.97    6.78
   1  -8   5    0.21    9.18
  -2   8  -5    9.39    3.03
  -2   8  -5   12.19    4.54
  -2   8  -5    8.22    7.26
   2  -8   5   11.49   10.56
  -3   8  -5   -3.25    6.13
   3  -8   5   -0.74    6.36
   3  -8   5   -0.85    7.62
   4  -8   5   21.45    8.87
   5   7  -5    2.96    2.10
   5   7  -5    2.10    2.92
   5   7  -5    4.40    5.01
  -5  -7   5    5.31   13.28
   4   7  -5    3.64    1.96
   4   7  -5    6.31    5.17
   4   7  -5    5.22    4.96
   4   7  -5    0.74    2.67
  -4  -7   5    1.94   10.14
   3   7  -5    8.12    5.81
   3   7  -5    3.05    4.69
   3   7  -5   13.75    2.37
   3   7  -5   12.92    3.65
  -3  -7   5   12.58   12.23
   2   7  -5   12.53    4.87
   2   7  -5    2.37    4.29
   2   7  -5    3.63    2.70
   2   7  -5    5.56    1.84
  -2  -7   5   -0.54    9.77
   1   7  -5   33.24    4.79
   1   7  -5   24.99    6.00
   1   7  -5   38.58    3.20
   1   7  -5   18.60    7.50
  -1  -7   5   21.91   13.42
   0   7  -5    3.89    5.07
   0   7  -5    4.75    1.77
   0   7  -5    4.96    2.54
   0   7  -5    4.52    4.57
   0  -7   5    2.60    9.60
  -1   7  -5   24.65    2.92
  -1   7  -5   28.33    6.01
  -1   7  -5   22.22    3.99
  -1   7  -5   17.32    7.64
   1  -7   5   10.58   10.67
   1  -7   5   14.80    5.75
  -2   7  -5    0.92    5.61
  -2   7  -5   -1.35    1.76
  -2   7  -5   -0.47    3.58
   2  -7   5    0.13    4.74
   2  -7   5   -2.70    7.10
  -3   7  -5   25.61    9.38
  -3   7  -5   19.05    4.74
   3  -7   5   14.71    9.09
   3  -7   5   28.32    8.29
  -4   7  -5    3.05    3.56
  -4   7  -5   -4.28    5.69
   4  -7   5   -0.04    6.23
   4  -7   5    3.22   14.22
   4  -7   5    1.16    6.01
  -5   7  -5   13.27    9.04
   5  -7   5   12.42   16.41
   5  -7   5   17.29    8.39
   6   6  -5    4.64    2.31
   6   6  -5   -0.08    4.88
   6   6  -5    2.14    3.12
  -6  -6   5    2.32   10.46
  -6  -6   5    4.71    1.66
   5   6  -5   10.99    5.12
   5   6  -5    2.66    2.69
   5   6  -5    3.56    2.00
  -5  -6   5    2.49   10.44
  -5  -6   5    3.28    1.42
   4   6  -5   14.50    3.84
   4   6  -5   26.17    6.10
   4   6  -5   16.59    2.53
  -4  -6   5   13.61   12.27
  -4  -6   5   19.32    2.04
   3   6  -5   -0.39    2.05
   3   6  -5    2.06    1.51
   3   6  -5    1.33    3.71
   3   6  -5    5.65    3.92
  -3  -6   5   -0.84    0.85
  -3  -6   5    5.10   10.39
   2   6  -5   29.65    9.02
   2   6  -5   43.42    5.59
   2   6  -5   58.11    7.74
   2   6  -5   54.85    3.82
  -2  -6   5   53.34    2.89
  -2  -6   5   43.60   16.35
   1   6  -5    2.43    3.54
   1   6  -5   -1.15    1.72
   1   6  -5    1.47    4.00
   1   6  -5    1.07    1.30
  -1  -6   5   -8.70    6.41
   0   6  -5   29.69    4.06
   0   6  -5   23.31    7.92
   0   6  -5   28.70    2.80
   0   6  -5   24.48    5.68
   0  -6   5   16.91   10.81
   0  -6   5   24.39    5.18
  -1   6  -5    2.12    4.18
  -1   6  -5   -0.85    1.40
  -1   6  -5    0.30    1.76
  -1   6  -5   -0.29    4.36
   1  -6   5    2.57    3.72
   1  -6   5   -2.07    6.88
  -2   6  -5   44.92   11.06
  -2   6  -5   44.35    3.71
  -2   6  -5   37.73    6.55
  -2   6  -5   47.63    4.90
   2  -6   5   28.11   11.92
   2  -6   5   39.81    8.03
  -3   6  -5    1.66    1.71
  -3   6  -5   -0.05    1.36
  -3   6  -5   -2.25    4.29
  -3   6  -5    1.16    3.51
   3  -6   5   -0.47   12.11
   3  -6   5   -1.02    5.85
   3  -6   5   -2.55    4.72
  -4   6  -5   36.57    3.29
  -4   6  -5   33.02    9.75
  -4   6  -5   28.11    5.60
   4  -6   5   51.30   16.65
   4  -6   5   19.50    9.15
   4  -6   5   32.46    8.76
  -5   6  -5   -4.90    5.30
  -5   6  -5    0.12    3.45
   5  -6   5   -4.05   11.50
   5  -6   5   -0.43    6.55
  -6   6  -5    2.84    7.56
   6  -6   5   19.83   15.88
   7   5  -5    7.85    3.62
  -7  -5   5    6.43    2.06
  -7  -5   5    6.66   10.22
   6   5  -5    0.37    1.67
   6   5  -5   -0.27    4.53
   6   5  -5    1.17    2.92
  -6  -5   5    4.77    9.25
  -6  -5   5    0.78    1.50
   5   5  -5   17.22    2.70
   5   5  -5   12.37    5.18
   5   5  -5   12.09    3.62
  -5  -5   5   15.82    2.18
  -5  -5   5    2.98    9.76
   4   5  -5    0.92    1.53
   4   5  -5    2.06    4.09
   4   5  -5   -0.42    2.03
  -4  -5   5   -1.46    8.55
  -4  -5   5   -1.35    0.95
   3   5  -5   49.61    7.17
   3   5  -5   40.62    5.35
   3   5  -5   50.75    3.73
  -3  -5   5   47.30    3.14
  -3  -5   5   38.43   14.45
   2   5  -5    0.75    1.27
   2   5  -5    0.18    1.94
   2   5  -5   -0.32    3.35
   2   5  -5   -1.92    3.47
  -2  -5   5   -3.17    7.44
  -2  -5   5   -0.46    0.82
   1   5  -5   44.48    5.16
   1   5  -5   45.32    3.28
   1   5  -5   36.41    4.90
   1   5  -5   27.45    7.90
   1   5  -5   49.60    6.84
  -1  -5   5   37.20   13.46
  -1  -5   5   46.95    5.07
  -1  -5   5   44.91    2.57
  -1  -5   5   43.39    2.60
   0   5  -5    0.34    3.47
   0   5  -5   -1.33    2.22
   0   5  -5    3.29    1.36
   0   5  -5    2.23    3.53
   0   5  -5    0.64    1.75
   0  -5   5    0.30    0.54
   0  -5   5   -0.28    2.50
   0  -5   5   -0.10    6.24
   0  -5   5    0.59    0.48
   0  -5   5   -0.94    1.66
  -1   5  -5   51.92    5.68
  -1   5  -5   62.17    4.26
  -1   5  -5   63.45    7.88
  -1   5  -5   55.71    5.68
  -1   5  -5   54.84   10.18
   1  -5   5   58.38    2.98
   1  -5   5   61.46    7.71
   1  -5   5   57.14    2.98
   1  -5   5   44.48   13.55
  -2   5  -5    6.94    1.93
  -2   5  -5   10.05    4.06
  -2   5  -5    5.14    4.99
  -2   5  -5    8.43    2.23
  -2   5  -5    7.43    2.65
   2  -5   5    7.22    0.67
   2  -5   5    8.63    4.44
   2  -5   5    3.55    7.18
  -3   5  -5   73.16    6.25
  -3   5  -5   65.40   12.15
  -3   5  -5   68.09    4.74
  -3   5  -5   64.55    7.85
   3  -5   5   77.16   10.48
  -4   5  -5    1.80    3.66
  -4   5  -5    5.55    1.73
  -4   5  -5    3.75    5.11
   4  -5   5    7.01   10.12
   4  -5   5    3.92    5.90
   4  -5   5    7.00    5.45
  -5   5  -5   13.62    2.31
  -5   5  -5   15.97    7.91
  -5   5  -5   12.86    4.55
   5  -5   5   30.33   13.97
   5  -5   5   13.53    6.78
  -6   5  -5   12.24    4.80
  -6   5  -5   17.70    7.96
   6  -5   5    4.87    7.41
   6  -5   5   18.75   13.06
  -7   5  -5   10.91    1.99
   7   4  -5   -1.58    2.74
   7   4  -5   -0.61    1.71
  -7  -4   5   -1.44    1.60
  -7  -4   5    6.27    9.92
   6   4  -5   12.90    2.59
   6   4  -5   15.00    5.59
   6   4  -5    5.35    2.90
  -6  -4   5   10.28    2.09
  -6  -4   5    7.78    9.59
   5   4  -5   -0.60    3.53
   5   4  -5    0.47    2.16
   5   4  -5    1.10    1.44
  -5  -4   5    1.06    1.37
  -5  -4   5   -4.38    6.65
  -5  -4   5    0.12    1.31
   4   4  -5   47.25    5.51
   4   4  -5   58.71    7.61
   4   4  -5   53.90    3.72
  -4  -4   5   44.92    3.19
  -4  -4   5   37.87   13.97
  -4  -4   5   40.51    4.50
   3   4  -5    2.23    2.76
   3   4  -5    7.34    1.63
   3   4  -5    7.95    4.05
   3   4  -5    7.16    2.50
  -3  -4   5    3.20    8.20
  -3  -4   5    5.82    1.27
  -3  -4   5    2.46    2.22
   2   4  -5   48.41    5.97
   2   4  -5   71.16    4.25
   2   4  -5   59.55    5.47
   2   4  -5   80.74    8.30
  -2  -4   5   72.69   16.93
  -2  -4   5   65.11    3.81
  -2  -4   5   62.38    5.60
  -2  -4   5   67.86    3.92
   1   4  -5    1.06    2.29
   1   4  -5    2.94    1.80
   1   4  -5    2.16    3.39
   1   4  -5    0.61    3.25
   1   4  -5    5.34    1.26
  -1  -4   5    4.01    1.01
  -1  -4   5    1.96    2.03
  -1  -4   5    4.63    0.94
   0   4  -5   69.70    7.89
   0   4  -5   69.87    5.74
   0   4  -5   62.53    6.09
   0   4  -5   69.68    4.24
   0  -4   5   66.06    6.68
   0  -4   5   66.72    3.72
   0  -4   5   70.67    5.55
  -1   4  -5   28.34    4.16
  -1   4  -5   35.60    2.96
  -1   4  -5   34.41    6.13
  -1   4  -5   31.39    3.78
  -1   4  -5   25.28    7.13
   1  -4   5   34.86   11.09
   1  -4   5   34.86    2.13
   1  -4   5   34.76    3.84
   1  -4   5   34.11    5.44
   1  -4   5   32.06    2.13
  -2   4  -5  140.85   10.54
  -2   4  -5  143.52   10.49
  -2   4  -5  139.94    8.82
  -2   4  -5  139.63   17.08
  -2   4  -5  133.52    7.60
   2  -4   5  121.89    6.84
   2  -4   5  125.44   18.38
   2  -4   5  125.65    6.80
   2  -4   5  173.13   13.51
  -3   4  -5   41.58    9.19
  -3   4  -5   39.55    3.12
  -3   4  -5   37.17    4.55
  -3   4  -5   39.80    6.01
  -3   4  -5   41.79    3.91
   3  -4   5   33.56    2.34
   3  -4   5   54.35    7.76
   3  -4   5   25.10    8.89
   3  -4   5   83.81   15.45
   3  -4   5   31.05    2.43
  -4   4  -5   22.57    7.30
  -4   4  -5   22.46    2.69
  -4   4  -5   23.08    4.83
  -4   4  -5   22.43    2.64
   4  -4   5   25.55    6.71
   4  -4   5   12.72    6.60
   4  -4   5   24.21   10.84
   4  -4   5   18.89    1.79
  -5   4  -5   14.77    4.50
  -5   4  -5   18.58    2.53
  -5   4  -5   26.35    8.17
   5  -4   5   11.87    1.55
   5  -4   5   29.02   11.46
   5  -4   5   26.54    7.65
  -6   4  -5   15.91    4.67
  -6   4  -5   26.50    8.86
   6  -4   5    9.43   10.36
   6  -4   5    8.18    7.12
  -7   4  -5   10.01    1.99
  -7   4  -5   22.94    9.32
  -7   4  -5    9.98    4.48
   7  -4   5   12.08    7.51
   7   3  -5    7.49    3.05
   7   3  -5   10.23    2.43
  -7  -3   5   14.91    2.51
   6   3  -5   -0.82    2.14
   6   3  -5    2.96    4.01
   6   3  -5    0.30    1.64
  -6  -3   5    0.02    1.74
  -6  -3   5   10.85    9.24
  -6  -3   5    1.77    1.58
   5   3  -5   35.78    3.44
   5   3  -5   37.83    6.74
   5   3  -5   33.77    4.93
  -5  -3   5   41.60    4.20
  -5  -3   5   34.29    2.95
  -5  -3   5   29.14   12.17
   4   3  -5   16.11    3.39
   4   3  -5   15.80    4.83
   4   3  -5   21.72    2.57
  -4  -3   5   16.89    1.94
  -4  -3   5   15.09    2.60
   3   3  -5   72.67    7.02
   3   3  -5   79.01    6.53
   3   3  -5   81.16    4.83
   3   3  -5   76.98    7.60
  -3  -3   5   68.94    6.47
  -3  -3   5   81.58    6.89
  -3  -3   5   79.37    4.50
   2   3  -5   14.80    3.95
   2   3  -5   15.70    1.84
   2   3  -5    7.49    3.79
   2   3  -5   12.65    2.63
   2   3  -5   14.54    3.06
  -2  -3   5    5.28    2.10
  -2  -3   5   17.56    1.75
  -2  -3   5    9.92    2.12
   1   3  -5   51.87    5.18
   1   3  -5   55.65    6.52
   1   3  -5   57.81    3.54
  -1  -3   5   56.55    3.26
  -1  -3   5   52.51    3.25
  -1  -3   5   49.47    4.99
   0   3  -5   81.54    4.66
   0   3  -5   76.83    5.97
   0   3  -5   70.53    7.17
   0   3  -5   71.94    6.52
   0  -3   5   73.20    4.19
   0  -3   5   71.90    5.75
   0  -3   5   90.31    6.97
   0  -3   5   73.15    4.22
  -1   3  -5   85.23    6.21
  -1   3  -5   88.44    7.19
  -1   3  -5   74.03   11.23
  -1   3  -5   94.25    5.26
  -1   3  -5   96.04    8.16
   1  -3   5   87.14    4.72
   1  -3   5   85.24    6.14
  -2   3  -5   62.69    7.18
  -2   3  -5   62.95    9.58
  -2   3  -5   58.65    5.11
  -2   3  -5   65.17    5.26
  -2   3  -5   58.19    3.97
   2  -3   5   64.42    4.93
   2  -3   5   58.37    3.39
   2  -3   5   52.57    3.49
  -3   3  -5   31.41    4.05
  -3   3  -5   24.58    2.57
  -3   3  -5   29.76    5.20
  -3   3  -5   31.36    3.12
  -3   3  -5   35.75    7.13
   3  -3   5   60.71   11.57
   3  -3   5   49.64    7.30
   3  -3   5   24.65    2.15
   3  -3   5   17.29    7.56
   3  -3   5   28.92    2.12
   3  -3   5   25.71    3.46
  -4   3  -5   35.78    8.30
  -4   3  -5   26.32    2.80
  -4   3  -5   24.00    4.89
  -4   3  -5   21.93    3.83
   4  -3   5   21.79    7.28
   4  -3   5   21.21    2.12
   4  -3   5   37.10   10.36
   4  -3   5   26.49    3.97
   4  -3   5   42.67    7.81
  -5   3  -5   10.86    2.03
  -5   3  -5    4.37    3.72
  -5   3  -5   17.35    6.66
   5  -3   5    9.45    1.55
   5  -3   5   13.58    8.83
   5  -3   5   17.76    6.36
  -6   3  -5   70.71   11.83
  -6   3  -5   41.69    6.92
   6  -3   5   56.77   11.20
   6  -3   5   65.78   13.60
  -7   3  -5    8.88    6.83
  -7   3  -5    4.42    1.76
  -7   3  -5    4.94    4.20
   7  -3   5    4.32    1.54
   7  -3   5   -2.47    6.25
  -8   3  -5   11.92    5.43
  -8   3  -5   31.82   10.45
   7   2  -5   -0.22    1.87
   7   2  -5   -0.74    2.31
  -7  -2   5   -0.26    1.60
   6   2  -5   12.86    2.37
   6   2  -5   11.37    4.52
   6   2  -5   12.28    3.14
  -6  -2   5    9.44    8.40
  -6  -2   5    8.65    2.54
  -6  -2   5   15.79    2.17
   5   2  -5   19.89    3.76
   5   2  -5   19.72    2.62
   5   2  -5   24.13    3.90
   5   2  -5   17.10    5.02
  -5  -2   5   16.35    3.99
  -5  -2   5   21.76    3.33
  -5  -2   5   23.50    2.34
   4   2  -5   61.62    4.11
   4   2  -5   58.23    5.84
   4   2  -5   51.51    6.16
   4   2  -5   58.10    7.51
  -4  -2   5   63.90    5.61
  -4  -2   5   58.19    3.83
   3   2  -5   34.32    4.22
   3   2  -5   29.83    4.35
   3   2  -5   30.30    5.22
   3   2  -5   34.10    2.82
  -3  -2   5   40.59    3.91
  -3  -2   5   37.61    4.89
  -3  -2   5   37.93    2.58
   2   2  -5   31.58    4.90
   2   2  -5   29.84    2.39
   2   2  -5   29.35    3.95
   2   2  -5   28.81    3.47
  -2  -2   5   28.50    2.13
  -2  -2   5   28.64    3.95
  -2  -2   5   29.95    3.31
   1   2  -5   71.88    4.31
   1   2  -5   78.08    6.38
   1   2  -5   77.92    7.15
  -1  -2   5   73.81    4.17
  -1  -2   5   64.51    6.18
  -1  -2   5   75.83    6.05
  -1  -2   5   77.62    4.15
  -1  -2   5   75.15    5.80
   0   2  -5   76.23    7.13
   0   2  -5   83.69    6.47
   0   2  -5   82.14    4.60
   0   2  -5   59.41    9.54
   0   2  -5   79.70    5.99
   0  -2   5   75.74    6.39
   0  -2   5   78.71    4.26
   0  -2   5   73.81    4.23
  -1   2  -5  153.62    9.16
  -1   2  -5  158.68    8.12
  -1   2  -5  133.92   16.80
  -1   2  -5  161.07   11.46
  -1   2  -5  137.47   10.56
   1  -2   5  146.94    7.80
   1  -2   5  142.48    9.91
   1  -2   5  163.61    7.74
  -2   2  -5   61.43    8.60
  -2   2  -5   58.41    3.78
  -2   2  -5   60.41    4.77
  -2   2  -5   66.08    5.01
  -2   2  -5   51.68    6.44
   2  -2   5   55.00    3.31
   2  -2   5   50.06    3.43
  -3   2  -5   76.51    9.46
  -3   2  -5   59.21    4.93
  -3   2  -5   62.90    7.06
  -3   2  -5   59.49    3.89
  -3   2  -5   60.40    4.99
   3  -2   5   50.02    3.55
   3  -2   5   57.15    3.50
  -4   2  -5   12.91    3.79
  -4   2  -5    8.77    1.80
  -4   2  -5    6.85    2.42
  -4   2  -5   10.08    4.89
   4  -2   5    5.33    1.40
   4  -2   5    8.07    1.36
   4  -2   5   19.64    7.61
  -5   2  -5   73.35    4.92
  -5   2  -5   75.61    8.40
   5  -2   5   66.95    4.46
   5  -2   5  109.40   12.76
  -6   2  -5   12.29    6.46
  -6   2  -5    7.23    4.07
  -6   2  -5    7.67    1.85
   6  -2   5   13.95    6.53
   6  -2   5    4.66    1.51
  -7   2  -5   28.81    5.90
  -7   2  -5   23.94    2.98
   7  -2   5   22.21    2.68
   7  -2   5   29.15    8.62
  -8   2  -5    0.21    6.27
  -8   2  -5    0.11    1.64
  -8   2  -5    4.17    4.28
   8  -2   5   -0.65    1.53
   7   1  -5    7.25    2.34
  -7  -1   5    9.62    2.17
  -7  -1   5    4.15    2.39
   6   1  -5   16.60    2.54
   6   1  -5   10.67    4.35
   6   1  -5   14.25    2.91
  -6  -1   5   23.86    2.54
  -6  -1   5   13.60    2.87
  -6  -1   5   19.39    4.58
   5   1  -5   32.39    5.97
   5   1  -5   31.09    3.81
   5   1  -5   28.35    5.24
   5   1  -5   34.65    3.10
  -5  -1   5   33.75    5.04
  -5  -1   5   31.44    3.94
  -5  -1   5   35.38    2.88
   4   1  -5   30.36    2.66
   4   1  -5   32.12    5.37
   4   1  -5   26.76    3.60
   4   1  -5   23.65    4.25
  -4  -1   5   37.32    4.77
  -4  -1   5   27.29    3.28
  -4  -1   5   29.20    2.31
  -4  -1   5   18.73    4.66
   3   1  -5   50.13    4.78
   3   1  -5   52.66    3.45
   3   1  -5   45.21    5.17
   3   1  -5   69.17    7.14
  -3  -1   5   50.72    3.20
  -3  -1   5   47.78    4.68
  -3  -1   5   54.16    6.17
   2   1  -5   75.20    4.61
   2   1  -5   76.50    6.93
   2   1  -5   73.16    5.84
   2   1  -5   79.83    6.68
  -2  -1   5   83.26    6.63
  -2  -1   5   74.55    4.40
  -2  -1   5   97.86    6.79
  -2  -1   5   75.57    6.06
   1   1  -5   58.34    5.12
   1   1  -5   60.09    3.64
   1   1  -5   62.46    6.20
   1   1  -5   62.90    5.20
   1   1  -5   59.86    4.78
   1   1  -5   51.02    3.34
  -1  -1   5   65.09    5.22
  -1  -1   5   55.66    3.40
  -1  -1   5   61.40    5.50
  -1  -1   5   59.98    5.62
  -1  -1   5   65.40    5.26
  -1  -1   5   55.30    3.49
   0   1  -5  323.31   21.60
   0   1  -5  247.69   29.90
   0   1  -5  298.17   17.24
   0   1  -5  346.18   22.12
   0   1  -5  298.58   14.62
   0   1  -5  303.68   16.20
   0   1  -5  318.14   14.91
   0  -1   5  299.24   16.77
   0  -1   5  292.19   14.73
   0  -1   5  252.93   22.04
   0  -1   5  321.35   16.37
   0  -1   5  303.75   14.66
  -1   1  -5   35.39    3.87
  -1   1  -5   44.02    5.71
  -1   1  -5   30.29    2.03
  -1   1  -5   33.78    2.53
  -1   1  -5   37.56    3.37
  -1   1  -5   35.13    5.66
  -1   1  -5   31.46    3.06
   1  -1   5   25.42    3.10
   1  -1   5   31.96    2.25
   1  -1   5   34.50    4.62
   1  -1   5   20.60    5.36
   1  -1   5   32.55    2.14
   1  -1   5   34.56    4.02
  -2   1  -5   87.38    5.54
  -2   1  -5   81.21    5.87
  -2   1  -5   73.24    4.36
  -2   1  -5   80.94    7.01
  -2   1  -5   66.56    5.96
   2  -1   5   74.44    4.02
   2  -1   5   65.98    6.07
   2  -1   5   65.36    5.82
   2  -1   5   80.50    5.71
   2  -1   5   62.42    4.07
  -3   1  -5    2.43    2.91
  -3   1  -5    4.46    1.25
  -3   1  -5   10.48    4.06
  -3   1  -5    7.99    2.28
   3  -1   5    5.21    2.00
   3  -1   5    5.27    1.40
   3  -1   5    5.07    1.00
  -4   1  -5  100.37    5.50
  -4   1  -5  104.64    8.22
  -4   1  -5   97.10    6.90
   4  -1   5   92.36    6.91
   4  -1   5   89.75    5.15
   4  -1   5   82.97    7.08
  -5   1  -5    4.53    4.57
  -5   1  -5    4.03    2.61
  -5   1  -5    1.53    2.31
  -5   1  -5   -0.17    3.00
   5  -1   5    2.13    1.17
   5  -1   5   -0.51    1.00
   5  -1   5    4.53    5.68
   5  -1   5    2.82    2.19
  -6   1  -5   60.47    4.13
  -6   1  -5   53.25    7.41
   6  -1   5   57.54    4.00
  -7   1  -5   -0.24    1.29
  -7   1  -5    7.94    4.18
  -7   1  -5   -0.54    4.92
   7  -1   5    0.43    1.42
   7  -1   5    2.35    5.77
  -8   1  -5   17.75    5.56
  -8   1  -5   13.73    2.53
  -8   1  -5   34.20    9.71
   8  -1   5   13.84    2.57
   8  -1   5   16.66    7.79
   8   0  -5    5.27   13.85
   7   0  -5   13.09    2.68
  -7   0   5   13.90    3.24
  -7   0   5   12.52    2.17
  -7   0   5   16.12    4.82
   6   0  -5   12.52    2.48
   6   0  -5   13.07    2.45
   6   0  -5   15.56    5.19
  -6   0   5   16.39    4.40
  -6   0   5   13.27    1.99
  -6   0   5   15.94    3.04
   5   0  -5   50.66    4.88
   5   0  -5   47.45    7.15
   5   0  -5   52.62    3.95
   5   0  -5   51.33    7.15
  -5   0   5   51.93    6.24
  -5   0   5   51.15    5.25
  -5   0   5   51.32    3.46
   4   0  -5   19.22    4.47
   4   0  -5   20.16    2.39
   4   0  -5   18.81    4.47
   4   0  -5   25.46    3.03
  -4   0   5   26.37    4.13
  -4   0   5   26.19    4.52
  -4   0   5   23.03    3.19
  -4   0   5   23.44    2.03
   3   0  -5   73.86    6.69
   3   0  -5   75.75    6.06
   3   0  -5   63.39    5.47
   3   0  -5   76.75    7.32
   3   0  -5   70.23    4.29
  -3   0   5   68.51    4.05
  -3   0   5   72.22    6.16
  -3   0   5   66.50    6.18
  -3   0   5   68.39    5.58
   2   0  -5    7.66    2.25
   2   0  -5    5.12    1.18
   2   0  -5    2.79    1.75
   2   0  -5    7.25    3.04
   2   0  -5    7.08    1.70
  -2   0   5    4.96    1.47
  -2   0   5    6.62    2.27
  -2   0   5    5.98    2.35
  -2   0   5    4.95    1.45
  -2   0   5    6.19    1.01
  -2   0   5    7.09    2.73
   1   0  -5  277.36   13.76
   1   0  -5  295.52   20.65
   1   0  -5  263.11   14.83
   1   0  -5  313.54   20.08
   1   0  -5  278.51   13.57
   1   0  -5  289.03   15.97
  -1   0   5  263.46   13.69
  -1   0   5  291.42   20.54
  -1   0   5  245.86   19.99
  -1   0   5  273.69   13.57
  -1   0   5  259.45   20.93
  -1   0   5  286.51   15.83
  -1   0   5  273.30   14.99
   0   0  -5   22.64    4.04
   0   0  -5   20.89    1.61
   0   0  -5   25.40    2.04
   0   0  -5   19.23    4.16
   0   0  -5   20.10    3.30
   0   0  -5   20.91    2.39
   0   0  -5   25.85    2.66
   0   0   5   17.38    1.71
   0   0   5   19.12    3.91
   0   0   5   23.05    3.52
   0   0   5   24.42    2.71
   0   0   5   20.62    1.78
   0   0   5   19.10    2.47
   0   0   5   12.75    3.75
  -1   0  -5  205.48   12.60
  -1   0  -5  228.24   14.94
  -1   0  -5  206.17   14.60
  -1   0  -5  198.36   10.18
  -1   0  -5  208.99   11.25
  -1   0  -5  192.94    9.85
   1   0   5  201.56    9.97
   1   0   5  195.07   14.55
   1   0   5  179.70   10.04
   1   0   5  203.38   11.49
   1   0   5  176.99   11.88
  -2   0  -5    2.53    1.68
  -2   0  -5    1.27    0.57
  -2   0  -5    2.20    2.62
  -2   0  -5    3.05    1.13
  -2   0  -5    2.22    0.95
  -2   0  -5    1.44    2.68
   2   0   5    1.32    0.72
   2   0   5    1.29    0.82
   2   0   5    0.74    2.13
   2   0   5    1.40    0.98
   2   0   5    3.22    2.54
   2   0   5    2.13    1.95
  -3   0  -5  168.67   10.60
  -3   0  -5  161.67    8.26
  -3   0  -5  171.87    9.53
  -3   0  -5  139.96   11.80
   3   0   5  149.88   10.32
   3   0   5  160.32    9.62
   3   0   5  158.77   11.51
   3   0   5  157.30    8.06
  -4   0  -5   10.76    3.54
  -4   0  -5    7.37    2.43
  -4   0  -5   16.84    4.31
  -4   0  -5    6.03    1.37
  -4   0  -5   12.13    4.65
   4   0   5    4.95    1.24
   4   0   5    5.89    1.35
   4   0   5    3.32    2.23
  -5   0  -5  109.14    7.86
  -5   0  -5  113.86    8.99
   5   0   5   99.90    7.89
   5   0   5   98.76    7.88
   5   0   5  104.74    5.91
  -6   0  -5    0.64    3.17
  -6   0  -5    4.39    4.94
  -6   0  -5    1.79    1.35
   6   0   5    3.76    2.90
   6   0   5    3.08    1.34
  -7   0  -5   15.24    4.85
  -7   0  -5   15.47    2.37
   7   0   5   22.72    2.78
  -8   0  -5    2.71    1.86
  -8   0  -5    5.82    6.32
   8   0   5    4.69    1.90
   8   0   5    5.23    6.48
   8  -1  -5   12.47   13.73
   8  -1  -5    8.32    2.53
  -8   1   5    5.28    3.00
   7  -1  -5    2.86    1.85
   7  -1  -5    6.86    5.52
   7  -1  -5   13.04   13.74
  -7   1   5    2.67    1.63
  -7   1   5   -1.53    3.59
  -7   1   5    1.82    2.44
   6  -1  -5   35.01    8.07
   6  -1  -5   44.78    3.81
  -6   1   5   39.93    3.20
  -6   1   5   41.94    5.01
  -6   1   5   47.13    6.39
   5  -1  -5   10.48    3.86
   5  -1  -5    2.72    3.97
   5  -1  -5    5.37    1.60
   5  -1  -5    4.60    1.56
  -5   1   5    6.45    2.19
  -5   1   5    4.94    1.32
  -5   1   5    4.05    3.00
   4  -1  -5   42.84    5.85
   4  -1  -5   36.33    6.43
   4  -1  -5   37.08    3.69
   4  -1  -5   35.61    2.99
  -4   1   5   37.66    2.68
  -4   1   5   38.14    4.10
  -4   1   5   34.20    5.18
  -4   1   5   38.67    4.78
   3  -1  -5    3.52    1.22
   3  -1  -5    2.56    1.29
   3  -1  -5    3.49    2.91
   3  -1  -5    5.43    1.38
   3  -1  -5    6.68    2.80
  -3   1   5    4.81    2.64
  -3   1   5    4.88    2.49
  -3   1   5    2.52    1.24
  -3   1   5    2.86    0.85
  -3   1   5    2.95    1.42
  -3   1   5    1.26    1.80
   2  -1  -5  183.11   10.67
   2  -1  -5  145.86   15.77
   2  -1  -5  171.38    8.44
   2  -1  -5  158.35    8.13
   2  -1  -5  164.12    9.46
  -2   1   5  168.45   13.67
  -2   1   5  177.50   12.54
  -2   1   5  174.87   10.62
  -2   1   5  148.41   12.11
  -2   1   5  163.82    8.19
   1  -1  -5    5.43    0.84
   1  -1  -5    6.03    1.95
   1  -1  -5    4.21    1.28
   1  -1  -5    2.50    2.59
   1  -1  -5    6.88    1.59
   1  -1  -5    8.45    1.75
   1  -1  -5    6.54    1.21
  -1   1   5    6.43    3.09
  -1   1   5    4.43    3.08
  -1   1   5    5.86    1.10
  -1   1   5    5.55    1.48
  -1   1   5    5.54    0.93
  -1   1   5    4.21    1.38
  -1   1   5    2.46    2.03
   0  -1  -5  244.78   14.49
   0  -1  -5  247.99   13.72
   0  -1  -5  253.31   12.53
   0  -1  -5  236.04   12.30
   0  -1  -5  257.19   18.68
   0  -1  -5  279.67   18.25
   0   1   5  236.39   12.46
   0   1   5  253.46   12.36
   0   1   5  255.03   18.65
   0   1   5  229.72   14.26
   0   1   5  261.69   18.12
   0   1   5  261.83   13.80
  -1  -1  -5   -0.60    1.88
  -1  -1  -5   -0.54    1.55
  -1  -1  -5   -0.17    0.77
  -1  -1  -5    2.05    2.73
  -1  -1  -5    0.91    0.93
  -1  -1  -5   -0.33    0.49
   1   1   5    1.06    0.76
   1   1   5    2.34    1.98
   1   1   5    0.54    0.66
   1   1   5    0.76    0.94
   1   1   5   -0.99    2.43
   1   1   5   -0.22    1.17
   1   1   5    1.30    1.73
  -2  -1  -5  165.98   11.06
  -2  -1  -5  143.77    9.54
  -2  -1  -5  143.39    8.58
  -2  -1  -5  138.14    7.57
  -2  -1  -5  141.76    7.34
   2   1   5  141.77    7.46
   2   1   5  146.21   10.78
   2   1   5  143.45    9.57
   2   1   5  127.57    7.51
   2   1   5  176.98   15.93
   2   1   5  138.65    8.79
  -3  -1  -5   52.03    4.29
  -3  -1  -5   49.66    4.03
  -3  -1  -5   46.48    3.06
  -3  -1  -5   41.61    5.23
   3   1   5   45.14    4.00
   3   1   5   44.35    2.97
   3   1   5   50.20    4.55
   3   1   5   53.48    5.94
  -4  -1  -5   90.55    6.47
  -4  -1  -5   89.20    7.27
  -4  -1  -5   79.48    6.74
   4   1   5   81.79    4.85
   4   1   5   85.96    7.44
   4   1   5   86.60    6.68
   4   1   5   90.92    6.69
  -5  -1  -5    7.99    3.67
  -5  -1  -5   22.75    6.30
  -5  -1  -5   10.41    3.30
  -5  -1  -5    8.27    1.51
  -5  -1  -5   10.83    3.77
   5   1   5    8.11    3.06
   5   1   5    7.27    1.61
   5   1   5    9.59    1.82
  -6  -1  -5   26.57    2.74
  -6  -1  -5   22.08    4.90
  -6  -1  -5   27.07    5.40
   6   1   5   21.50    2.56
   6   1   5   21.78    4.49
  -7  -1  -5    5.74    1.72
  -7  -1  -5   13.22    6.37
  -7  -1  -5   10.10    4.15
   7   1   5    5.61    1.68
  -8  -1  -5   15.89    2.50
   8   1   5   11.18    2.36
   8  -2  -5    3.90    6.59
   8  -2  -5   -1.02    1.96
   8  -2  -5   -0.67   13.44
  -8   2   5   -1.65    2.20
  -8   2   5   -3.14    4.28
   7  -2  -5   15.83   13.48
   7  -2  -5   14.90    7.37
   7  -2  -5   13.21    2.54
  -7   2   5   14.49    3.28
  -7   2   5   16.33    2.32
  -7   2   5   13.42    4.72
   6  -2  -5    3.00   10.53
   6  -2  -5    1.90    1.67
   6  -2  -5    0.96    5.04
  -6   2   5    1.78    2.20
  -6   2   5    1.77    1.24
  -6   2   5    3.22    3.41
   5  -2  -5   30.18    2.88
   5  -2  -5   31.59    7.06
  -5   2   5   24.68    4.46
  -5   2   5   31.79    4.22
  -5   2   5   29.47    2.45
   4  -2  -5    0.02    3.37
   4  -2  -5    2.21    3.50
   4  -2  -5    2.90    2.15
   4  -2  -5    2.33    1.26
  -4   2   5    1.02    2.14
  -4   2   5    1.07    1.69
  -4   2   5   -5.00    2.04
  -4   2   5    0.67    0.80
  -4   2   5   -0.32    1.01
   3  -2  -5  108.74    5.69
   3  -2  -5   98.84    5.33
   3  -2  -5  100.05   10.67
   3  -2  -5   99.26    7.81
  -3   2   5  107.80    5.43
  -3   2   5  108.35    8.55
  -3   2   5   97.34    7.56
  -3   2   5   87.86    7.92
  -3   2   5  113.71    7.03
   2  -2  -5    4.96    2.56
   2  -2  -5    5.53    0.79
   2  -2  -5    8.26    3.35
   2  -2  -5    4.56    1.11
  -2   2   5    4.84    2.57
  -2   2   5    4.39    1.51
  -2   2   5    4.18    3.02
  -2   2   5    7.30    0.95
  -2   2   5    5.74    1.45
   1  -2  -5  213.78   10.41
   1  -2  -5  200.99   12.10
   1  -2  -5  201.38   11.16
  -1   2   5  200.72   10.42
  -1   2   5  217.25   15.08
  -1   2   5  196.80   12.27
  -1   2   5  236.64   15.70
  -1   2   5  209.58   10.20
  -1   2   5  173.07   16.87
  -1   2   5  206.38   11.44
   0  -2  -5    6.08    1.06
   0  -2  -5    5.12    1.27
   0  -2  -5   19.33    5.12
   0  -2  -5    5.67    2.18
   0  -2  -5    4.70    0.81
   0  -2  -5   10.80    2.26
   0  -2  -5    6.73    2.86
   0   2   5    5.37    1.31
   0   2   5    3.75    2.05
   0   2   5    4.75    0.92
   0   2   5    4.34    2.68
   0   2   5    4.09    1.01
   0   2   5    5.92    1.82
   0   2   5    6.00    1.41
  -1  -2  -5  106.11    6.54
  -1  -2  -5  110.44    8.10
  -1  -2  -5  106.19    5.49
  -1  -2  -5  100.52    5.33
   1   2   5  113.12    6.96
   1   2   5   97.80    7.24
   1   2   5   97.55    5.50
   1   2   5  101.06    7.90
   1   2   5  105.92    5.45
  -2  -2  -5   52.20    4.37
  -2  -2  -5   56.70    2.99
  -2  -2  -5   53.26    3.19
  -2  -2  -5   57.75    4.28
  -2  -2  -5   50.20    4.83
   2   2   5   50.30    3.18
   2   2   5   47.98    5.36
   2   2   5   56.05    3.17
   2   2   5   49.80    4.51
   2   2   5   53.74    4.52
  -3  -2  -5  125.02    6.64
  -3  -2  -5  145.68    9.79
  -3  -2  -5  124.45    7.95
  -3  -2  -5  126.05    8.60
   3   2   5  129.81    8.35
   3   2   5  122.64    6.78
   3   2   5  125.00    8.94
  -4  -2  -5   26.84    5.99
  -4  -2  -5   19.23    2.00
  -4  -2  -5   21.84    2.20
  -4  -2  -5   18.45    3.84
   4   2   5   18.60    3.51
   4   2   5   16.66    3.99
   4   2   5   20.08    1.92
  -5  -2  -5   65.05    6.48
  -5  -2  -5   65.58    5.21
  -5  -2  -5   63.12    8.98
  -5  -2  -5   64.05    3.98
   5   2   5   60.30    4.04
   5   2   5   64.60    7.84
   5   2   5   65.24    6.52
  -6  -2  -5   15.58    5.01
  -6  -2  -5   19.46    2.26
  -6  -2  -5   25.58    4.82
   6   2   5   22.11    2.60
   6   2   5   22.77    4.64
  -7  -2  -5   16.78    2.28
   7   2   5   20.13    4.96
   7   2   5   17.97    2.62
  -8  -2  -5   17.03    2.44
   8   2   5   13.28    2.37
   7  -3  -5   -9.32   10.62
   7  -3  -5    0.85    6.41
   7  -3  -5    0.78    1.65
  -7   3   5    0.77    1.49
  -7   3   5    1.28    2.52
  -7   3   5   -1.00    3.51
   6  -3  -5   26.20   14.37
   6  -3  -5   27.36    2.94
   6  -3  -5   22.46    8.19
  -6   3   5   37.64    5.76
  -6   3   5   27.40    4.50
  -6   3   5   31.12    2.65
   5  -3  -5   -0.23    4.47
   5  -3  -5   -0.80    1.10
   5  -3  -5   -0.13    2.41
   5  -3  -5   -5.51    8.75
  -5   3   5    0.37    1.06
  -5   3   5   -1.89    2.75
  -5   3   5    1.61    1.93
   4  -3  -5   98.90   17.59
   4  -3  -5   54.42    3.53
   4  -3  -5   66.66    3.99
   4  -3  -5   58.34    9.67
   4  -3  -5   65.90    6.36
  -4   3   5   70.93    3.82
  -4   3   5   60.97    5.48
  -4   3   5   61.54    6.12
  -4   3   5   57.51    6.66
   3  -3  -5   22.53    5.80
   3  -3  -5   26.85   10.06
   3  -3  -5   22.58    1.99
   3  -3  -5   24.93    4.00
   3  -3  -5   22.67    1.58
  -3   3   5   17.88    2.51
  -3   3   5   20.30    3.06
  -3   3   5   25.37    3.40
  -3   3   5   26.25    4.15
  -3   3   5   21.81    1.73
   2  -3  -5  110.52    5.84
   2  -3  -5  107.85    5.57
   2  -3  -5   98.97    7.45
   2  -3  -5  126.66   11.58
  -2   3   5  111.00    8.48
  -2   3   5  114.04    7.93
  -2   3   5  113.20    5.69
  -2   3   5  113.83    9.07
   1  -3  -5    8.63    4.27
   1  -3  -5    2.74    0.48
   1  -3  -5    2.03    0.70
   1  -3  -5    3.58    2.04
   1  -3  -5    0.25    5.00
  -1   3   5    2.39    1.04
  -1   3   5    1.33    0.76
  -1   3   5    2.77    0.65
  -1   3   5    3.16    2.41
  -1   3   5    4.15    1.04
  -1   3   5    3.15    1.28
  -1   3   5    4.29    1.69
   0  -3  -5   87.44    4.53
   0  -3  -5   89.32    6.10
   0  -3  -5   86.08    4.39
   0   3   5   83.94    6.60
   0   3   5   94.63    7.05
   0   3   5   87.57    9.40
   0   3   5   93.54    5.97
   0   3   5   85.15    4.72
   0   3   5   85.50    4.57
  -1  -3  -5   25.30    2.86
  -1  -3  -5   33.21    2.00
  -1  -3  -5   33.28    3.45
  -1  -3  -5   30.88    1.93
  -1  -3  -5   50.29    7.80
  -1  -3  -5   34.39    3.66
   1   3   5   33.01    2.16
   1   3   5   34.97    3.08
   1   3   5   32.69    2.08
   1   3   5   31.79    3.24
   1   3   5   29.67    3.93
  -2  -3  -5  125.16   11.24
  -2  -3  -5  132.02    8.10
  -2  -3  -5  123.71    9.64
  -2  -3  -5  132.97    6.45
   2   3   5  128.96    7.83
   2   3   5  116.67    8.31
   2   3   5  133.29    6.61
   2   3   5  128.43    6.67
  -3  -3  -5   87.54    4.78
  -3  -3  -5  110.29   11.98
  -3  -3  -5   90.42    6.91
  -3  -3  -5   86.20    4.83
   3   3   5   88.42    6.41
   3   3   5   90.67    4.99
   3   3   5   89.77    7.04
  -4  -3  -5   55.40    4.55
  -4  -3  -5   58.43    5.46
  -4  -3  -5   61.20    3.53
  -4  -3  -5   58.92    9.00
   4   3   5   61.49    6.11
   4   3   5   55.65    3.59
   4   3   5   57.60    5.39
  -5  -3  -5   44.41    5.74
  -5  -3  -5   37.45    3.37
  -5  -3  -5   35.48    8.14
  -5  -3  -5   45.75    2.90
   5   3   5   38.49    5.37
   5   3   5   46.23    6.41
   5   3   5   41.50    3.16
  -6  -3  -5    9.69    1.68
  -6  -3  -5    8.74    4.64
  -6  -3  -5    5.84    3.37
   6   3   5    8.56    3.66
   6   3   5    6.80    1.66
  -7  -3  -5   36.18    3.08
   7   3   5   29.83    3.13
   7   3   5   30.90    5.78
  -8  -3  -5    6.08    1.91
   8   3   5    2.03    1.80
   7  -4  -5   14.79    8.35
   7  -4  -5   12.19   14.25
  -7   4   5   13.55    3.91
  -7   4   5   15.89    2.29
  -7   4   5   16.92    4.83
   6  -4  -5    0.90   11.54
   6  -4  -5    0.36    6.02
  -6   4   5   -1.06    1.94
  -6   4   5    1.54    1.16
  -6   4   5   -1.53    3.09
   5  -4  -5   20.12   12.54
   5  -4  -5   22.63    2.23
   5  -4  -5   29.07    8.55
  -5   4   5   25.96    4.19
  -5   4   5   21.80    2.21
  -5   4   5   27.06    4.59
   4  -4  -5   18.67    1.84
   4  -4  -5   19.65    6.84
   4  -4  -5   24.03   11.76
   4  -4  -5   25.12    5.86
  -4   4   5   15.17    3.34
  -4   4   5   17.04    1.79
  -4   4   5   17.32    3.42
  -4   4   5   23.41    4.66
   3  -4  -5   66.40    3.64
   3  -4  -5   75.79   15.06
   3  -4  -5   67.48    9.61
   3  -4  -5   63.90    3.47
  -3   4   5   80.04    5.45
  -3   4   5   76.49    6.12
  -3   4   5   57.58    6.10
  -3   4   5   68.09    3.72
   2  -4  -5   34.38    7.00
   2  -4  -5   27.16    6.35
   2  -4  -5   34.24   10.30
   2  -4  -5   19.69    1.24
   2  -4  -5   24.27    3.44
  -2   4   5   15.73    2.86
  -2   4   5   19.18    3.52
  -2   4   5   26.14    2.60
  -2   4   5   21.38    1.57
  -2   4   5   22.35    2.51
   1  -4  -5   77.05    5.15
   1  -4  -5   87.67   11.95
  -1   4   5   68.92    4.18
  -1   4   5   76.77    6.47
  -1   4   5   77.93    3.95
  -1   4   5   75.35    5.16
  -1   4   5   80.86    6.14
   0  -4  -5   86.34   11.47
   0  -4  -5   86.22    5.13
   0   4   5   82.42    6.78
   0   4   5   79.09    6.11
   0   4   5   81.71    5.48
   0   4   5   79.85    4.44
   0   4   5   87.32    4.34
  -1  -4  -5   24.21    6.53
  -1  -4  -5   33.08    6.36
  -1  -4  -5   24.85    1.40
  -1  -4  -5   24.38    1.38
  -1  -4  -5   25.32    2.59
   1   4   5   24.08    2.89
   1   4   5   21.68    3.31
   1   4   5   25.09    1.74
   1   4   5   29.90    2.69
   1   4   5   24.54    1.78
  -2  -4  -5  101.63   11.35
  -2  -4  -5  107.24    5.65
  -2  -4  -5  115.08    6.94
  -2  -4  -5  111.41    5.62
  -2  -4  -5  135.91   14.51
   2   4   5  111.46    7.58
   2   4   5  110.12    5.92
   2   4   5  112.77    5.85
   2   4   5  117.31    8.61
   2   4   5  110.37    7.05
  -3  -4  -5   48.79    6.15
  -3  -4  -5   41.65    7.62
  -3  -4  -5   39.87    3.84
  -3  -4  -5   42.71    2.42
  -3  -4  -5   38.04    2.37
   3   4   5   33.59    4.13
   3   4   5   39.28    4.97
   3   4   5   37.69    2.63
  -4  -4  -5   56.58    3.26
  -4  -4  -5   58.85    5.30
  -4  -4  -5   53.66    9.16
   4   4   5   56.46    6.40
   4   4   5   49.13    3.47
   4   4   5   52.87    5.25
  -5  -4  -5    8.43    1.40
  -5  -4  -5    6.68    2.76
  -5  -4  -5    5.33    4.65
  -5  -4  -5   24.08    8.32
   5   4   5   13.96    3.57
   5   4   5    8.41    1.59
  -6  -4  -5   51.23    3.43
   6   4   5   50.95    6.82
   6   4   5   47.03    3.80
  -7  -4  -5    1.32    1.33
   7   4   5    1.04    1.45
   7   4   5    2.18    1.28
   7   4   5    2.46    3.39
  -8  -4  -5   11.57    2.05
   8   4   5   11.02    2.41
   7  -5  -5    3.88   14.43
  -7   5   5    0.88    1.47
   6  -5  -5   20.61   15.14
   6  -5  -5   12.69    8.72
  -6   5   5   12.64    1.96
  -6   5   5   16.49    4.47
  -6   5   5   11.28    3.38
   5  -5  -5   12.26    7.14
   5  -5  -5    4.71   11.20
  -5   5   5   11.16    3.55
  -5   5   5    8.74    2.87
  -5   5   5   12.14    1.63
   4  -5  -5   17.35   12.20
   4  -5  -5   29.32    8.67
   4  -5  -5   26.11    6.46
  -4   5   5   25.55    2.03
  -4   5   5   27.61    3.97
  -4   5   5   18.47    3.62
   3  -5  -5   30.20    7.18
   3  -5  -5   25.94    7.54
   3  -5  -5   29.16   12.25
  -3   5   5   22.82    3.24
  -3   5   5   27.54    1.91
  -3   5   5   32.72    4.17
  -3   5   5   22.92    2.81
  -3   5   5   20.43    3.60
   2  -5  -5   44.60    7.83
   2  -5  -5   38.02   11.94
  -2   5   5   31.16    4.90
  -2   5   5   32.83    3.98
  -2   5   5   41.20    4.43
  -2   5   5   38.97    2.19
   1  -5  -5   28.79   10.11
   1  -5  -5   42.55    8.54
  -1   5   5   32.41    1.83
  -1   5   5   29.66    3.92
  -1   5   5   27.30    3.02
  -1   5   5   25.19    3.28
  -1   5   5   28.91    2.11
   0  -5  -5   30.68    8.95
   0  -5  -5   14.16    7.81
   0  -5  -5   12.78    5.23
   0   5   5   13.11    1.33
   0   5   5   13.84    2.13
   0   5   5   12.67    1.10
   0   5   5   10.43    2.73
   0   5   5   11.48    1.99
  -1  -5  -5   90.25   12.44
  -1  -5  -5   84.31   13.70
  -1  -5  -5   87.68    4.82
   1   5   5   92.97    4.69
   1   5   5   86.45    6.32
   1   5   5   93.73    7.18
   1   5   5   89.72    4.76
   1   5   5   86.32    5.62
  -2  -5  -5   22.53    7.08
  -2  -5  -5   50.72   11.31
  -2  -5  -5   23.49    6.91
  -2  -5  -5   21.18    2.44
   2   5   5   20.95    2.29
   2   5   5   17.79    2.74
   2   5   5   19.23    1.60
   2   5   5   17.92    3.36
  -3  -5  -5   50.51    9.91
  -3  -5  -5   60.33    4.68
  -3  -5  -5   56.44    3.17
  -3  -5  -5   56.34    3.12
  -3  -5  -5   81.48    9.32
   3   5   5   58.36    5.11
   3   5   5   59.76    4.60
   3   5   5   63.67    3.59
   3   5   5   59.29    5.60
  -4  -5  -5    4.06    0.88
  -4  -5  -5    5.54    2.09
  -4  -5  -5    8.87    6.60
  -4  -5  -5    3.22    0.88
  -4  -5  -5    1.38    4.34
   4   5   5    3.25    1.12
   4   5   5    4.43    2.51
   4   5   5    7.68    3.14
  -5  -5  -5   42.56    2.76
  -5  -5  -5   37.93   10.07
   5   5   5   40.34    3.11
   5   5   5   44.87    5.82
  -6  -5  -5    0.79    1.08
  -6  -5  -5    0.28    5.97
   6   5   5    6.02    3.27
   6   5   5    0.48    1.20
  -7  -5  -5   25.02    2.52
   7   5   5   24.93    5.52
   7   5   5   21.84    2.93
  -8  -5  -5    0.35    1.37
   8   5   5    8.97    4.59
   8   5   5    3.58    1.80
   6  -6  -5   14.77   15.23
   6  -6  -5    7.41    8.80
  -6   6   5    4.59    3.71
  -6   6   5    4.85    3.23
   5  -6  -5    7.02    7.33
   5  -6  -5    0.44   12.79
  -5   6   5    1.62    2.26
  -5   6   5    1.14    2.79
   4  -6  -5   18.70    7.83
   4  -6  -5    9.20   12.72
   4  -6  -5   16.30    5.68
  -4   6   5   16.10    3.19
  -4   6   5   12.32    3.11
  -4   6   5   14.30    1.59
   3  -6  -5   37.25    9.37
   3  -6  -5   21.41   12.76
   3  -6  -5   26.56    7.22
  -3   6   5   26.15    1.86
  -3   6   5   21.80    3.77
  -3   6   5   24.50    3.29
  -3   6   5   21.91    3.46
   2  -6  -5   23.86   12.37
   2  -6  -5   32.78    8.32
  -2   6   5   29.77    3.28
  -2   6   5   20.05    3.28
  -2   6   5   26.58    3.46
  -2   6   5   19.57    4.72
  -2   6   5   27.48    1.70
   1  -6  -5   11.57    9.48
   1  -6  -5   22.85    8.87
   1  -6  -5    9.66    5.64
  -1   6   5   10.65    1.27
  -1   6   5    7.25    3.60
  -1   6   5   12.60    2.13
  -1   6   5   10.98    1.02
  -1   6   5    7.52    2.11
  -1   6   5    8.67    2.43
   0  -6  -5   84.47   16.01
   0  -6  -5  102.78   14.07
   0   6   5   89.06    4.80
   0   6   5   86.56    7.63
   0   6   5   93.93    4.69
   0   6   5   97.46    6.61
   0   6   5   94.85    5.62
  -1  -6  -5    5.99    6.57
  -1  -6  -5    5.04    5.05
  -1  -6  -5    7.82    7.23
   1   6   5    4.81    1.40
   1   6   5    4.75    0.82
   1   6   5    2.03    1.41
   1   6   5    5.03    2.33
   1   6   5    3.52    0.74
  -2  -6  -5  110.84   15.52
  -2  -6  -5   69.45   12.21
  -2  -6  -5   72.66   12.59
   2   6   5   80.38    6.12
   2   6   5   67.79    5.29
   2   6   5   78.65    6.28
   2   6   5   71.30    4.11
  -3  -6  -5    2.79    1.52
  -3  -6  -5    3.01    6.76
  -3  -6  -5    3.98    5.55
  -3  -6  -5    5.44    6.04
   3   6   5    0.93    2.04
   3   6   5    2.59    0.94
   3   6   5    2.95    0.91
   3   6   5    0.39    2.47
  -4  -6  -5   52.00    2.92
  -4  -6  -5   56.54   12.85
  -4  -6  -5   89.92   13.80
   4   6   5   39.82    5.26
   4   6   5   54.29    3.52
  -5  -6  -5   -2.82    5.41
  -5  -6  -5    0.29    0.77
  -5  -6  -5   -0.93    4.51
   5   6   5    1.62    1.22
   5   6   5   -1.45    2.60
  -6  -6  -5   37.21    2.81
  -6  -6  -5   79.74   16.05
   6   6   5   39.22    3.49
   6   6   5   46.99    6.54
  -7  -6  -5    0.27    1.17
   7   6   5    0.99    1.61
   7   6   5   -0.76    2.79
   7   6   5    4.25    1.99
  -8  -6  -5    9.38    1.91
   8   6   5   15.18    5.00
   6  -7  -5   16.89   17.00
   5  -7  -5    9.36   15.18
   5  -7  -5   12.40    8.76
  -5   7   5    8.13    3.27
  -5   7   5   11.14    3.51
   4  -7  -5   20.47   15.37
   4  -7  -5   17.36    8.53
  -4   7   5   10.60    3.19
  -4   7   5    7.97    2.86
   3  -7  -5   27.42    8.87
   3  -7  -5   18.16    7.33
   3  -7  -5   27.12   14.63
  -3   7   5   25.71    3.44
  -3   7   5   16.62    3.43
   2  -7  -5    2.39    4.85
   2  -7  -5   10.70   12.54
   2  -7  -5   12.86    8.72
  -2   7   5    2.19    3.03
  -2   7   5    2.17    1.87
  -2   7   5    2.06    1.63
  -2   7   5    1.15    1.80
   1  -7  -5   65.89   17.31
   1  -7  -5   53.98   11.96
  -1   7   5   36.93    4.57
  -1   7   5   53.13    3.56
  -1   7   5   48.43    3.77
  -1   7   5   29.47    7.35
   0  -7  -5    1.86    6.49
   0  -7  -5   -2.59    3.88
   0  -7  -5   -1.65    8.89
   0   7   5   -0.17    0.47
   0   7   5   -0.23    1.07
   0   7   5   -0.50    1.25
   0   7   5   -0.67    1.90
  -1  -7  -5   86.54   15.89
  -1  -7  -5   64.03   12.13
   1   7   5   66.19    4.50
   1   7   5   67.36    5.43
   1   7   5   64.32    5.78
   1   7   5   68.66    3.59
  -2  -7  -5    2.22    6.88
  -2  -7  -5    1.46    6.67
  -2  -7  -5   -0.11    4.80
   2   7   5    0.73    0.67
   2   7   5   -0.29    1.46
   2   7   5   -0.25    0.92
   2   7   5    2.60    2.41
  -3  -7  -5   62.50   12.67
  -3  -7  -5   73.52   15.78
  -3  -7  -5   31.06   10.03
   3   7   5   37.95    5.19
   3   7   5   33.41    2.52
   3   7   5   33.02    4.20
  -4  -7  -5    9.91    9.00
  -4  -7  -5    5.47    7.27
   4   7   5    4.00    1.21
   4   7   5    2.90    2.58
  -5  -7  -5   67.01   15.51
   5   7   5   24.04    2.67
   5   7   5   27.89    5.02
  -6  -7  -5   -1.13    7.31
   6   7   5    3.23    1.62
   6   7   5    7.03    3.52
   6   7   5    2.98    1.80
  -7  -7  -5   21.48   11.90
   7   7   5    8.77    2.17
   7   7   5    7.69    2.50
   7   7   5   11.27    4.41
   5  -8  -5    4.64   16.58
   4  -8  -5   21.34    9.98
   4  -8  -5   21.91   16.73
  -4   8   5   11.70    3.55
   3  -8  -5   -8.96   12.97
   3  -8  -5   -1.49    7.89
  -3   8   5   -2.24    2.09
  -3   8   5   -0.44    1.96
   2  -8  -5   21.14    8.71
   2  -8  -5   11.62   12.86
   2  -8  -5   62.48   15.65
  -2   8   5   19.27    3.71
  -2   8   5   25.14    2.69
  -2   8   5   21.66    2.63
   1  -8  -5    5.70    8.15
   1  -8  -5    3.12    5.70
   1  -8  -5   17.20   13.09
  -1   8   5    3.53    1.91
  -1   8   5    3.78    1.12
  -1   8   5    3.76    3.63
  -1   8   5    2.51    1.09
   0  -8  -5   42.36   15.49
   0  -8  -5   71.33   16.89
   0  -8  -5   37.86   11.23
   0   8   5   36.72    3.24
   0   8   5   39.44    2.67
   0   8   5   33.78    4.22
  -1  -8  -5    6.06    9.72
  -1  -8  -5    3.61    6.00
  -1  -8  -5    0.43    7.63
   1   8   5    1.32    1.29
   1   8   5    1.92    2.11
   1   8   5    0.01    1.16
  -2  -8  -5   32.19   10.80
  -2  -8  -5   47.16   15.08
  -2  -8  -5   47.16   12.64
   2   8   5   27.48    3.40
   2   8   5   29.33    4.23
   2   8   5   29.73    3.23
  -3  -8  -5   -4.77    7.32
  -3  -8  -5    9.02    9.28
  -3  -8  -5    5.14    6.46
   3   8   5    1.94    2.07
  -4  -8  -5   30.16   12.85
   4   8   5   25.96    2.41
   4   8   5   27.29    4.39
  -5  -8  -5    5.74    9.00
   5   8   5    6.61    2.31
   5   8   5    5.81    1.62
   5   8   5    4.67    3.04
  -6  -8  -5   20.03   11.47
   6   8   5   12.44    2.21
   6   8   5   16.98    4.45
   6   8   5    7.05    2.67
  -7  -8  -5    4.45   10.49
   7   8   5    5.72    1.98
   4  -9  -5    9.11   17.03
   3  -9  -5   14.93   10.86
   3  -9  -5    3.82   14.72
  -3   9   5    4.74    2.07
  -3   9   5    7.38    2.76
   2  -9  -5   -1.01    8.34
   2  -9  -5   10.37   15.62
  -2   9   5    2.98    2.15
   1  -9  -5   58.24   16.64
   1  -9  -5   14.20   14.42
  -1   9   5   11.30    2.66
  -1   9   5   13.06    5.67
  -1   9   5   15.82    3.16
   0  -9  -5   -0.81   10.73
   0  -9  -5   -0.69    8.75
   0   9   5    5.10    4.18
   0   9   5   -0.57    1.42
  -1  -9  -5   21.16   12.57
  -1  -9  -5   38.33   15.08
   1   9   5   19.08    3.07
   1   9   5   26.31    2.42
   1   9   5   20.13    2.81
  -2  -9  -5    5.59   10.54
  -2  -9  -5    8.00   10.68
   2   9   5    2.98    2.63
   2   9   5    7.20    2.08
   2   9   5    4.71    2.19
  -3  -9  -5   23.32   12.62
  -3  -9  -5   24.29   13.21
   3   9   5   11.70    2.89
   3   9   5    6.60    2.38
  -4  -9  -5   14.56   11.19
   4   9   5   12.99    3.42
   4   9   5    5.06    2.25
  -5  -9  -5   17.20   12.35
   5   9   5   10.34    2.92
   5   9   5    7.97    3.55
  -6  -9  -5   10.61   12.30
   2 -10  -5   19.50   16.98
   2 -10  -5   33.58   15.48
  -2  10   5   12.15    3.31
   1 -10  -5    8.25   12.22
   1 -10  -5   12.49   14.66
  -1  10   5    4.25    2.41
  -1  10   5    5.70    1.93
   0 -10  -5   15.12   15.01
   0 -10  -5   26.21   14.12
   0  10   5   13.10    5.74
   0  10   5    5.87    2.19
  -1 -10  -5   13.35   12.43
  -1 -10  -5    5.65   13.21
  -2 -10  -5    9.02   13.24
  -2 -10  -5   11.22   12.66
   2  10   5    7.57    1.99
   2  10   5    6.18    2.41
  -3 -10  -5   -1.54   11.72
  -3 -10  -5   20.58   14.16
   3  10   5    7.66    2.56
   3  10   5    6.89    2.52
  -4 -10  -5    5.53   13.61
  -1 -11  -5    6.37   14.35
  -1 -11  -5   -2.96   14.40
  -1  -9   6    0.56   12.86
   0  -9   6   -5.88   11.42
  -3  -8   6    5.95   12.87
   2   8  -6    7.71    3.56
   2   8  -6    4.39    5.65
   2   8  -6    6.60    5.32
  -2  -8   6    5.14   13.07
   1   8  -6    1.46    4.71
   1   8  -6    1.43    4.74
   1   8  -6   -0.38    2.59
  -1  -8   6    2.33   11.40
   0   8  -6   13.87    7.50
   0   8  -6   18.24    5.98
   0   8  -6   15.88    3.99
   0  -8   6    7.99   11.77
  -1   8  -6    1.18    2.39
  -1   8  -6    1.73    5.86
  -1   8  -6   -2.85    4.63
   1  -8   6   -3.30   10.36
  -2   8  -6    8.90    5.46
  -2   8  -6    4.07    6.69
   2  -8   6    9.58   11.76
   3  -8   6    0.76    8.47
   5   7  -6   14.18    6.77
   5   7  -6    7.89    2.70
   5   7  -6    9.15    5.77
  -5  -7   6   -1.81   11.77
   4   7  -6    3.13    5.53
   4   7  -6    1.56    4.52
   4   7  -6   -1.44    2.58
   4   7  -6   -1.24    1.72
  -4  -7   6    1.14   12.06
   3   7  -6    2.63    5.12
   3   7  -6   11.10    2.39
   3   7  -6    5.45    3.16
   3   7  -6   10.11    5.42
  -3  -7   6    4.37   11.01
   2   7  -6    0.16    2.37
   2   7  -6    4.87    4.66
   2   7  -6    0.49    1.61
   2   7  -6    1.30    4.30
  -2  -7   6    7.64   11.55
   1   7  -6   34.76    3.53
   1   7  -6   30.11    6.53
   1   7  -6   28.78    4.99
   1   7  -6   21.95    8.50
  -1  -7   6   22.30   14.47
   0   7  -6    0.66    2.20
   0   7  -6   -1.56    4.54
   0   7  -6   -1.97    4.22
   0   7  -6   -1.26    1.57
   0  -7   6   -1.44    8.92
  -1   7  -6   14.94    7.49
  -1   7  -6   18.23    3.92
  -1   7  -6   25.31    3.23
  -1   7  -6   24.77    6.56
   1  -7   6   10.32   11.40
  -2   7  -6    2.43    4.34
  -2   7  -6   -1.01    5.02
  -2   7  -6   -1.02    1.94
   2  -7   6    1.63    8.28
  -3   7  -6    6.04    7.21
  -3   7  -6   14.76    5.02
   3  -7   6    4.93    8.40
   3  -7   6   16.13    6.87
  -4   7  -6    6.65    4.27
  -4   7  -6    1.10    6.27
   4  -7   6    5.43    7.57
   4  -7   6   10.44    6.87
   5  -7   6   11.05    7.91
   6   6  -6    7.25    5.94
  -6  -6   6   17.76   13.81
   5   6  -6    4.56    4.31
   5   6  -6   -5.45    4.09
   5   6  -6    0.66    2.94
   5   6  -6    2.66    1.92
  -5  -6   6   -0.39    9.93
  -5  -6   6    0.28    1.37
   4   6  -6    9.70    5.79
   4   6  -6    6.87    3.46
   4   6  -6   12.25    2.59
   4   6  -6    8.99    5.08
  -4  -6   6   10.99    1.68
  -4  -6   6    6.29   11.58
   3   6  -6    1.05    4.26
   3   6  -6    0.11    1.47
   3   6  -6    1.13    4.41
   3   6  -6   -0.70    2.28
  -3  -6   6   -1.77    9.71
  -3  -6   6   -1.68    0.88
   2   6  -6   31.56    5.01
   2   6  -6   31.27    6.78
   2   6  -6   34.94    3.43
   2   6  -6   15.49    6.80
  -2  -6   6   28.46    2.27
  -2  -6   6   24.85   13.97
   1   6  -6    1.49    2.15
   1   6  -6    1.85    1.54
   1   6  -6   -2.39    4.25
   1   6  -6   -1.08    4.04
  -1  -6   6    3.30    9.83
   0   6  -6   31.88    6.85
   0   6  -6   29.15    4.36
   0   6  -6   28.96    8.78
   0   6  -6   32.44    3.25
   0  -6   6   23.43   12.57
  -1   6  -6    2.48    1.71
  -1   6  -6    0.04    1.79
  -1   6  -6   -2.81    3.92
  -1   6  -6    0.33    4.61
   1  -6   6    1.46    3.51
   1  -6   6   -4.10    8.06
  -2   6  -6   16.38    5.61
  -2   6  -6   19.93    3.47
  -2   6  -6   17.97    7.67
  -2   6  -6   23.82    3.11
   2  -6   6   13.24   10.03
   2  -6   6   13.31    5.59
  -3   6  -6    8.77    2.49
  -3   6  -6    8.41    6.44
  -3   6  -6    5.40    4.09
  -3   6  -6   12.40    2.37
   3  -6   6    7.11    8.17
   3  -6   6    4.56    5.41
  -4   6  -6   22.99    3.00
  -4   6  -6   16.77    5.30
  -4   6  -6   22.64    8.95
   4  -6   6   10.87    8.56
   4  -6   6   16.67    7.26
  -5   6  -6    4.33    4.25
  -5   6  -6    2.55    7.26
   5  -6   6    0.39    6.69
   6   5  -6    0.90    3.05
   6   5  -6   -1.27    1.88
   6   5  -6    6.76    6.04
  -6  -5   6   -0.86    1.52
  -6  -5   6    0.45    9.52
   5   5  -6   14.75    4.01
   5   5  -6   13.37    6.22
   5   5  -6   12.62    2.48
  -5  -5   6   11.68   11.39
  -5  -5   6   14.51    2.18
   4   5  -6    1.22    2.43
   4   5  -6   -1.06    4.03
   4   5  -6   -0.54    1.58
   4   5  -6    2.75    3.87
  -4  -5   6    1.97    1.29
  -4  -5   6    2.09    9.90
   3   5  -6   28.07    4.81
   3   5  -6   46.51    7.15
   3   5  -6   35.61    3.33
   3   5  -6   18.53    7.18
  -3  -5   6   25.51   13.72
  -3  -5   6   35.27    2.68
   2   5  -6    7.86    1.88
   2   5  -6   11.35    5.13
   2   5  -6    7.75    2.74
   2   5  -6    5.28    4.57
  -2  -5   6    9.28   10.82
  -2  -5   6    5.32    1.29
   1   5  -6   47.34    5.45
   1   5  -6   52.10    3.82
   1   5  -6   48.43    7.46
  -1  -5   6   44.50    2.98
  -1  -5   6   43.99   15.38
   0   5  -6   -4.70    3.93
   0   5  -6    2.40    1.47
   0   5  -6    0.05    4.12
   0   5  -6    1.10    1.86
   0  -5   6    0.13    7.68
   0  -5   6    0.33    0.69
   0  -5   6    2.26    2.38
  -1   5  -6   29.92    3.25
  -1   5  -6   25.15    8.07
  -1   5  -6   30.55    3.94
  -1   5  -6   41.85    7.37
   1  -5   6   33.27    5.97
   1  -5   6   28.63    1.96
   1  -5   6   20.17   10.94
  -2   5  -6   20.68    2.85
  -2   5  -6   23.85    3.40
  -2   5  -6   15.31    5.41
  -2   5  -6   18.64    7.19
   2  -5   6   17.10    1.40
   2  -5   6   20.11    5.62
   2  -5   6   11.43    8.49
  -3   5  -6   33.02    6.66
  -3   5  -6   36.86    4.09
  -3   5  -6   35.45    9.67
  -3   5  -6   35.49    3.66
   3  -5   6   16.72    9.32
   3  -5   6   39.89    8.07
  -4   5  -6   25.81    8.18
  -4   5  -6   15.96    2.62
  -4   5  -6   11.23    4.77
   4  -5   6   11.43    7.70
   4  -5   6   27.58    7.55
  -5   5  -6    8.83    2.16
  -5   5  -6    6.51    4.18
  -5   5  -6   17.62    7.74
   5  -5   6   13.69   11.41
   5  -5   6    6.54    6.20
  -6   5  -6   12.31    8.21
  -6   5  -6    4.50    4.44
   6  -5   6    9.16   13.16
   6  -5   6    8.77    6.94
  -7  -4   6    7.67    9.83
   6   4  -6   11.59    3.74
   6   4  -6   12.28    5.91
   6   4  -6   11.40    2.57
  -6  -4   6   11.59   11.47
  -6  -4   6   16.15    2.46
   5   4  -6    1.86    1.87
   5   4  -6    2.39    2.82
   5   4  -6    4.93    4.44
  -5  -4   6    0.65    1.46
  -5  -4   6   -0.14    1.38
  -5  -4   6   -3.08    8.54
   4   4  -6   26.01    6.08
   4   4  -6   28.99    3.17
   4   4  -6   26.25    4.60
  -4  -4   6   18.05   11.92
  -4  -4   6   21.19    3.28
  -4  -4   6   24.35    2.48
   3   4  -6   18.36    5.10
   3   4  -6   19.36    2.49
   3   4  -6    9.23    4.98
   3   4  -6   12.23    3.21
  -3  -4   6   18.14    2.01
   2   4  -6   56.66    7.45
   2   4  -6   57.04    4.11
   2   4  -6   58.64    6.01
   2   4  -6   54.01    6.49
  -2  -4   6   54.10    3.58
  -2  -4   6   59.96    6.53
   1   4  -6    9.04    4.30
   1   4  -6    7.10    4.52
   1   4  -6   12.75    2.90
   1   4  -6    6.51    3.03
   1   4  -6   14.13    2.11
  -1  -4   6   11.49    1.49
  -1  -4   6   13.00    1.57
  -1  -4   6   13.58    3.37
   0   4  -6   32.48    3.07
   0   4  -6   31.84    4.65
   0   4  -6   23.83    7.16
   0   4  -6   28.76    6.31
   0   4  -6   36.65    4.32
   0  -4   6   34.36    4.58
   0  -4   6   33.91    2.33
   0  -4   6   40.32    4.88
   0  -4   6   31.63    2.31
  -1   4  -6   64.45    4.04
  -1   4  -6   44.86    9.00
  -1   4  -6   43.06    7.16
  -1   4  -6   49.01    5.48
  -1   4  -6   52.88    5.12
   1  -4   6   60.59    6.84
   1  -4   6   46.00    4.78
   1  -4   6   44.75    3.06
  -2   4  -6   12.12    5.73
  -2   4  -6   15.08    2.71
  -2   4  -6    7.35    4.40
  -2   4  -6   11.88    2.15
  -2   4  -6   16.74    3.33
   2  -4   6   14.05    1.49
   2  -4   6   15.10    4.72
   2  -4   6   10.89    8.33
   2  -4   6   11.17    1.39
   2  -4   6    9.93    2.58
  -3   4  -6   35.77    3.42
  -3   4  -6   34.61    6.23
  -3   4  -6   38.23    9.02
  -3   4  -6   40.41    4.08
   3  -4   6   55.11    8.55
   3  -4   6   32.86   10.42
   3  -4   6   33.14    2.46
  -4   4  -6   15.88    5.17
  -4   4  -6   24.22    7.53
  -4   4  -6   17.05    2.57
  -4   4  -6   17.76    2.55
   4  -4   6   14.08    1.68
   4  -4   6   14.66    7.59
   4  -4   6   27.70    7.23
  -5   4  -6   19.30    5.44
  -5   4  -6   13.47    2.44
  -5   4  -6   26.99    8.92
   5  -4   6   32.52   12.64
   5  -4   6   28.82    8.30
   5  -4   6   14.00    1.73
  -6   4  -6    1.13    6.14
  -6   4  -6    2.71    4.38
   6  -4   6    0.10   10.18
   6  -4   6   -0.81    6.03
  -7   4  -6   37.82   10.87
  -7   4  -6   21.45    5.89
  -7   4  -6   19.51    2.82
   7   3  -6    9.51    3.45
  -7  -3   6   13.14    2.68
   6   3  -6    1.67    1.85
   6   3  -6   -1.34    2.50
  -6  -3   6    2.31    1.74
  -6  -3   6    0.32    1.90
  -6  -3   6    2.65    8.75
   5   3  -6   15.80    5.57
   5   3  -6   22.59    4.22
   5   3  -6   20.18    2.75
  -5  -3   6   16.45    2.34
  -5  -3   6   14.81    2.80
  -5  -3   6   15.21   11.70
   4   3  -6   23.66    4.21
   4   3  -6   24.47    5.81
   4   3  -6   25.33    2.96
  -4  -3   6   21.19    3.24
  -4  -3   6   18.79    2.28
   3   3  -6   34.62    5.07
   3   3  -6   38.74    4.67
   3   3  -6   35.97    6.34
   3   3  -6   38.76    3.15
  -3  -3   6   38.33    5.32
  -3  -3   6   41.25    2.91
  -3  -3   6   30.25    3.91
   2   3  -6   21.40    2.44
   2   3  -6   20.80    3.80
   2   3  -6   21.39    5.03
   2   3  -6   10.38    4.53
   2   3  -6   25.27    3.47
  -2  -3   6   12.24    2.61
  -2  -3   6   29.57    4.47
  -2  -3   6   18.49    1.83
   1   3  -6   36.57    4.11
   1   3  -6   24.39    6.73
   1   3  -6   35.32    2.84
   1   3  -6   39.74    6.06
  -1  -3   6   35.13    2.54
   0   3  -6   34.74    4.94
   0   3  -6   32.09    4.00
   0   3  -6   43.12    3.11
   0   3  -6   32.57    5.91
   0  -3   6   34.44    2.56
   0  -3   6   37.31    4.79
   0  -3   6   48.83    4.69
  -1   3  -6   15.30    5.51
  -1   3  -6   19.08    2.76
  -1   3  -6   19.32    5.18
  -1   3  -6   17.66    2.38
  -1   3  -6   16.33    3.47
   1  -3   6   17.15    3.30
   1  -3   6   17.70    1.80
   1  -3   6   33.32    4.82
   1  -3   6   17.01    1.84
  -2   3  -6   74.95    6.16
  -2   3  -6   71.37    4.82
  -2   3  -6   77.91    6.23
  -2   3  -6   73.82   10.75
  -2   3  -6   71.06    8.45
   2  -3   6   65.24    4.16
   2  -3   6   70.35    4.12
  -3   3  -6   23.68    2.82
  -3   3  -6   21.19    3.72
  -3   3  -6   23.21    5.41
  -3   3  -6   21.79    2.96
  -3   3  -6   18.73    6.45
   3  -3   6   19.61    3.40
   3  -3   6   20.65    1.95
   3  -3   6   41.34    6.99
  -4   3  -6   49.92    8.96
  -4   3  -6   36.12    6.49
  -4   3  -6   32.59    3.28
   4  -3   6   51.96    8.61
   4  -3   6   29.68    2.58
   4  -3   6   28.00    8.92
  -5   3  -6   -0.33    3.81
  -5   3  -6    0.90    4.59
  -5   3  -6    1.00    1.45
   5  -3   6    0.44    1.11
   5  -3   6    1.22    5.23
  -6   3  -6   62.56   12.51
  -6   3  -6   25.54    6.38
   6  -3   6   39.42   13.87
   6  -3   6   39.78    9.81
  -7   3  -6    1.32    4.22
  -7   3  -6    0.10    1.51
  -7   3  -6   -2.99    5.70
   7  -3   6    0.43    6.63
   7  -3   6   -0.32    1.34
   7   2  -6    2.39    2.21
  -7  -2   6    4.71    2.03
   6   2  -6    9.56    2.43
   6   2  -6    4.62    2.66
  -6  -2   6    3.13    2.44
  -6  -2   6    7.43    1.80
  -6  -2   6   10.36    9.52
   5   2  -6   18.03    2.78
   5   2  -6   22.97    5.78
   5   2  -6   23.29    3.94
  -5  -2   6   17.33    3.07
  -5  -2   6   21.56    2.57
   4   2  -6   15.04    2.26
   4   2  -6   15.00    3.26
   4   2  -6   12.25    4.65
  -4  -2   6   11.94    4.02
  -4  -2   6   12.91    1.84
  -4  -2   6   14.57    2.71
   3   2  -6   21.72    4.00
   3   2  -6   18.04    3.27
   3   2  -6   21.97    2.47
   3   2  -6   20.62    5.01
  -3  -2   6   20.48    3.06
  -3  -2   6   18.47    2.02
  -3  -2   6   27.04    4.46
   2   2  -6   75.36    6.50
   2   2  -6   68.37    4.38
   2   2  -6   73.62    8.19
   2   2  -6   62.75    5.85
  -2  -2   6   70.38    6.11
  -2  -2   6   68.63    6.20
  -2  -2   6   67.89    4.09
   1   2  -6   62.08    5.35
   1   2  -6   59.67    3.82
   1   2  -6   48.68    6.63
  -1  -2   6   60.20    3.45
  -1  -2   6   57.58    5.35
  -1  -2   6   43.66    5.08
   0   2  -6   16.35    2.63
   0   2  -6   16.84    2.03
   0   2  -6   10.87    4.30
   0   2  -6   13.96    3.25
   0   2  -6   21.27    4.77
   0  -2   6   13.71    1.67
   0  -2   6   17.12    3.35
   0  -2   6   12.49    1.51
  -1   2  -6  192.60    9.89
  -1   2  -6  200.76   13.19
  -1   2  -6  180.95   11.06
  -1   2  -6  193.19   13.95
  -1   2  -6  178.59   20.43
   1  -2   6  189.67   11.25
   1  -2   6  173.37    9.50
   1  -2   6  188.41    9.46
  -2   2  -6    6.20    1.69
  -2   2  -6    4.56    3.54
  -2   2  -6    4.26    1.54
  -2   2  -6    7.74    2.54
  -2   2  -6    4.76    4.02
   2  -2   6    4.56    0.97
   2  -2   6    0.68    1.10
  -3   2  -6   88.23   10.66
  -3   2  -6   63.50    4.48
  -3   2  -6   75.50    8.31
  -3   2  -6   65.08    5.61
  -3   2  -6   58.85    5.45
   3  -2   6   59.21    3.88
  -4   2  -6    2.43    2.36
  -4   2  -6    1.82    1.34
  -4   2  -6    1.76    4.02
  -4   2  -6   -1.17    3.33
   4  -2   6    0.05    0.97
   4  -2   6   -1.07    0.94
   4  -2   6    1.02    1.18
  -5   2  -6   48.83    7.26
  -5   2  -6   50.42    3.81
   5  -2   6   41.07    3.28
  -6   2  -6    1.75    3.68
  -6   2  -6   -1.39    4.90
   6  -2   6    0.88    1.28
   6  -2   6   -2.13    5.23
  -7   2  -6   30.82    3.46
  -7   2  -6   32.80    6.47
   7  -2   6   41.46   10.09
   7  -2   6   25.21    2.90
  -8   2  -6   10.34    5.12
  -8   2  -6   -1.00    6.41
   8  -2   6    0.43    1.58
   7   1  -6    7.74    2.57
  -7  -1   6    0.75    2.41
  -7  -1   6    6.23    1.98
   6   1  -6    8.78    2.64
   6   1  -6   12.35    2.44
  -6  -1   6    7.20    2.63
  -6  -1   6   13.56    2.13
   5   1  -6    9.44    4.40
   5   1  -6   12.25    3.80
   5   1  -6   13.20    2.40
   5   1  -6   15.09    2.97
  -5  -1   6   14.26    2.10
  -5  -1   6   11.40    3.77
  -5  -1   6   10.53    2.68
   4   1  -6   57.40    7.65
   4   1  -6   52.73    5.28
   4   1  -6   52.04    3.79
  -4  -1   6   45.38    4.94
  -4  -1   6   52.32    3.53
   3   1  -6   50.95    5.85
   3   1  -6   42.50    3.48
   3   1  -6   60.52    7.41
   3   1  -6   51.80    5.00
  -3  -1   6   55.82    5.07
  -3  -1   6   56.69    6.66
  -3  -1   6   58.94    5.80
  -3  -1   6   46.88    3.31
   2   1  -6   93.75    7.31
   2   1  -6   82.78    7.70
   2   1  -6   77.84    4.99
   2   1  -6   81.38    6.57
  -2  -1   6  101.43    7.39
  -2  -1   6   84.75    7.02
  -2  -1   6   83.18    7.17
  -2  -1   6   69.10    6.41
  -2  -1   6   82.46    4.78
   1   1  -6    3.59    1.15
   1   1  -6    2.50    2.32
   1   1  -6    7.70    3.40
   1   1  -6    2.98    1.43
  -1  -1   6    1.22    1.44
  -1  -1   6    1.41    0.85
  -1  -1   6    5.49    2.78
  -1  -1   6    5.21    2.43
   0   1  -6  163.59   10.02
   0   1  -6  160.97    8.42
   0   1  -6  176.27   12.07
   0   1  -6  167.92   11.43
   0   1  -6  130.26   16.89
   0  -1   6  163.63    8.19
   0  -1   6  165.46   10.09
   0  -1   6  156.06   10.49
   0  -1   6  147.69    8.36
  -1   1  -6    1.32    3.30
  -1   1  -6   -0.48    1.90
  -1   1  -6    2.89    2.78
  -1   1  -6    1.79    1.22
  -1   1  -6    2.27    1.29
   1  -1   6    1.08    0.85
   1  -1   6    1.91    2.11
   1  -1   6    1.60    0.84
   1  -1   6    0.20    2.41
  -2   1  -6  115.61    6.53
  -2   1  -6  126.62    9.63
  -2   1  -6  110.43    7.57
  -2   1  -6  130.15    9.07
   2  -1   6  112.83    7.81
   2  -1   6  116.83    6.17
   2  -1   6  108.07    8.51
   2  -1   6  102.91    9.17
  -3   1  -6    0.13    3.03
  -3   1  -6   -0.09    1.08
  -3   1  -6    2.99    3.21
  -3   1  -6    2.33    1.94
   3  -1   6   -0.24    1.07
   3  -1   6   -2.81    1.49
   3  -1   6   -0.23    0.84
  -4   1  -6   65.52    4.30
  -4   1  -6   58.16    5.54
  -4   1  -6   74.10    8.05
   4  -1   6   62.81    3.89
   4  -1   6   52.74    5.12
   4  -1   6   62.08    5.66
  -5   1  -6    9.78    2.01
  -5   1  -6   18.71    6.53
  -5   1  -6   13.05    4.64
   5  -1   6   10.75    3.30
   5  -1   6    8.66    1.69
  -6   1  -6   43.97    7.00
  -6   1  -6   44.03    3.57
   6  -1   6   45.28    3.50
  -7   1  -6    4.25    4.18
  -7   1  -6   13.70    7.45
  -7   1  -6    3.94    1.63
   7  -1   6   12.16    7.16
   7  -1   6    2.24    1.58
  -8   1  -6   26.35    9.97
   8  -1   6   22.17    8.79
   7   0  -6    8.78    2.42
  -7   0   6   13.94    2.49
  -7   0   6   10.66    3.16
   6   0  -6   -1.21    3.57
   6   0  -6    1.02    1.69
   6   0  -6   -2.06    1.62
  -6   0   6    7.16    3.91
  -6   0   6    0.31    1.84
  -6   0   6    2.40    1.45
   5   0  -6   57.02    5.40
   5   0  -6   47.53    7.44
   5   0  -6   52.08    7.94
   5   0  -6   57.41    4.17
  -5   0   6   60.26    6.91
  -5   0   6   56.14    3.89
  -5   0   6   52.67    5.50
   4   0  -6   13.49    3.21
   4   0  -6    7.71    1.90
   4   0  -6   10.01    3.66
   4   0  -6   12.41    4.33
   4   0  -6    8.61    2.22
  -4   0   6    5.84    2.05
  -4   0   6    9.45    1.65
  -4   0   6   11.64    3.66
  -4   0   6    7.22    3.00
   3   0  -6   69.50    4.43
   3   0  -6   66.45    5.92
   3   0  -6   64.83    7.50
  -3   0   6   72.00    6.67
  -3   0   6   59.92    5.96
  -3   0   6   87.28    7.20
  -3   0   6   66.41    4.01
   2   0  -6   -0.15    1.43
   2   0  -6   -0.59    0.85
   2   0  -6   -0.35    1.84
   2   0  -6    2.12    2.75
   2   0  -6   -0.22    1.13
  -2   0   6   -0.14    1.19
  -2   0   6    0.11    0.78
  -2   0   6    2.19    2.59
  -2   0   6    0.57    1.73
  -2   0   6    2.66    2.27
   1   0  -6  139.36    9.20
   1   0  -6  117.33    6.36
   1   0  -6  100.97   12.28
   1   0  -6  110.81    7.62
   1   0  -6  119.49    8.91
  -1   0   6  113.33    7.91
  -1   0   6  113.68    6.10
  -1   0   6  105.97   10.09
  -1   0   6  121.22    8.74
   0   0  -6    6.32    2.53
   0   0  -6   10.96    1.72
   0   0  -6   11.67    2.06
   0   0  -6   10.34    1.32
   0   0  -6    8.16    3.65
   0   0  -6   10.77    3.13
   0   0   6    6.11    2.84
   0   0   6   10.39    2.99
   0   0   6   10.67    1.35
   0   0   6    8.23    3.31
   0   0   6    9.51    1.95
   0   0   6    6.11    1.34
  -1   0  -6  191.47   11.95
  -1   0  -6  176.61    8.64
  -1   0  -6  192.72   12.76
  -1   0  -6  163.61    9.95
  -1   0  -6  174.57    8.84
  -1   0  -6  190.63   12.61
   1   0   6  145.76    8.60
   1   0   6  172.82   10.37
   1   0   6  135.30   12.71
   1   0   6  166.71    8.56
   1   0   6  151.63   10.77
   1   0   6  157.44   12.44
  -2   0  -6   -0.76    0.99
  -2   0  -6    1.64    2.98
  -2   0  -6   -1.50    1.45
  -2   0  -6    1.21    1.06
  -2   0  -6    0.09    2.46
   2   0   6    1.25    0.79
   2   0   6   -2.74    1.65
   2   0   6   -2.80    2.24
   2   0   6    0.25    0.92
  -3   0  -6   99.85    8.10
  -3   0  -6   96.03    5.34
  -3   0  -6   93.43    6.57
   3   0   6   88.17    5.04
   3   0   6   86.33    7.07
   3   0   6   90.19    6.79
   3   0   6   78.59    7.47
  -4   0  -6   37.01    4.58
  -4   0  -6   35.60    5.65
  -4   0  -6   33.03    2.84
   4   0   6   26.34    3.21
   4   0   6   27.65    2.37
   4   0   6   27.28    4.19
  -5   0  -6   57.69    6.02
  -5   0  -6   68.24    7.86
   5   0   6   63.72    6.22
   5   0   6   62.20    4.08
  -6   0  -6   14.96    4.77
  -6   0  -6   11.76    2.00
   6   0   6   13.49    2.02
  -7   0  -6   17.76    2.55
  -7   0  -6   17.66    5.19
   7   0   6   15.15    2.44
  -8   0  -6   14.40    8.08
  -8   0  -6    4.16    1.89
   8   0   6    2.68    1.73
   8   0   6    8.79    7.31
   7  -1  -6   -1.82    1.73
  -7   1   6   -1.46    2.25
  -7   1   6    0.44    3.76
  -7   1   6   -0.91    1.41
   6  -1  -6   24.38    6.70
   6  -1  -6   26.35    3.12
  -6   1   6   26.26    5.21
  -6   1   6   28.77    4.44
  -6   1   6   31.21    3.07
   5  -1  -6    2.93    3.89
   5  -1  -6    2.30    1.69
   5  -1  -6    0.83    1.45
  -5   1   6    2.65    1.21
  -5   1   6    4.13    3.23
  -5   1   6    1.63    1.91
   4  -1  -6   66.53    4.41
   4  -1  -6   69.47    8.07
   4  -1  -6   61.49    8.22
   4  -1  -6   62.94    5.67
  -4   1   6   64.81    7.55
  -4   1   6   64.94    3.97
  -4   1   6   65.12    6.10
  -4   1   6   61.40    5.94
   3  -1  -6    0.83    1.32
   3  -1  -6   -0.19    1.09
   3  -1  -6    3.85    2.87
   3  -1  -6    0.32    0.93
   3  -1  -6    1.31    1.02
  -3   1   6    0.67    2.17
  -3   1   6    0.67    1.40
  -3   1   6    0.59    0.86
  -3   1   6    1.95    2.60
   2  -1  -6   94.70    6.86
   2  -1  -6   84.62    8.37
   2  -1  -6   78.97    7.05
   2  -1  -6   74.00    4.74
  -2   1   6   84.67    6.35
  -2   1   6   76.79    4.46
  -2   1   6   77.67    6.93
  -2   1   6   72.89    8.23
  -2   1   6   81.28    6.84
   1  -1  -6   11.27    3.46
   1  -1  -6   15.61    2.57
   1  -1  -6    9.37    2.72
   1  -1  -6   12.88    2.17
   1  -1  -6   10.94    1.31
   1  -1  -6   12.71    1.72
  -1   1   6   13.99    2.91
  -1   1   6   11.15    2.01
  -1   1   6   10.00    2.16
  -1   1   6    9.06    3.32
  -1   1   6   11.06    1.35
  -1   1   6   16.56    3.79
   0  -1  -6  188.41   13.12
   0  -1  -6  174.39    8.83
   0  -1  -6  179.96    9.11
   0  -1  -6  181.30   13.41
   0  -1  -6  180.78   11.81
   0  -1  -6  181.79   10.62
   0   1   6  170.82   10.53
   0   1   6  172.61   11.37
   0   1   6  158.93    9.00
   0   1   6  172.90   12.99
   0   1   6  171.73    8.87
  -1  -1  -6    2.13    0.71
  -1  -1  -6    1.68    1.01
  -1  -1  -6    1.39    0.96
  -1  -1  -6    2.06    2.84
  -1  -1  -6    0.80    2.29
  -1  -1  -6   -0.07    1.76
   1   1   6    4.35    2.84
   1   1   6    0.29    2.00
   1   1   6    1.01    0.80
   1   1   6    1.16    1.38
   1   1   6    2.07    2.05
   1   1   6    0.98    1.08
   1   1   6    0.73    0.90
  -2  -1  -6  115.87    8.03
  -2  -1  -6  102.97    5.71
  -2  -1  -6   99.58    5.46
  -2  -1  -6   93.97    6.70
  -2  -1  -6  105.78    8.16
   2   1   6   89.34    7.68
   2   1   6   93.83    7.01
   2   1   6   96.32    5.46
   2   1   6  104.92   11.62
   2   1   6   98.32    7.82
  -3  -1  -6   32.30    4.94
  -3  -1  -6   31.72    3.99
  -3  -1  -6   33.55    2.57
  -3  -1  -6   30.79    3.01
   3   1   6   28.48    4.06
   3   1   6   27.89    2.26
   3   1   6   25.12    4.66
  -4  -1  -6   66.86    4.19
  -4  -1  -6   70.35    6.84
  -4  -1  -6   67.22    5.69
   4   1   6   67.81    7.70
   4   1   6   55.54    5.68
   4   1   6   63.19    4.06
  -5  -1  -6   27.14    5.21
  -5  -1  -6   44.13    6.75
  -5  -1  -6   27.53    2.60
   5   1   6   27.88    4.69
   5   1   6   30.34    2.76
  -6  -1  -6   30.47    5.87
  -6  -1  -6   28.03    5.58
  -6  -1  -6   31.00    2.75
   6   1   6   31.96    5.24
   6   1   6   21.14    2.78
  -7  -1  -6   23.14    7.88
  -7  -1  -6   20.14    5.27
  -7  -1  -6   10.70    2.14
   7   1   6   10.50    2.26
  -8  -1  -6    2.28    1.80
   8   1   6    5.01    2.07
   7  -2  -6   12.06   14.25
   7  -2  -6   15.23    7.31
   7  -2  -6    9.67    2.36
  -7   2   6   12.56    2.29
  -7   2   6   13.35    3.58
  -7   2   6   20.55    5.60
   6  -2  -6   -1.17    1.50
   6  -2  -6    0.84    5.18
   6  -2  -6   -4.62   10.93
  -6   2   6    0.14    1.22
  -6   2   6    0.44    3.44
  -6   2   6    0.72    2.04
   5  -2  -6   41.46    8.38
   5  -2  -6   40.85    3.54
  -5   2   6   50.56    6.08
  -5   2   6   41.02    5.13
  -5   2   6   47.82    3.32
   4  -2  -6    2.04    1.13
   4  -2  -6   -0.63    1.09
   4  -2  -6   -1.00    1.03
   4  -2  -6    0.75    3.96
  -4   2   6    0.19    0.88
  -4   2   6    2.35    2.48
  -4   2   6    0.24    2.44
  -4   2   6    0.79    1.78
   3  -2  -6   69.95    8.64
   3  -2  -6   56.13    5.48
   3  -2  -6   66.03    4.13
  -3   2   6   73.83    6.13
  -3   2   6   66.15    3.84
  -3   2   6   60.84    6.27
   2  -2  -6   32.43    3.34
   2  -2  -6   31.75    2.55
   2  -2  -6   35.24    4.58
   2  -2  -6   32.14    2.10
  -2   2   6   36.03    3.78
  -2   2   6   32.80    4.96
  -2   2   6   32.61    2.27
  -2   2   6   37.27    4.28
   1  -2  -6  175.90    8.74
   1  -2  -6  163.24    8.38
   1  -2  -6  168.60   10.64
  -1   2   6  154.19   10.80
  -1   2   6  148.54   14.71
  -1   2   6  164.68    8.47
  -1   2   6  187.47   13.00
  -1   2   6  171.18   12.73
  -1   2   6  169.64    9.99
   0  -2  -6   45.16    4.25
   0  -2  -6   39.47    3.90
   0  -2  -6   37.84    2.49
   0  -2  -6   44.29    2.78
   0   2   6   39.98    2.59
   0   2   6   41.38    3.93
   0   2   6   48.18    3.91
   0   2   6   40.69    5.15
   0   2   6   47.98    4.69
   0   2   6   39.73    2.77
   0   2   6   39.40    5.18
  -1  -2  -6   92.56    6.52
  -1  -2  -6  105.10    5.43
  -1  -2  -6  100.03    5.22
  -1  -2  -6  103.31    7.89
   1   2   6   92.78    7.41
   1   2   6   96.36    5.30
   1   2   6  104.47    6.94
   1   2   6   94.75    5.39
  -2  -2  -6   41.65    4.07
  -2  -2  -6   43.50    3.81
  -2  -2  -6   39.87    2.83
  -2  -2  -6   45.89    2.58
  -2  -2  -6   42.17    5.18
   2   2   6   40.65    3.98
   2   2   6   45.64    4.44
   2   2   6   42.27    2.75
   2   2   6   42.52    5.38
  -3  -2  -6   73.18    4.16
  -3  -2  -6   62.62    5.55
  -3  -2  -6   72.48    6.31
   3   2   6   66.16    6.46
   3   2   6   71.84    4.09
   3   2   6   75.64    5.88
  -4  -2  -6   82.31    6.19
  -4  -2  -6   80.48    6.98
   4   2   6   69.13    4.51
   4   2   6   70.34    6.39
   4   2   6   79.60    7.53
  -5  -2  -6   49.66    4.19
  -5  -2  -6   48.61    8.07
  -5  -2  -6   43.84    6.17
  -5  -2  -6   42.99    3.24
   5   2   6   46.28    3.48
   5   2   6   41.21    6.62
   5   2   6   51.15    6.31
  -6  -2  -6   28.61    6.91
  -6  -2  -6   31.01    2.76
  -6  -2  -6   33.31    5.84
   6   2   6   32.53    3.04
   6   2   6   26.73    5.10
  -7  -2  -6    5.72    1.72
   7   2   6    3.07    1.66
  -8  -2  -6   13.64    2.29
   8   2   6   16.11    2.76
   7  -3  -6    0.97   12.85
   7  -3  -6    6.82    6.99
  -7   3   6    1.58    2.67
  -7   3   6    0.45    1.60
  -7   3   6    4.52    4.12
   6  -3  -6   25.02   14.75
   6  -3  -6   24.59    7.81
   6  -3  -6   30.87    3.16
  -6   3   6   28.09    2.80
  -6   3   6   24.92    4.34
  -6   3   6   29.97    5.29
   5  -3  -6    5.87    3.91
   5  -3  -6    0.89    1.33
   5  -3  -6   -1.67   11.19
   5  -3  -6    0.00    4.41
  -5   3   6    0.12    1.87
  -5   3   6    0.29    2.75
  -5   3   6   -0.31    1.01
   4  -3  -6   46.13   14.37
   4  -3  -6   40.73    7.92
   4  -3  -6   31.23    2.81
  -4   3   6   41.40    5.00
  -4   3   6   37.27    4.43
  -4   3   6   33.96    2.54
   3  -3  -6   25.62    6.12
   3  -3  -6   21.54    4.19
   3  -3  -6   20.43    2.12
   3  -3  -6   19.53    1.61
  -3   3   6   21.95    1.89
  -3   3   6   24.35    3.51
  -3   3   6   28.49    4.64
   2  -3  -6  100.17    5.47
   2  -3  -6  104.53    5.84
   2  -3  -6  115.14    8.15
  -2   3   6  113.49    8.95
  -2   3   6  119.75    7.56
  -2   3   6  108.84    8.31
  -2   3   6  108.11    5.65
   1  -3  -6   72.26    3.81
   1  -3  -6   75.46    4.15
   1  -3  -6   72.21    6.21
  -1   3   6   62.56    7.29
  -1   3   6   76.99    4.03
  -1   3   6   76.61    5.46
  -1   3   6   66.88    6.55
  -1   3   6   88.17    6.41
   0  -3  -6   88.08    6.83
   0  -3  -6   87.16    4.74
   0  -3  -6   98.12    4.98
   0   3   6   83.44    6.99
   0   3   6   85.75    5.08
   0   3   6   97.59    4.97
   0   3   6  103.34    7.56
   0   3   6   93.61    6.38
  -1  -3  -6   62.39    5.15
  -1  -3  -6   54.94    5.08
  -1  -3  -6   67.12    3.50
  -1  -3  -6   62.15    3.36
   1   3   6   61.17    5.61
   1   3   6   59.01    3.55
   1   3   6   61.64    3.52
   1   3   6   57.71    4.99
   1   3   6   59.72    5.16
  -2  -3  -6   22.81    1.76
  -2  -3  -6   25.62    2.62
  -2  -3  -6   26.75    3.85
  -2  -3  -6   26.72    1.99
  -2  -3  -6   37.33    6.02
   2   3   6   30.09    4.36
   2   3   6   31.32    2.95
   2   3   6   25.78    2.01
   2   3   6   24.05    3.44
  -3  -3  -6   86.84    4.69
  -3  -3  -6   88.86    6.83
   3   3   6   89.22    4.91
   3   3   6   83.33    6.49
   3   3   6   77.99    7.11
  -4  -3  -6   36.29    2.61
  -4  -3  -6   41.50    7.65
  -4  -3  -6   32.70    3.15
  -4  -3  -6   38.04    5.25
   4   3   6   35.60    2.77
   4   3   6   39.14    5.68
   4   3   6   34.91    4.83
  -5  -3  -6   40.37    3.99
  -5  -3  -6   53.19    8.80
  -5  -3  -6   53.13    3.37
  -5  -3  -6   47.06    5.97
   5   3   6   52.37    3.61
   5   3   6   52.44    6.28
  -6  -3  -6    0.68    1.20
  -6  -3  -6    1.52    3.43
   6   3   6    4.63    3.13
   6   3   6    2.82    1.39
  -7  -3  -6   22.86    2.66
   7   3   6   21.70    5.11
   7   3   6   18.39    2.73
  -8  -3  -6    1.11    1.36
   8   3   6    0.91    1.65
   7  -4  -6    9.25    7.75
   7  -4  -6   10.86   15.70
  -7   4   6   13.58    5.12
  -7   4   6    8.40    2.08
   6  -4  -6    2.91   12.38
   6  -4  -6    0.41    5.93
  -6   4   6    3.54    3.57
  -6   4   6    2.76    2.51
  -6   4   6    3.80    1.42
   5  -4  -6   19.06    7.27
   5  -4  -6   11.68    1.75
   5  -4  -6   12.08   12.29
  -5   4   6    9.70    2.97
  -5   4   6   13.79    1.79
  -5   4   6   20.51    4.06
   4  -4  -6   20.57   12.47
   4  -4  -6   15.86    1.85
   4  -4  -6   25.44    6.42
   4  -4  -6   23.08    7.51
  -4   4   6   16.91    1.76
  -4   4   6   19.99    3.76
  -4   4   6   17.05    3.39
   3  -4  -6   33.46   12.25
   3  -4  -6   49.77    8.77
   3  -4  -6   35.82    4.95
   3  -4  -6   34.13    2.45
  -3   4   6   32.78    4.35
  -3   4   6   33.15    5.01
  -3   4   6   35.70    2.43
   2  -4  -6  123.76   16.22
   2  -4  -6   94.40    4.84
   2  -4  -6   85.43    6.80
   2  -4  -6   84.97    4.63
  -2   4   6   94.75    4.93
  -2   4   6   89.17    7.38
  -2   4   6   98.05    8.10
  -2   4   6  104.18    6.77
   1  -4  -6   42.49    2.30
   1  -4  -6   44.25    2.43
   1  -4  -6   38.92    4.45
   1  -4  -6   48.48   11.14
  -1   4   6   45.67    4.39
  -1   4   6   43.31    5.36
  -1   4   6   49.24    4.20
  -1   4   6   47.38    2.67
   0  -4  -6   78.94   12.16
   0  -4  -6   61.02    4.77
   0  -4  -6   56.18    3.06
   0  -4  -6   59.78    3.17
   0   4   6   54.39    5.62
   0   4   6   64.92    3.47
   0   4   6   63.99    4.88
   0   4   6   59.76    3.58
   0   4   6   68.58    5.39
  -1  -4  -6   12.51    5.56
  -1  -4  -6    7.66    1.61
  -1  -4  -6   12.80    2.38
  -1  -4  -6   10.94    0.97
  -1  -4  -6   25.15    6.62
   1   4   6   15.65    2.03
   1   4   6   13.34    1.48
   1   4   6   16.53    3.39
   1   4   6   13.24    1.38
   1   4   6   10.99    2.44
  -2  -4  -6   99.02    5.15
  -2  -4  -6   99.68    5.13
  -2  -4  -6  100.78   10.81
  -2  -4  -6  102.08    6.72
   2   4   6   98.39    6.71
   2   4   6   99.82    5.37
   2   4   6  102.49    7.49
  -3  -4  -6   22.67    4.66
  -3  -4  -6   17.24    3.06
  -3  -4  -6   22.48    6.56
  -3  -4  -6   17.78    1.55
  -3  -4  -6   19.55    1.47
  -3  -4  -6   14.38    1.82
   3   4   6   15.16    2.06
   3   4   6   16.99    3.13
   3   4   6   16.38    3.81
   3   4   6   19.31    1.82
  -4  -4  -6   79.06    4.25
  -4  -4  -6   81.42   11.40
  -4  -4  -6   66.35    5.68
  -4  -4  -6   78.06    6.45
   4   4   6   74.76    7.16
   4   4   6   78.66    6.74
   4   4   6   74.84    4.46
  -5  -4  -6    2.17    4.16
  -5  -4  -6    1.61    1.02
   5   4   6    1.19    2.92
   5   4   6    0.59    1.12
  -6  -4  -6   18.25    6.94
  -6  -4  -6   18.29    2.10
   6   4   6   17.85    4.88
   6   4   6   24.94    2.82
  -7  -4  -6    1.96    1.28
   7   4   6   -0.41    3.24
   7   4   6    0.70    1.61
  -8  -4  -6   19.05    2.58
   8   4   6   15.34    2.66
   6  -5  -6    7.91    7.79
   6  -5  -6   10.83   15.06
  -6   5   6    7.31    1.79
  -6   5   6   10.11    4.02
  -6   5   6    9.55    3.46
   5  -5  -6    0.12   12.26
   5  -5  -6   12.14    7.34
  -5   5   6    9.92    3.56
  -5   5   6    9.73    1.66
  -5   5   6    7.50    2.87
   4  -5  -6   12.57    5.06
   4  -5  -6    8.83   12.23
   4  -5  -6   13.40    7.49
  -4   5   6   10.09    2.99
  -4   5   6   12.56    1.62
  -4   5   6   10.27    3.12
   3  -5  -6   75.80   10.92
   3  -5  -6   63.12   16.10
   3  -5  -6   71.35   10.18
  -3   5   6   60.12    5.90
  -3   5   6   58.86    3.58
  -3   5   6   56.80    6.20
   2  -5  -6   20.94   11.00
   2  -5  -6   35.95    7.85
  -2   5   6   22.91    3.95
  -2   5   6   23.15    3.40
  -2   5   6   24.53    3.00
  -2   5   6   23.23    1.81
  -2   5   6   27.41    3.52
   1  -5  -6   45.44   11.98
   1  -5  -6   67.44    9.78
  -1   5   6   51.01    2.93
  -1   5   6   50.47    4.46
  -1   5   6   50.11    5.66
  -1   5   6   47.01    4.88
   0  -5  -6   36.32   10.17
   0  -5  -6   17.68    5.95
   0  -5  -6   14.56    7.64
   0   5   6    8.74    3.00
   0   5   6   12.70    1.24
   0   5   6    9.83    2.27
   0   5   6   11.77    2.11
   0   5   6    8.38    1.25
  -1  -5  -6   75.39   12.97
  -1  -5  -6   66.46    4.45
  -1  -5  -6   82.86   11.24
   1   5   6   65.54    5.93
   1   5   6   62.56    5.05
   1   5   6   66.62    3.82
   1   5   6   73.66    5.87
  -2  -5  -6   32.90    9.78
  -2  -5  -6   10.71    6.11
  -2  -5  -6   20.82    6.78
  -2  -5  -6   12.46    0.87
  -2  -5  -6    9.69    0.89
  -2  -5  -6   11.38    2.19
   2   5   6   14.73    2.74
   2   5   6   11.09    1.33
   2   5   6   10.69    3.29
   2   5   6   11.19    1.79
  -3  -5  -6  103.55    5.36
  -3  -5  -6   96.33   14.29
  -3  -5  -6  120.68   11.57
  -3  -5  -6   96.71    6.89
  -3  -5  -6  101.65    5.42
   3   5   6  115.28    8.16
   3   5   6  108.03    7.37
   3   5   6  109.57    8.20
   3   5   6  103.36    5.76
  -4  -5  -6    5.73    6.35
  -4  -5  -6    1.58    0.75
  -4  -5  -6   -0.02    0.65
  -4  -5  -6    3.85    4.90
  -4  -5  -6   -0.92    2.14
   4   5   6   -0.33    0.95
   4   5   6    2.52    2.41
   4   5   6   -2.33    2.96
  -5  -5  -6   38.50   10.15
  -5  -5  -6   37.15    2.68
   5   5   6   46.38    5.97
   5   5   6   37.80    3.14
  -6  -5  -6   -1.72    6.65
  -6  -5  -6    2.00    5.25
  -6  -5  -6    1.24    1.11
   6   5   6    0.02    1.19
   6   5   6   -1.08    2.68
  -7  -5  -6   20.90    2.31
   7   5   6   12.55    4.66
   7   5   6   14.58    2.45
  -8  -5  -6    0.44    1.40
   8   5   6    0.66    1.89
   6  -6  -6   20.34   17.99
   5  -6  -6   -7.06   12.31
   5  -6  -6    2.13    7.72
  -5   6   6    2.46    2.45
  -5   6   6    2.59    3.14
   4  -6  -6   40.48   10.25
   4  -6  -6   33.37    8.28
   4  -6  -6   36.74   16.42
  -4   6   6   34.21    4.87
  -4   6   6   42.54    2.82
   3  -6  -6   11.52   11.23
   3  -6  -6    2.86    4.32
  -3   6   6    4.38    1.01
  -3   6   6    1.50    1.82
   2  -6  -6   50.99    9.48
   2  -6  -6   53.69   15.43
  -2   6   6   51.65    4.99
  -2   6   6   46.68    2.70
  -2   6   6   38.18    5.79
  -2   6   6   42.99    5.01
  -2   6   6   45.32    4.49
   1  -6  -6    6.86    9.24
   1  -6  -6    6.85    4.93
   1  -6  -6   10.18    7.75
  -1   6   6    4.40    1.73
  -1   6   6    4.51    2.00
  -1   6   6    2.76    2.60
  -1   6   6    3.69    0.81
  -1   6   6    3.06    2.53
   0  -6  -6   55.20   10.20
   0  -6  -6   62.96   14.22
   0   6   6   59.40    3.24
   0   6   6   54.82    5.72
   0   6   6   53.80    3.38
   0   6   6   62.01    4.53
   0   6   6   59.48    5.41
  -1  -6  -6   11.81    8.25
  -1  -6  -6    6.25    7.50
  -1  -6  -6    4.21    4.90
   1   6   6    2.89    0.81
   1   6   6    2.82    2.64
   1   6   6    3.51    1.43
   1   6   6    3.80    1.77
  -2  -6  -6  131.76   18.94
  -2  -6  -6  159.36   17.11
   2   6   6  143.39    9.13
   2   6   6  170.93   11.74
   2   6   6  149.60   10.03
   2   6   6  151.37    7.83
  -3  -6  -6    5.25    5.32
  -3  -6  -6    4.90    5.99
  -3  -6  -6    3.96    1.66
  -3  -6  -6    7.03    7.48
   3   6   6    5.24    1.28
   3   6   6    5.58    2.39
   3   6   6    2.46    2.92
   3   6   6    5.99    1.19
  -4  -6  -6   36.96    2.23
  -4  -6  -6   83.20   15.93
  -4  -6  -6   28.88    9.29
   4   6   6   38.37    5.07
   4   6   6   34.74    2.83
  -5  -6  -6    6.68    1.13
  -5  -6  -6    5.50    6.16
  -5  -6  -6   16.56    9.80
   5   6   6    5.73    1.60
   5   6   6    4.75    2.93
  -6  -6  -6   18.30    1.97
  -6  -6  -6   37.37   12.36
   6   6   6   19.38    2.59
   6   6   6   19.47    4.70
  -7  -6  -6    0.70    1.20
   7   6   6    3.20    3.63
   7   6   6    1.31    1.59
   7   6   6    4.38    1.94
  -8  -6  -6    9.14    1.87
   8   6   6   16.92    5.42
   8   6   6   12.15    2.68
   5  -7  -6   14.10   16.91
   5  -7  -6   16.43    9.63
  -5   7   6   13.77    3.93
   4  -7  -6    8.54   14.08
   3  -7  -6   34.94    9.40
   3  -7  -6   21.26   14.79
  -3   7   6   41.95    4.78
  -3   7   6   37.05    4.84
   2  -7  -6    3.06    7.07
   2  -7  -6    1.13    4.18
   2  -7  -6   -3.24   10.66
  -2   7   6   -1.47    1.69
  -2   7   6    1.79    1.98
  -2   7   6    1.63    2.00
   1  -7  -6   34.56    9.63
   1  -7  -6   49.40   15.19
  -1   7   6   36.82    4.19
  -1   7   6   37.62    3.52
  -1   7   6   29.72    3.80
  -1   7   6   20.93    5.77
   0  -7  -6    0.69    4.71
   0  -7  -6    4.69    7.84
   0  -7  -6    3.77    8.59
   0   7   6    2.19    1.53
   0   7   6    2.40    0.72
   0   7   6    0.50    2.58
   0   7   6    0.90    1.49
  -1  -7  -6   64.37   12.13
  -1  -7  -6   46.23   13.22
   1   7   6   65.72    4.79
   1   7   6   71.59    5.85
   1   7   6   64.64    3.63
   1   7   6   57.66    5.75
  -2  -7  -6   11.10    8.95
  -2  -7  -6    6.98    6.09
  -2  -7  -6    7.29    7.07
   2   7   6    4.97    0.99
   2   7   6    3.87    1.39
   2   7   6    4.48    2.00
   2   7   6    6.24    2.87
  -3  -7  -6   34.96    9.81
  -3  -7  -6   18.29    8.49
  -3  -7  -6   46.44   13.57
   3   7   6   27.99    3.93
   3   7   6   23.07    4.71
   3   7   6   24.52    2.14
  -4  -7  -6    6.85    9.13
  -4  -7  -6    3.78    6.79
   4   7   6    5.90    2.81
   4   7   6    1.98    1.18
  -5  -7  -6   40.73   13.49
  -5  -7  -6   12.08    8.24
   5   7   6   17.23    2.32
   5   7   6   18.61    4.09
  -6  -7  -6   13.75   11.15
   6   7   6    5.49    1.76
   6   7   6    4.07    3.36
  -7  -7  -6   11.55   10.66
   7   7   6   10.89    4.34
   7   7   6   13.05    2.44
   7   7   6   10.04    2.73
   4  -8  -6   27.94   17.62
  -4   8   6   16.03    3.98
  -4   8   6   18.87    4.17
   3  -8  -6    1.74    4.99
   3  -8  -6    1.41   14.44
  -3   8   6    1.19    2.19
  -3   8   6   -1.38    2.16
   2  -8  -6   38.84   13.04
   2  -8  -6   15.56    7.53
   2  -8  -6   17.58   15.34
  -2   8   6   12.90    3.10
  -2   8   6   14.24    2.46
  -2   8   6   15.70    2.65
   1  -8  -6    2.45    5.41
   1  -8  -6    7.22    8.83
   1  -8  -6    9.89   12.07
  -1   8   6    2.82    3.31
  -1   8   6    3.20    1.68
  -1   8   6    3.74    1.50
  -1   8   6    2.04    1.79
   0  -8  -6   30.55   10.43
   0  -8  -6   33.08   13.60
   0  -8  -6   88.22   18.77
   0   8   6   28.59    3.72
   0   8   6   32.63    3.01
   0   8   6   32.82    4.06
  -1  -8  -6   10.23    9.94
  -1  -8  -6   -4.33    7.91
  -1  -8  -6    4.13    5.98
   1   8   6    6.04    1.74
   1   8   6    2.46    2.44
   1   8   6    4.55    1.67
  -2  -8  -6   47.83   12.91
  -2  -8  -6   26.82   10.13
  -2  -8  -6   77.88   17.81
   2   8   6   29.37    3.34
   2   8   6   27.33    4.36
   2   8   6   33.18    3.76
  -3  -8  -6   11.76    8.29
  -3  -8  -6    9.53    9.80
  -3  -8  -6    5.86    8.78
   3   8   6    2.94    2.23
  -4  -8  -6   29.27   13.68
  -4  -8  -6   10.64    7.93
   4   8   6   11.48    3.32
   4   8   6   10.13    1.71
  -5  -8  -6   15.96   11.77
   5   8   6    7.55    1.65
   5   8   6   13.33    3.84
  -6  -8  -6   22.05   12.64
   6   8   6    5.69    3.46
   6   8   6    8.76    2.03
   6   8   6    8.76    2.85
  -7  -8  -6    6.19   10.98
   7   8   6    7.79    2.20
   3  -9  -6   32.50   13.52
   3  -9  -6   11.01   16.41
  -3   9   6    8.88    3.08
  -3   9   6    6.22    2.47
   2  -9  -6   -4.52    8.98
   2  -9  -6    0.16   14.76
  -2   9   6    1.13    1.25
  -2   9   6    0.84    1.34
  -2   9   6    0.45    2.21
   1  -9  -6   17.63    9.24
   1  -9  -6   12.18   13.95
   1  -9  -6   60.28   17.18
  -1   9   6   15.27    3.29
  -1   9   6   16.36    1.64
  -1   9   6   24.06    1.82
   0  -9  -6    9.73   12.47
   0  -9  -6    9.71    7.92
   0  -9  -6   30.65   13.58
   0   9   6    9.02    2.47
   0   9   6   12.73    1.73
   0   9   6   10.86    1.47
   0   9   6    5.64    4.25
  -1  -9  -6   12.58   12.21
  -1  -9  -6   21.28   10.11
  -1  -9  -6   30.64   14.32
   1   9   6   17.84    2.39
   1   9   6   18.91    3.20
   1   9   6   18.29    3.06
  -2  -9  -6   25.64   12.95
  -2  -9  -6    7.62    8.13
  -2  -9  -6   -2.14    9.55
   2   9   6    7.61    2.17
  -3  -9  -6    6.98   10.51
  -3  -9  -6   13.40   11.98
   3   9   6    5.43    2.43
  -4  -9  -6   25.33   13.70
   4   9   6   12.01    3.40
  -5  -9  -6    4.81   10.68
   5   9   6    0.36    2.85
   5   9   6    8.11    2.59
  -6  -9  -6   13.83   13.19
   2 -10  -6   14.47   13.12
   2 -10  -6   10.49   15.28
  -2  10   6    3.77    2.66
   1 -10  -6   29.51   15.41
   1 -10  -6    6.75   14.83
  -1  10   6    6.70    1.97
  -1  10   6    7.57    2.83
   0 -10  -6   15.41   15.46
   0 -10  -6   21.01   14.39
  -1 -10  -6   35.35   15.68
  -1 -10  -6   23.61   14.54
  -2 -10  -6   -3.86   10.95
  -2 -10  -6    3.28   11.10
   2  10   6    1.86    1.81
  -3 -10  -6   20.14   14.20
  -3 -10  -6   21.52   14.53
   3  10   6   18.06    3.39
   3  10   6    9.65    2.73
  -4 -10  -6    8.21   13.91
  -2  -8   7    2.68   13.14
   1   8  -7   -0.21    2.84
  -1  -8   7    5.56   13.48
   0   8  -7    9.01    3.64
   0  -8   7    9.92   13.27
  -1   8  -7   -2.98    2.32
   1  -8   7    1.21   11.57
   2  -8   7    7.57   11.53
   4   7  -7    7.56    5.41
   4   7  -7    5.66    6.23
   4   7  -7   -1.09    2.02
  -4  -7   7    7.55   14.90
   3   7  -7   12.39    2.61
   3   7  -7    7.95    5.63
   3   7  -7   10.96    3.84
   3   7  -7   17.70    6.59
  -3  -7   7    4.85   12.70
   2   7  -7    5.21    5.43
   2   7  -7    3.84    5.18
   2   7  -7    0.73    1.81
   2   7  -7   -0.52    2.33
  -2  -7   7   -0.25   11.74
   1   7  -7   13.19    2.57
   1   7  -7   11.61    3.74
   1   7  -7    8.57    5.47
   1   7  -7   12.71    6.96
  -1  -7   7    2.84   12.00
   0   7  -7    3.46    5.61
   0   7  -7    3.21    2.62
   0   7  -7    2.03    5.27
   0   7  -7    4.37    2.01
   0  -7   7   -3.29    9.22
  -1   7  -7   14.33    7.62
  -1   7  -7   13.62    3.10
  -1   7  -7   13.85    3.68
  -1   7  -7   10.47    6.15
   1  -7   7    9.75   11.85
  -2   7  -7    2.26    5.74
  -2   7  -7   -2.17    2.07
  -2   7  -7    5.20    5.19
   2  -7   7    6.76    9.36
  -3   7  -7    4.74    4.64
  -3   7  -7    5.65    7.21
   3  -7   7    4.18    8.63
   4  -7   7   -0.28    6.63
   5   6  -7   -0.16    2.12
   5   6  -7   -4.91    4.43
   5   6  -7    3.30    4.30
  -5  -6   7    2.01   12.39
   4   6  -7    7.36    5.56
   4   6  -7   19.18    6.55
   4   6  -7   15.22    4.30
   4   6  -7   13.42    2.66
  -4  -6   7    3.86   12.37
   3   6  -7    0.24    4.69
   3   6  -7   -0.15    1.73
   3   6  -7   -1.42    2.31
   3   6  -7    0.14    3.75
  -3  -6   7    1.94   11.87
   2   6  -7   15.01    6.86
   2   6  -7   13.25    5.79
   2   6  -7   15.13    4.03
   2   6  -7   15.37    2.61
  -2  -6   7   14.43   12.88
   1   6  -7    4.79    2.87
   1   6  -7    6.72    5.32
   1   6  -7    9.39    2.28
   1   6  -7    5.10    5.13
  -1  -6   7   14.06   12.57
   0   6  -7   27.66    7.20
   0   6  -7   19.47    7.89
   0   6  -7   28.41    4.85
   0   6  -7   34.84    3.65
   0  -6   7   26.75   13.80
  -1   6  -7    8.93    5.88
  -1   6  -7    2.38    5.14
  -1   6  -7    3.65    2.32
  -1   6  -7    2.80    2.00
   1  -6   7    2.53    8.58
  -2   6  -7   14.84    2.87
  -2   6  -7   15.92    6.32
  -2   6  -7   15.98    7.44
  -2   6  -7   16.21    3.34
   2  -6   7   21.23    6.11
   2  -6   7    9.94    9.62
  -3   6  -7   11.04    2.54
  -3   6  -7   11.43    7.00
  -3   6  -7   15.15    5.63
  -3   6  -7    9.74    2.82
   3  -6   7    9.20    8.57
   3  -6   7   14.17    6.48
  -4   6  -7   11.21    2.57
  -4   6  -7   12.64    7.52
  -4   6  -7    2.59    4.17
   4  -6   7    3.47    7.28
   4  -6   7    9.58    6.85
   5  -6   7   17.23    8.05
   6   5  -7   -3.50    3.17
  -6  -5   7    1.47    1.75
  -6  -5   7   -3.44   10.48
   5   5  -7   10.63    5.47
   5   5  -7   13.68    2.90
   5   5  -7   10.00    5.36
   5   5  -7    8.01    3.61
  -5  -5   7   10.57   12.82
   4   5  -7   -0.24    5.36
   4   5  -7   -0.58    1.59
   4   5  -7    1.50    4.13
   4   5  -7    0.66    2.55
  -4  -5   7   -0.83    1.19
  -4  -5   7    1.26   10.35
   3   5  -7   19.83    2.78
   3   5  -7   21.73    6.57
   3   5  -7   10.43    5.57
   3   5  -7   13.03    3.59
  -3  -5   7   17.20   13.29
  -3  -5   7   13.46    1.89
   2   5  -7   17.06    3.68
   2   5  -7    3.48    4.57
   2   5  -7   18.66    5.73
   2   5  -7   13.64    2.37
  -2  -5   7    2.71    9.76
  -2  -5   7   11.21    1.72
   1   5  -7   30.79    8.80
   1   5  -7   48.35    3.86
   1   5  -7   44.19    7.53
   1   5  -7   43.26    5.24
  -1  -5   7   28.56   14.65
  -1  -5   7   39.26    2.87
   0   5  -7   24.45    3.08
   0   5  -7   20.12    3.75
   0   5  -7   19.87    6.22
   0   5  -7   16.12    6.62
   0  -5   7   18.43    1.80
   0  -5   7   17.49   11.62
  -1   5  -7   22.18    3.76
  -1   5  -7   21.59    6.29
  -1   5  -7   28.05    3.37
  -1   5  -7   20.77    7.31
   1  -5   7   15.16   10.50
   1  -5   7   20.38    1.87
   1  -5   7   22.82    5.13
  -2   5  -7   19.89    7.49
  -2   5  -7   18.58    3.39
  -2   5  -7   23.18    3.23
  -2   5  -7   20.78    6.77
   2  -5   7   20.37    1.72
   2  -5   7    5.57    8.32
   2  -5   7   26.72    6.11
  -3   5  -7    5.47    2.07
  -3   5  -7    5.93    5.24
  -3   5  -7    4.20    5.59
  -3   5  -7    6.02    2.27
   3  -5   7    6.08    5.29
   3  -5   7   -0.05    6.34
  -4   5  -7   24.09    3.33
  -4   5  -7   26.01    8.71
  -4   5  -7   17.12    5.78
   4  -5   7   10.24    8.04
   4  -5   7   26.55    7.88
  -5   5  -7   11.19    7.45
  -5   5  -7   -1.71    4.27
  -5   5  -7    6.40    2.34
   5  -5   7    2.16    6.60
  -6   5  -7    7.84    5.16
  -6   5  -7    7.89    2.47
   6  -5   7    6.49    7.25
   6   4  -7    8.98    3.65
   6   4  -7    5.66    2.50
  -6  -4   7    7.78    2.13
  -6  -4   7   13.68   12.37
   5   4  -7    1.23    4.82
   5   4  -7    1.77    2.90
   5   4  -7    3.65    1.96
   5   4  -7    5.44    4.17
  -5  -4   7   -0.04    9.18
  -5  -4   7    4.30    1.76
  -5  -4   7    4.37    1.96
   4   4  -7    8.25    5.02
   4   4  -7   13.40    2.42
   4   4  -7    9.10    3.40
   4   4  -7   16.21    5.64
  -4  -4   7   14.57    2.14
  -4  -4   7   11.10   12.56
  -4  -4   7   10.83    2.48
   3   4  -7   10.97    5.51
   3   4  -7   17.45    3.83
   3   4  -7   20.36    2.89
   3   4  -7   24.36    6.29
   2   4  -7   22.41    4.06
   2   4  -7   32.10    6.49
   2   4  -7   15.74    6.01
   2   4  -7   23.14    2.77
  -2  -4   7   21.99    2.25
   1   4  -7   55.13    8.20
   1   4  -7   37.64    9.23
   1   4  -7   56.61    5.66
   1   4  -7   51.93    3.86
  -1  -4   7   45.87    3.33
   0   4  -7   17.70    2.48
   0   4  -7   14.56    3.15
   0   4  -7   13.66    5.32
   0   4  -7   17.45    6.14
   0  -4   7   15.91    1.89
   0  -4   7   21.05    3.58
  -1   4  -7   21.02    7.10
  -1   4  -7   26.54    3.72
  -1   4  -7   28.97    3.28
  -1   4  -7   24.22    6.33
   1  -4   7   33.95    5.43
  -2   4  -7    6.00    4.89
  -2   4  -7    5.22    2.10
  -2   4  -7    3.38    4.61
  -2   4  -7    4.23    2.05
   2  -4   7   11.44    4.67
   2  -4   7    3.51    1.11
  -3   4  -7   55.24    5.40
  -3   4  -7   56.20    8.54
  -3   4  -7   53.72    4.49
  -3   4  -7   64.24   10.86
   3  -4   7   49.51    3.46
   3  -4   7   75.82    9.85
  -4   4  -7    8.89    2.34
  -4   4  -7   10.25    2.21
  -4   4  -7    7.63    4.44
  -4   4  -7   10.69    6.10
   4  -4   7    7.55    1.39
   4  -4   7    4.52    5.31
   4  -4   7    2.81    6.38
  -5   4  -7   27.19    6.68
  -5   4  -7   41.89   11.04
  -5   4  -7   30.93    3.77
   5  -4   7   33.29    9.09
  -6   4  -7    0.52    1.95
  -6   4  -7    3.24    4.56
  -6   4  -7    0.35    6.11
   6  -4   7   -5.27    5.38
  -7   4  -7    9.80    2.35
  -7   4  -7    2.41    4.69
   7   3  -7    1.93    3.28
   6   3  -7    4.61    2.15
   6   3  -7    4.75    3.13
  -6  -3   7    8.03    2.22
  -6  -3   7   -0.82    8.83
   5   3  -7    9.08    3.41
   5   3  -7   10.77    5.10
   5   3  -7   10.62    2.32
  -5  -3   7   13.00    2.23
  -5  -3   7    7.10    2.44
   4   3  -7   18.54    5.82
   4   3  -7   16.79    2.61
   4   3  -7   14.48    5.41
   4   3  -7   21.47    4.16
  -4  -3   7   18.15    3.21
  -4  -3   7   23.82    2.54
   3   3  -7    9.63    2.17
   3   3  -7   10.03    2.88
   3   3  -7    3.93    3.78
   3   3  -7    6.94    4.56
  -3  -3   7    8.29    1.67
  -3  -3   7    5.97    2.22
   2   3  -7   55.89    3.86
   2   3  -7   31.18    8.09
   2   3  -7   52.65    6.21
   2   3  -7   71.06    8.53
   2   3  -7   61.66    5.64
  -2  -3   7   55.85    6.22
  -2  -3   7   39.65    4.84
   1   3  -7   22.31    6.66
   1   3  -7   22.82    4.22
   1   3  -7   31.66    2.87
   1   3  -7   20.40    5.44
   1   3  -7   31.10    3.95
  -1  -3   7   23.79    4.34
  -1  -3   7   28.11    2.44
   0   3  -7   39.88    4.17
   0   3  -7   24.58    6.93
   0   3  -7   34.75    5.04
   0   3  -7   32.83    3.18
   0   3  -7   33.18    6.81
   0  -3   7   27.63    2.47
  -1   3  -7    9.42    4.77
  -1   3  -7   10.44    2.09
  -1   3  -7   13.63    2.66
  -1   3  -7    4.51    2.66
  -1   3  -7    4.77    4.81
   1  -3   7    6.10    3.01
   1  -3   7   17.76    3.97
   1  -3   7    7.95    1.46
  -2   3  -7   82.78    6.86
  -2   3  -7   86.63    7.28
  -2   3  -7   95.61   10.78
  -2   3  -7   94.30   12.54
  -2   3  -7   86.92    5.63
   2  -3   7   85.91    6.99
   2  -3   7   78.69    4.86
  -3   3  -7    5.18    1.89
  -3   3  -7    2.73    4.79
  -3   3  -7    6.18    4.77
  -3   3  -7    4.18    1.72
   3  -3   7    8.32    4.79
   3  -3   7    4.92    1.32
  -4   3  -7   56.14    8.17
  -4   3  -7   62.73    5.74
  -4   3  -7   58.47    4.81
  -4   3  -7   89.34   12.36
  -5   3  -7   -0.07    1.55
  -5   3  -7   -3.16    4.63
  -5   3  -7   -2.76    4.12
   5  -3   7   -1.47    4.91
   5  -3   7    0.82    1.21
  -6   3  -7   18.01    6.15
  -6   3  -7   24.53    8.97
   6  -3   7   16.60    2.31
   6  -3   7   23.56    8.70
  -7   3  -7    2.98    1.79
  -7   3  -7    1.50    7.22
  -7   3  -7   -2.09    4.00
   7  -3   7   -1.59    6.77
   6   2  -7    7.38    3.04
   6   2  -7    6.30    2.36
  -6  -2   7    6.51    2.06
  -6  -2   7    3.16    2.61
   5   2  -7   12.19    3.32
   5   2  -7   12.47    5.38
   5   2  -7   11.98    2.39
  -5  -2   7   12.01    2.06
  -5  -2   7   10.87    2.83
   4   2  -7    2.93    3.17
   4   2  -7    6.49    2.72
   4   2  -7    2.90    1.81
   4   2  -7    9.43    4.59
  -4  -2   7    4.84    2.24
  -4  -2   7    3.73    1.55
  -4  -2   7    2.73    3.46
   3   2  -7   91.26    7.99
   3   2  -7   79.95    7.41
   3   2  -7   90.20    5.61
   3   2  -7   87.09    9.89
  -3  -2   7   91.11    5.30
  -3  -2   7   87.11    7.78
  -3  -2   7   83.71    7.68
   2   2  -7   16.43    5.02
   2   2  -7   11.36    2.03
   2   2  -7   13.20    2.73
   2   2  -7    2.19    3.26
   2   2  -7    4.67    2.97
  -2  -2   7    8.70    2.23
  -2  -2   7    8.73    1.46
  -2  -2   7    9.78    3.23
   1   2  -7   74.19    8.80
   1   2  -7   69.18    4.70
   1   2  -7   72.10    6.52
  -1  -2   7   72.37    4.28
  -1  -2   7   70.37    6.42
   0   2  -7    1.45    2.98
   0   2  -7    5.72    4.29
   0   2  -7    3.64    1.67
   0   2  -7   -0.48    2.44
   0   2  -7    0.65    1.28
   0  -2   7    2.57    1.17
   0  -2   7    1.97    2.60
  -1   2  -7  118.80    6.58
  -1   2  -7  115.12    8.90
  -1   2  -7  105.55   10.40
  -1   2  -7  103.77   13.50
  -1   2  -7  103.49    8.02
   1  -2   7  106.12    6.03
   1  -2   7  105.58    8.03
  -2   2  -7   -1.06    3.04
  -2   2  -7   -0.85    2.03
  -2   2  -7   -0.28    1.24
  -2   2  -7   -2.61    3.70
  -2   2  -7   -0.73    1.30
   2  -2   7   -0.22    0.84
   2  -2   7    0.62    2.25
  -3   2  -7  142.60    9.95
  -3   2  -7  183.25   12.80
  -3   2  -7  151.38    8.65
  -3   2  -7  166.84   11.85
   3  -2   7  143.32    8.10
   3  -2   7  144.72   10.04
  -4   2  -7    2.46    1.71
  -4   2  -7    3.72    4.08
  -4   2  -7    6.32    5.03
   4  -2   7    1.59    1.12
  -5   2  -7   28.94    3.42
  -5   2  -7   54.45   10.78
  -5   2  -7   20.08    5.71
   5  -2   7   26.65    2.70
  -6   2  -7    6.75    6.56
  -6   2  -7    5.08    4.61
   6  -2   7    4.06    5.93
   6  -2   7    6.07    1.73
  -7   2  -7   15.28    5.79
  -7   2  -7   18.64    2.92
   7  -2   7   14.57    2.41
   7  -2   7   30.14    9.17
  -8   2  -7   -0.49    3.90
   8  -2   7    1.59    1.71
   7   1  -7   -0.88    2.13
  -7  -1   7   -3.43    2.52
  -7  -1   7   -0.26    1.78
   6   1  -7   10.18    2.99
   6   1  -7   15.19    2.91
  -6  -1   7   17.94    2.60
  -6  -1   7    6.21    2.76
   5   1  -7    2.03    1.73
   5   1  -7    1.53    2.05
  -5  -1   7   -2.06    2.05
  -5  -1   7    1.03    1.39
   4   1  -7   76.73    5.16
   4   1  -7   73.86    6.95
   4   1  -7   66.30    8.86
  -4  -1   7   66.25    7.67
  -4  -1   7   75.78    6.94
  -4  -1   7   70.96    4.59
   3   1  -7   -0.46    2.03
   3   1  -7   -2.72    3.06
   3   1  -7    0.05    1.23
   3   1  -7    0.94    1.68
  -3  -1   7    0.66    2.81
  -3  -1   7    0.05    1.01
  -3  -1   7    1.43    1.77
   2   1  -7  104.11    8.51
   2   1  -7   96.80    5.96
   2   1  -7  106.06    9.24
   2   1  -7   99.23    7.76
  -2  -1   7  114.79    8.61
  -2  -1   7  106.16    7.98
  -2  -1   7   95.63    8.34
  -2  -1   7   95.83    5.63
   1   1  -7    1.02    1.39
   1   1  -7    0.07    1.10
   1   1  -7    3.29    3.41
   1   1  -7    0.48    2.39
  -1  -1   7   -0.38    1.39
  -1  -1   7    0.30    2.43
  -1  -1   7    0.37    1.95
  -1  -1   7    0.27    2.61
  -1  -1   7    1.69    0.94
   0   1  -7  108.59    5.89
   0   1  -7  103.33    7.71
   0   1  -7  110.64    8.16
   0   1  -7   99.17    8.99
   0   1  -7   93.23   11.82
   0  -1   7   87.74    7.87
   0  -1   7   80.43    8.10
   0  -1   7  101.61    7.61
   0  -1   7  101.97    5.54
  -1   1  -7   11.56    2.24
  -1   1  -7   10.82    2.95
  -1   1  -7   10.32    1.85
  -1   1  -7   14.91    4.88
  -1   1  -7   10.68    3.97
   1  -1   7   10.64    3.10
   1  -1   7    9.60    1.46
  -2   1  -7  141.43    9.57
  -2   1  -7  156.97   11.61
  -2   1  -7  155.49   11.79
  -2   1  -7  149.71    8.43
   2  -1   7  151.26    8.02
   2  -1   7  152.23   10.15
  -3   1  -7    0.60    3.79
  -3   1  -7    4.67    2.57
  -3   1  -7    7.21    4.37
  -3   1  -7    2.93    1.60
   3  -1   7    5.86    1.27
   3  -1   7    1.73    2.32
  -4   1  -7   46.47    7.16
  -4   1  -7   35.14    3.38
  -4   1  -7   40.57    5.17
   4  -1   7   32.65    5.03
   4  -1   7   34.66    2.82
  -5   1  -7    7.82    2.01
  -5   1  -7    2.54    4.13
  -5   1  -7   13.70    5.49
  -5   1  -7   12.66    6.23
   5  -1   7    5.97    1.64
  -6   1  -7   28.26    6.54
   6  -1   7   27.21    2.99
  -7   1  -7   12.32    2.33
  -7   1  -7   25.45    8.93
  -7   1  -7   -0.19    4.96
   7  -1   7    9.30    2.00
   7  -1   7   13.90    8.00
   8  -1   7    3.29    1.78
   7   0  -7    6.86    2.62
  -7   0   7    1.80    2.83
  -7   0   7    4.79    1.95
   6   0  -7   -1.21    1.65
   6   0  -7   -1.35    1.64
  -6   0   7   -0.72    1.37
  -6   0   7   -2.70    1.85
   5   0  -7   33.23    3.62
   5   0  -7   31.10    4.10
  -5   0   7   30.85    4.28
  -5   0   7   34.58    2.95
   4   0  -7    0.36    1.39
   4   0  -7    2.10    1.89
   4   0  -7    0.34    3.36
   4   0  -7    1.95    1.85
  -4   0   7   -0.30    1.68
  -4   0   7    0.09    1.26
   3   0  -7   93.65    5.55
   3   0  -7   88.52    8.61
   3   0  -7  100.10    7.75
  -3   0   7   95.33    8.25
  -3   0   7   80.47    7.68
  -3   0   7   92.20    7.76
  -3   0   7   87.88    5.18
   2   0  -7    2.46    1.64
   2   0  -7    2.97    2.10
   2   0  -7    2.07    1.26
   2   0  -7    1.54    2.44
   2   0  -7    1.97    3.19
  -2   0   7    8.64    3.29
  -2   0   7    2.91    2.32
  -2   0   7    2.62    1.69
  -2   0   7    2.63    1.03
  -2   0   7    4.64    2.75
   1   0  -7   62.67    4.10
   1   0  -7   69.15    5.73
   1   0  -7   63.41    7.55
   1   0  -7   63.66    5.61
   1   0  -7   59.71    7.81
  -1   0   7   54.76    6.85
  -1   0   7   74.05    5.94
  -1   0   7   58.62    3.76
  -1   0   7   55.19    7.01
  -1   0   7   65.10    5.85
   0   0  -7   29.00    3.09
   0   0  -7   25.38    4.52
   0   0  -7   15.75    3.63
   0   0  -7   19.21    4.70
   0   0  -7   18.46    2.31
   0   0   7   19.48    4.40
   0   0   7   20.29    1.92
   0   0   7   22.77    2.99
   0   0   7   26.43    3.99
  -1   0  -7  164.87    8.95
  -1   0  -7  164.65   11.97
  -1   0  -7  184.22   12.73
  -1   0  -7  178.92   10.57
   1   0   7  159.07   11.29
   1   0   7  150.18   10.47
   1   0   7  158.95    8.64
  -2   0  -7   20.98    3.68
  -2   0  -7   35.73    5.92
  -2   0  -7   21.39    2.88
  -2   0  -7   22.50    5.22
  -2   0  -7   26.88    2.63
   2   0   7   23.69    4.05
   2   0   7   19.22    4.37
   2   0   7   24.85    2.13
  -3   0  -7   72.98    6.05
  -3   0  -7   76.20    8.45
  -3   0  -7   72.76    4.66
   3   0   7   64.73    6.18
   3   0   7   73.22    4.37
  -4   0  -7   22.72    2.62
  -4   0  -7   14.25    4.72
  -4   0  -7   26.81    4.24
   4   0   7   19.40    2.30
   4   0   7   16.19    3.91
  -5   0  -7   34.90    3.37
  -5   0  -7   36.80    6.45
   5   0   7   24.02    4.63
   5   0   7   29.59    2.90
  -6   0  -7   20.27    2.68
  -6   0  -7   23.19    5.66
   6   0   7   22.36    2.74
  -7   0  -7    6.49    4.73
  -7   0  -7   19.31    2.69
   7   0   7   14.04    2.36
  -8   0  -7    7.30    2.34
  -8   0  -7   20.91    9.41
   8   0   7    3.70    1.91
   8   0   7   17.43    8.71
   7  -1  -7    1.38    2.10
  -7   1   7   -2.00    2.40
  -7   1   7   -2.19    1.45
   6  -1  -7   16.35    6.14
   6  -1  -7   17.85    2.85
  -6   1   7   19.69    3.82
  -6   1   7   17.59    2.40
  -6   1   7   14.29    4.61
   5  -1  -7    3.95    4.38
   5  -1  -7    3.25    1.72
   5  -1  -7    4.04    1.73
  -5   1   7    4.42    2.43
  -5   1   7    3.10    1.43
   4  -1  -7   70.77    4.70
   4  -1  -7   73.88    8.73
   4  -1  -7   69.00    6.08
  -4   1   7   64.07    6.37
  -4   1   7   63.77    4.19
   3  -1  -7    0.35    1.34
   3  -1  -7    0.68    1.53
   3  -1  -7    1.16    0.98
   3  -1  -7    1.53    3.02
   3  -1  -7    2.83    1.24
  -3   1   7    1.86    2.82
  -3   1   7    0.63    1.62
  -3   1   7    4.07    3.06
  -3   1   7    2.31    1.08
   2  -1  -7   75.65    4.66
   2  -1  -7   76.49    7.35
   2  -1  -7   85.36    6.67
   2  -1  -7   87.09    8.11
  -2   1   7   70.37    6.32
  -2   1   7   72.14    7.13
  -2   1   7   69.40    6.63
  -2   1   7   58.25    7.78
  -2   1   7   70.79    4.32
   1  -1  -7   28.10    3.16
   1  -1  -7   24.28    2.44
   1  -1  -7   23.57    4.75
  -1   1   7   22.66    4.55
  -1   1   7   26.44    2.08
  -1   1   7   25.94    3.31
  -1   1   7   23.63    3.86
  -1   1   7   25.69    5.11
   0  -1  -7  167.74   10.77
   0  -1  -7  185.36   13.22
   0  -1  -7  156.47   11.64
   0  -1  -7  169.02    9.17
   0   1   7  200.09   13.53
   0   1   7  166.19    8.91
   0   1   7  153.56   11.38
   0   1   7  169.60   10.77
  -1  -1  -7   78.52    4.65
  -1  -1  -7   74.02    5.84
  -1  -1  -7   79.84    7.44
   1   1   7   73.04    6.23
   1   1   7   73.93    6.97
   1   1   7   65.23    8.88
   1   1   7   79.86    4.38
   1   1   7   74.72    6.49
  -2  -1  -7   68.24    7.01
  -2  -1  -7   77.26    4.60
  -2  -1  -7   70.33    5.69
   2   1   7   71.44    6.14
   2   1   7   68.45    6.87
   2   1   7   73.13    4.30
  -3  -1  -7   31.79    5.34
  -3  -1  -7   28.49    4.20
  -3  -1  -7   26.47    2.44
   3   1   7   23.89    4.87
   3   1   7   23.78    2.21
   3   1   7   28.25    4.31
  -4  -1  -7   27.13    2.60
  -4  -1  -7   28.07    5.51
   4   1   7   26.39    2.42
   4   1   7   22.24    4.19
   4   1   7   29.24    5.60
  -5  -1  -7   50.03    7.05
   5   1   7   37.18    5.57
   5   1   7   41.99    3.30
  -6  -1  -7   21.43    5.29
  -6  -1  -7   18.13    5.30
  -6  -1  -7   21.46    2.67
   6   1   7   16.94    4.35
   6   1   7   13.51    2.16
  -7  -1  -7   23.03    2.85
   7   1   7   19.89    2.89
  -8  -1  -7    3.61    1.98
   8   1   7    1.99    1.89
   7  -2  -7    8.44    2.34
   7  -2  -7   13.41   15.59
  -7   2   7   10.50    2.27
  -7   2   7    5.83    4.48
  -7   2   7    3.38    3.09
   6  -2  -7    5.41    5.43
   6  -2  -7    6.83    2.05
  -6   2   7    2.93    1.70
  -6   2   7    5.76    3.99
  -6   2   7    5.14    2.71
   5  -2  -7   41.62    8.25
   5  -2  -7   41.28    3.67
  -5   2   7   41.16    3.32
  -5   2   7   37.13    5.62
  -5   2   7   41.93    5.12
   4  -2  -7   14.19    2.55
   4  -2  -7   14.14    2.18
  -4   2   7   11.93    2.89
  -4   2   7   15.10    1.89
   3  -2  -7   40.85    4.24
   3  -2  -7   39.76    3.27
  -3   2   7   42.98    5.46
  -3   2   7   44.21    4.66
  -3   2   7   40.10    2.85
  -3   2   7   44.20    6.53
   2  -2  -7   36.79    2.90
   2  -2  -7   34.05    3.71
  -2   2   7   38.39    5.85
  -2   2   7   38.68    4.01
  -2   2   7   31.88    2.43
  -2   2   7   30.60    4.38
   1  -2  -7   61.42    3.77
   1  -2  -7   52.51    3.25
  -1   2   7   58.15    5.20
  -1   2   7   50.75    5.11
  -1   2   7   53.37    6.55
  -1   2   7   57.43    3.40
   0  -2  -7  108.13    5.69
   0  -2  -7   94.77    5.27
   0   2   7  117.86    7.47
   0   2   7   83.22   10.64
   0   2   7  103.26    8.11
   0   2   7   89.35    7.88
   0   2   7  107.94    5.44
  -1  -2  -7   84.66    7.37
  -1  -2  -7   83.80    4.89
  -1  -2  -7   78.30    4.60
   1   2   7   78.07    4.73
   1   2   7   91.09    6.68
   1   2   7   84.67    9.79
   1   2   7   76.11    7.04
   1   2   7  101.50    7.24
  -2  -2  -7   65.16    5.51
  -2  -2  -7   65.25    3.89
  -2  -2  -7   64.30    7.10
   2   2   7   55.85    6.71
   2   2   7   52.91    5.43
   2   2   7   69.62    5.76
   2   2   7   65.96    3.87
  -3  -2  -7   21.70    4.39
  -3  -2  -7   16.62    2.47
  -3  -2  -7   20.52    2.05
   3   2   7   26.91    4.88
   3   2   7   20.80    1.98
   3   2   7   21.28    3.86
  -4  -2  -7   92.86    8.16
   4   2   7   85.53    8.39
   4   2   7   90.92    5.29
   4   2   7   84.26    7.30
  -5  -2  -7   14.57    5.47
  -5  -2  -7   25.76    7.19
  -5  -2  -7    4.96    3.60
  -5  -2  -7    6.63    1.56
   5   2   7    8.38    1.73
   5   2   7    6.56    3.27
  -6  -2  -7   43.75    8.05
  -6  -2  -7   45.89    3.52
  -6  -2  -7   40.40    6.63
   6   2   7   47.57    3.66
   6   2   7   47.39    6.46
  -7  -2  -7   -0.11    1.35
   7   2   7    1.30    1.67
  -8  -2  -7   10.58    2.20
   8   2   7    8.98    2.42
   7  -3  -7    2.53    6.84
   7  -3  -7   -2.59   12.86
  -7   3   7    4.61    4.76
  -7   3   7    6.64    2.09
  -7   3   7    6.39    3.51
   6  -3  -7    5.49   15.09
   6  -3  -7   14.21    2.45
   6  -3  -7   12.17    7.12
  -6   3   7   16.34    4.65
  -6   3   7   16.90    2.47
  -6   3   7   17.59    3.94
   5  -3  -7   11.64    6.28
   5  -3  -7   19.84    2.58
   5  -3  -7   37.44    8.11
   5  -3  -7   10.62   13.07
  -5   3   7   19.54    4.64
  -5   3   7   17.46    2.18
  -5   3   7   15.88    3.50
   4  -3  -7   21.70    2.49
   4  -3  -7   26.94    6.94
  -4   3   7   21.23    2.27
  -4   3   7   17.71    3.46
   3  -3  -7   16.64    2.13
   3  -3  -7   14.41    4.01
  -3   3   7   20.05    2.02
  -3   3   7   17.86    3.25
  -3   3   7   12.93    4.03
   2  -3  -7   19.80    4.28
   2  -3  -7   25.71    2.38
   2  -3  -7   21.31    1.68
  -2   3   7   27.27    3.42
  -2   3   7   25.07    2.05
  -2   3   7   28.80    4.10
  -2   3   7   22.93    4.79
   1  -3  -7   94.47    7.63
   1  -3  -7   90.21    5.04
   1  -3  -7   82.40    4.64
  -1   3   7   89.92    6.61
  -1   3   7   90.86    4.89
  -1   3   7   96.58    7.57
  -1   3   7   76.29    7.64
   0  -3  -7   60.95    5.99
   0  -3  -7   59.68    3.66
   0  -3  -7   55.01    3.36
   0   3   7   49.80    6.11
   0   3   7   60.79    5.39
   0   3   7   64.41    5.54
   0   3   7   68.54    7.14
   0   3   7   62.96    3.62
  -1  -3  -7   83.49    6.65
  -1  -3  -7   86.44    4.65
  -1  -3  -7   80.13    4.44
   1   3   7   89.05    6.85
   1   3   7   86.24    6.31
   1   3   7   57.90    6.47
   1   3   7   79.31    4.61
  -2  -3  -7   12.01    1.35
  -2  -3  -7   16.01    5.09
  -2  -3  -7   12.82    1.58
  -2  -3  -7    9.86    1.83
  -2  -3  -7   10.44    2.56
  -2  -3  -7   27.51    6.98
   2   3   7   13.75    3.02
   2   3   7   12.06    1.53
   2   3   7   13.11    2.18
   2   3   7   13.76    3.56
  -3  -3  -7   92.79    7.51
  -3  -3  -7   93.44    8.56
  -3  -3  -7   92.85    7.67
   3   3   7  105.36    7.58
   3   3   7   91.21    8.35
   3   3   7   96.10    5.43
  -4  -3  -7   -0.54    0.87
  -4  -3  -7    0.35    2.40
  -4  -3  -7    1.08    0.96
  -4  -3  -7   -3.32    3.35
   4   3   7    3.26    3.61
   4   3   7    0.70    2.29
   4   3   7    0.43    1.02
  -5  -3  -7   38.09    5.93
  -5  -3  -7   55.71    3.72
  -5  -3  -7   64.63    9.84
   5   3   7   57.47    6.93
   5   3   7   49.74    3.77
  -6  -3  -7    3.71    4.10
  -6  -3  -7   -0.78    1.23
   6   3   7    0.04    2.67
   6   3   7    1.62    1.30
  -7  -3  -7   15.60    2.37
   7   3   7   10.72    2.14
   7   3   7   18.14    4.85
  -8  -3  -7    0.36    1.43
   8   3   7    0.21    1.65
   7  -4  -7    5.07   15.64
   7  -4  -7    0.03    7.46
   6  -4  -7    7.86   13.65
   6  -4  -7   10.41    7.85
  -6   4   7    4.41    2.76
  -6   4   7    7.45    1.90
  -6   4   7   12.33    4.38
   5  -4  -7   15.86    7.33
   5  -4  -7    6.75   13.06
  -5   4   7   14.24    3.38
  -5   4   7   12.73    4.06
  -5   4   7   12.95    1.96
   4  -4  -7   19.99    6.88
   4  -4  -7   13.55    1.86
   4  -4  -7   20.86    6.53
   4  -4  -7    9.25   12.22
  -4   4   7   12.56    1.80
  -4   4   7   11.05    2.99
   3  -4  -7   17.03   11.07
   3  -4  -7    9.72    1.52
   3  -4  -7   14.32    6.03
  -3   4   7    6.06    3.64
  -3   4   7   12.49    1.58
  -3   4   7   10.99    2.80
  -3   4   7    9.47    3.20
   2  -4  -7   74.26    4.26
   2  -4  -7   68.51    3.92
   2  -4  -7   74.94    6.73
   2  -4  -7  114.39   18.53
  -2   4   7   78.56    4.30
  -2   4   7   81.06    6.95
  -2   4   7   76.70    7.39
  -2   4   7   78.03    6.39
   1  -4  -7   14.03    3.41
   1  -4  -7   18.88    8.74
   1  -4  -7   27.77    7.27
   1  -4  -7   12.42    1.05
   1  -4  -7   14.28    1.47
  -1   4   7   14.05    2.87
  -1   4   7   13.84    2.17
  -1   4   7   16.81    2.70
  -1   4   7    9.25    3.58
  -1   4   7   15.07    1.56
   0  -4  -7   82.34    4.52
   0  -4  -7   87.90    4.70
   0  -4  -7   85.44    6.62
   0  -4  -7  101.69   12.86
   0   4   7   99.96    7.58
   0   4   7   87.91    4.85
   0   4   7   86.61    7.51
   0   4   7   96.77    6.65
  -1  -4  -7    8.86    5.03
  -1  -4  -7    5.16    0.93
  -1  -4  -7   10.68    5.71
  -1  -4  -7    4.92    2.21
  -1  -4  -7    3.59    0.76
   1   4   7    5.31    2.80
   1   4   7    8.74    3.10
   1   4   7    4.28    1.48
   1   4   7    6.81    2.45
   1   4   7    5.13    1.08
  -2  -4  -7   72.80    9.33
  -2  -4  -7   62.37    5.57
  -2  -4  -7   52.48    5.38
  -2  -4  -7   69.99    3.66
   2   4   7   81.69    5.98
   2   4   7   67.14    6.37
   2   4   7   70.83    3.96
  -3  -4  -7    2.35    3.47
  -3  -4  -7    1.30    1.99
  -3  -4  -7   -0.14    0.61
  -3  -4  -7    1.37    4.15
  -3  -4  -7   -0.41    0.74
  -3  -4  -7    0.06    0.73
   3   4   7    0.06    1.11
   3   4   7   -0.10    2.77
   3   4   7   -0.10    2.07
   3   4   7   -0.26    0.84
  -4  -4  -7   80.66    4.35
  -4  -4  -7   88.06   12.22
  -4  -4  -7   67.76    5.85
  -4  -4  -7   55.89    5.64
   4   4   7   82.35    7.91
   4   4   7   72.59    4.52
   4   4   7   79.20    6.98
  -5  -4  -7    2.60    4.34
  -5  -4  -7   -0.24    1.01
   5   4   7   -0.10    1.10
   5   4   7    0.87    3.06
  -6  -4  -7   40.77    3.18
  -6  -4  -7   38.26    9.75
   6   4   7   39.65    6.26
   6   4   7   37.95    3.36
  -7  -4  -7    2.00    1.45
   7   4   7    4.84    4.05
   7   4   7    2.32    1.62
  -8  -4  -7   18.19    2.55
   6  -5  -7    7.13    8.17
   6  -5  -7  -12.27   12.36
  -6   5   7    3.24    3.07
  -6   5   7    6.66    4.26
  -6   5   7    9.62    2.10
   5  -5  -7   12.85   13.98
   5  -5  -7   12.80    7.54
  -5   5   7   13.20    3.58
  -5   5   7   12.76    1.92
   4  -5  -7    4.50    4.11
   4  -5  -7    2.87   11.26
  -4   5   7    6.04    1.40
  -4   5   7    4.85    2.43
   3  -5  -7   39.38   14.46
   3  -5  -7   69.78   10.46
  -3   5   7   51.47    5.81
  -3   5   7   51.31    3.36
  -3   5   7   54.02    5.79
   2  -5  -7   -0.48    3.66
   2  -5  -7   -4.51    8.10
  -2   5   7    1.46    0.88
  -2   5   7    1.16    2.76
  -2   5   7    2.54    2.36
  -2   5   7    2.34    1.81
   1  -5  -7   88.61   11.60
   1  -5  -7   43.64   12.70
  -1   5   7   70.18    6.17
  -1   5   7   52.15    6.62
  -1   5   7   66.28    5.64
  -1   5   7   62.37    3.74
   0  -5  -7    6.96    5.05
   0  -5  -7    4.60    1.76
   0  -5  -7    3.55    6.34
   0   5   7    4.18    3.06
   0   5   7    9.26    2.87
   0   5   7    4.33    2.14
   0   5   7    3.91    0.96
   0   5   7    3.33    1.57
  -1  -5  -7   46.67   10.51
  -1  -5  -7   47.69    2.60
  -1  -5  -7   51.75    2.63
  -1  -5  -7   48.50    4.20
  -1  -5  -7   71.28   10.39
   1   5   7   60.48    4.95
   1   5   7   47.31    5.76
   1   5   7   54.47    3.21
   1   5   7   54.87    4.78
  -2  -5  -7   -1.31    1.51
  -2  -5  -7    0.12    6.12
  -2  -5  -7    1.33    0.76
  -2  -5  -7    0.52    0.53
  -2  -5  -7    0.32    3.97
  -2  -5  -7    0.66    0.51
  -2  -5  -7    3.91    5.82
   2   5   7    1.03    1.95
   2   5   7   -1.25    2.63
   2   5   7    0.52    0.84
   2   5   7    0.53    1.26
  -3  -5  -7  100.11    5.09
  -3  -5  -7   97.02   10.96
  -3  -5  -7  107.67   14.34
  -3  -5  -7   95.57    6.93
  -3  -5  -7   87.08    5.07
   3   5   7   97.89    5.50
   3   5   7   93.66    8.07
   3   5   7  103.98    7.50
   3   5   7   99.29    7.75
  -4  -5  -7    9.88    5.60
  -4  -5  -7   17.42    9.28
  -4  -5  -7    3.59    1.00
   4   5   7   -0.18    2.69
   4   5   7    4.20    1.36
  -5  -5  -7   37.51    2.71
  -5  -5  -7   40.53   10.34
   5   5   7   42.50    5.96
   5   5   7   35.20    3.07
  -6  -5  -7    7.86    1.55
  -6  -5  -7    4.84    5.54
   6   5   7    4.49    1.75
   6   5   7    5.65    3.55
  -7  -5  -7   13.40    1.94
   7   5   7   15.85    2.69
   7   5   7   18.68    5.23
  -8  -5  -7    3.34    1.63
   6  -6  -7    8.74   15.92
   5  -6  -7   -1.39    6.99
   5  -6  -7   -2.41   13.06
  -5   6   7    0.31    2.40
   4  -6  -7   19.62   15.03
   4  -6  -7   15.62    6.25
  -4   6   7   20.04    3.91
  -4   6   7   21.02    2.17
   3  -6  -7    1.75    4.12
   3  -6  -7    5.18   10.80
  -3   6   7    0.57    2.76
  -3   6   7    0.85    0.93
  -3   6   7    1.29    1.96
   2  -6  -7   37.12   14.18
   2  -6  -7   61.30   10.69
  -2   6   7   53.57    3.22
  -2   6   7   53.41    5.74
  -2   6   7   53.98    5.22
  -2   6   7   41.91    5.69
   1  -6  -7   -1.01    3.88
   1  -6  -7    0.18    9.14
  -1   6   7    2.01    2.11
  -1   6   7   -0.59    2.59
  -1   6   7    0.03    0.73
  -1   6   7    0.04    1.48
  -1   6   7   -0.84    1.89
   0  -6  -7   61.24   13.96
   0  -6  -7   55.17   10.46
   0   6   7   53.20    6.13
   0   6   7   56.58    4.86
   0   6   7   55.22    3.30
   0   6   7   58.60    5.41
  -1  -6  -7   40.16   11.99
  -1  -6  -7    9.25    7.72
  -1  -6  -7   15.71    6.81
   1   6   7   17.16    2.67
   1   6   7   16.73    1.64
   1   6   7   17.50    3.83
   1   6   7   15.53    2.89
  -2  -6  -7   46.76   10.98
  -2  -6  -7   50.06   11.30
   2   6   7   49.15    4.58
   2   6   7   51.80    6.02
   2   6   7   49.28    3.16
   2   6   7   51.29    4.89
  -3  -6  -7   11.29    6.54
  -3  -6  -7   12.62    0.97
  -3  -6  -7   41.76   12.29
  -3  -6  -7   17.25    6.78
   3   6   7   17.23    3.40
   3   6   7   13.70    4.05
   3   6   7   13.40    2.05
   3   6   7   12.66    1.69
  -4  -6  -7   33.26    2.17
  -4  -6  -7   36.40   10.23
   4   6   7   30.18    4.88
   4   6   7   36.90    2.88
  -5  -6  -7   25.41   11.45
  -5  -6  -7    7.42    1.25
  -5  -6  -7   10.77    7.02
   5   6   7    8.96    1.78
   5   6   7    7.90    3.49
  -6  -6  -7   16.21    8.30
  -6  -6  -7   50.21   14.02
  -6  -6  -7   13.24    1.76
   6   6   7   17.93    2.52
   6   6   7   15.37    4.53
  -7  -6  -7    8.34    1.63
   7   6   7   10.59    2.37
   7   6   7    8.77    4.76
   8   6   7    8.33    4.76
   5  -7  -7   29.34   17.75
   4  -7  -7    1.22   13.15
  -4   7   7    2.67    3.46
  -4   7   7    0.39    2.32
   3  -7  -7   21.63   14.80
   3  -7  -7   34.89    9.44
  -3   7   7   22.85    4.13
  -3   7   7   26.94    4.21
   2  -7  -7    1.51    4.31
   2  -7  -7   -4.13   10.53
  -2   7   7   -1.06    2.16
  -2   7   7    1.59    1.89
   1  -7  -7   27.44   14.23
   1  -7  -7   29.52    9.20
  -1   7   7   23.84    3.72
  -1   7   7   24.26    3.33
  -1   7   7   22.59    3.97
   0  -7  -7    4.11    5.20
   0  -7  -7   20.73   10.59
   0  -7  -7    5.41    9.14
   0   7   7    6.30    1.02
   0   7   7    7.04    2.07
   0   7   7    9.29    3.30
   0   7   7    6.12    2.07
  -1  -7  -7   66.03   15.41
  -1  -7  -7   25.33   10.29
  -1  -7  -7   27.24    8.95
   1   7   7   24.85    1.99
   1   7   7   28.94    3.42
   1   7   7   21.52    3.17
   1   7   7   22.12    4.16
  -2  -7  -7   14.06    7.44
  -2  -7  -7   38.49   12.96
  -2  -7  -7   13.14    8.26
   2   7   7   15.46    2.40
   2   7   7   16.96    3.01
   2   7   7   15.57    1.66
   2   7   7   15.26    3.98
  -3  -7  -7   26.06    9.05
  -3  -7  -7   20.98    8.67
   3   7   7   17.28    3.54
   3   7   7   26.13    2.26
  -4  -7  -7   32.93   12.76
  -4  -7  -7    9.17    6.74
   4   7   7   11.05    1.75
   4   7   7    9.14    3.20
  -5  -7  -7    9.74    7.42
  -5  -7  -7   23.59   12.17
   5   7   7   12.10    2.02
   5   7   7    3.21    3.42
  -6  -7  -7   29.18   12.71
   6   7   7   12.57    2.30
   6   7   7   11.17    4.16
  -7  -7  -7    3.04   10.67
   7   7   7    5.74    4.04
   7   7   7    4.02    1.88
   7   7   7    3.56    1.78
   4  -8  -7   27.15   18.71
   3  -8  -7    6.81   13.55
   3  -8  -7    6.34    5.58
  -3   8   7   -0.07    2.08
  -3   8   7    0.26    2.48
   2  -8  -7   62.69   16.52
   2  -8  -7   18.18    8.18
   2  -8  -7   22.81   15.64
  -2   8   7   16.50    3.54
  -2   8   7   13.92    2.94
   1  -8  -7   17.96   11.56
   1  -8  -7    5.27   11.78
   1  -8  -7    2.17    5.41
  -1   8   7    3.36    2.36
  -1   8   7    0.85    1.70
  -1   8   7    4.77    2.12
   0  -8  -7   26.41   12.80
   0  -8  -7   53.88   15.76
   0  -8  -7   16.84    8.14
   0   8   7   17.16    2.65
   0   8   7   17.36    3.68
   0   8   7   19.02    3.19
  -1  -8  -7   17.50    8.72
  -1  -8  -7   61.79   16.56
  -1  -8  -7   16.77   11.53
   1   8   7   29.70    3.50
   1   8   7   23.52    3.19
   1   8   7   19.99    4.00
  -2  -8  -7   37.67   14.44
  -2  -8  -7   22.71    9.10
  -2  -8  -7   22.14   10.31
   2   8   7   10.22    2.58
  -3  -8  -7   36.70   14.28
  -3  -8  -7   15.85    9.32
  -3  -8  -7   12.41    8.11
   3   8   7   13.16    3.18
  -4  -8  -7   16.35   11.72
  -4  -8  -7    7.73    7.74
   4   8   7    8.66    3.11
   4   8   7    8.48    1.64
  -5  -8  -7   22.41   10.05
  -5  -8  -7   45.92   15.58
   5   8   7   14.54    2.17
   5   8   7   15.61    4.18
  -6  -8  -7    7.10   11.46
   6   8   7    4.24    3.69
   6   8   7    2.39    1.65
   3  -9  -7   12.10   15.88
   2  -9  -7    7.44   13.63
   2  -9  -7   24.81   13.91
   2  -9  -7    5.71    6.47
  -2   9   7    3.75    2.66
  -2   9   7    2.56    1.88
   1  -9  -7    6.39   12.85
   1  -9  -7    8.73    7.69
   1  -9  -7   32.36   15.20
  -1   9   7    6.89    2.64
  -1   9   7    7.35    1.82
  -1   9   7    9.63    2.03
   0  -9  -7   29.54   15.13
   0  -9  -7   21.42    9.70
   0  -9  -7   44.95   16.18
   0   9   7   17.02    2.28
   0   9   7   13.99    2.61
   0   9   7   13.92    2.93
  -1  -9  -7   -1.19   10.35
  -1  -9  -7   25.56   14.00
  -1  -9  -7    9.70    7.63
   1   9   7   11.28    3.13
   1   9   7    6.38    1.97
  -2  -9  -7   19.60    9.65
  -2  -9  -7   23.66   11.54
  -2  -9  -7   51.98   17.84
   2   9   7   15.31    2.90
  -3  -9  -7    7.06    7.96
  -3  -9  -7    9.63   11.46
  -3  -9  -7    7.47   10.25
   3   9   7    3.77    2.44
  -4  -9  -7   32.49   15.78
  -4  -9  -7    9.61    8.38
   4   9   7   12.59    3.56
  -5  -9  -7    1.90   10.08
   1 -10  -7   37.40   16.44
   1 -10  -7    9.66   14.79
  -1  10   7    8.08    2.86
   0 -10  -7    1.47   13.17
   0 -10  -7    4.28    7.28
   0 -10  -7    3.69   11.71
  -1 -10  -7   16.21   13.04
  -1 -10  -7   17.93    9.72
  -1 -10  -7   31.51   16.79
   1  10   7   10.21    1.95
  -2 -10  -7    1.36   12.92
  -2 -10  -7    8.10   11.81
   2  10   7    2.70    1.94
  -3 -10  -7   13.54   12.83
  -3 -10  -7   26.87   15.65
  -4 -10  -7    3.76   12.42
   0  -8   8    5.32   12.76
   3   7  -8   12.37    2.79
   3   7  -8    8.45    6.41
   3   7  -8   11.54    7.10
  -3  -7   8    8.37   15.13
   2   7  -8   -0.33    4.93
   2   7  -8   -0.53    5.08
   2   7  -8   -1.44    2.59
   2   7  -8    0.17    1.95
  -2  -7   8    6.33   13.75
   1   7  -8    9.64    2.51
   1   7  -8    6.16    3.36
   1   7  -8    1.82    4.92
   1   7  -8    4.59    5.93
  -1  -7   8    2.82   13.64
   0   7  -8    6.71    2.49
   0   7  -8   -0.57    5.96
   0   7  -8    5.93    3.16
   0   7  -8    7.03    6.78
   0  -7   8    2.99   12.04
  -1   7  -8   13.23    6.85
  -1   7  -8   16.47    8.11
  -1   7  -8   10.38    3.62
   1  -7   8    7.22   12.09
  -2   7  -8    1.86    2.52
  -2   7  -8   -3.40    5.26
   2  -7   8    0.35    8.77
   3  -7   8    3.49    9.76
   4   6  -8   12.36    5.83
   4   6  -8   10.12    2.67
   4   6  -8    4.74    5.58
  -4  -6   8   -1.51   12.81
   3   6  -8    0.11    2.81
   3   6  -8    4.86    2.34
   3   6  -8    6.46    5.13
   3   6  -8    4.05    4.77
  -3  -6   8   -0.76   11.36
   2   6  -8    4.62    5.30
   2   6  -8    7.11    2.31
   2   6  -8   10.35    3.67
   2   6  -8    6.75    5.78
  -2  -6   8   -9.00    9.94
   1   6  -8    8.07    3.23
   1   6  -8    7.98    5.29
   1   6  -8    6.81    6.04
   1   6  -8    8.78    2.43
  -1  -6   8    7.59   13.70
   0   6  -8   12.91    2.73
   0   6  -8   14.33    3.71
   0   6  -8   11.65    6.84
   0   6  -8    8.26    6.29
   0  -6   8    8.21   11.28
  -1   6  -8   18.10    3.74
  -1   6  -8   20.47    7.41
  -1   6  -8   14.35    2.97
  -1   6  -8    9.78    6.72
   1  -6   8    9.41   11.15
  -2   6  -8   11.20    3.21
  -2   6  -8    9.31    2.73
  -2   6  -8   -2.24    5.55
  -2   6  -8    9.18    6.82
   2  -6   8    4.13   10.22
  -3   6  -8   14.81    2.97
  -3   6  -8    7.63    5.88
  -3   6  -8    9.43    7.16
  -3   6  -8    8.56    2.94
   3  -6   8    6.60    9.27
  -4   6  -8    1.68    5.25
  -4   6  -8    4.50    6.42
  -4   6  -8    1.04    2.17
   4  -6   8    5.89    6.23
   4  -6   8    5.74    8.45
   5  -6   8    7.30    6.88
   5   5  -8    6.71    3.62
   5   5  -8    6.17    4.68
   5   5  -8    2.70    2.40
   5   5  -8   16.34    6.99
  -5  -5   8    1.13   11.64
  -5  -5   8    7.50    2.02
   4   5  -8    3.30    4.09
   4   5  -8    4.96    3.19
   4   5  -8    6.49    5.96
   4   5  -8    4.33    2.12
  -4  -5   8   11.79   14.43
  -4  -5   8    3.25    1.59
   3   5  -8   16.63    6.26
   3   5  -8    4.23    3.00
   3   5  -8    3.83    4.88
   3   5  -8   10.13    2.56
  -3  -5   8    1.36   12.00
  -3  -5   8   10.45    1.84
   2   5  -8    8.92    3.17
   2   5  -8   11.78    2.50
   2   5  -8    3.70    4.75
   2   5  -8    3.94    4.42
  -2  -5   8    9.80    1.76
  -2  -5   8    9.29   12.37
   1   5  -8   12.76    3.53
   1   5  -8    6.52    5.72
   1   5  -8   13.74    2.49
   1   5  -8   13.70    5.74
  -1  -5   8    8.47   11.82
  -1  -5   8    9.28    1.63
   0   5  -8   22.36    8.00
   0   5  -8   29.35    7.36
   0   5  -8   38.77    3.96
   0   5  -8   34.82    4.68
   0  -5   8   28.88    2.47
   0  -5   8   25.23   13.78
  -1   5  -8    7.71    5.90
  -1   5  -8   15.53    3.34
  -1   5  -8   13.11    2.68
  -1   5  -8   19.31    7.12
   1  -5   8   17.77   11.93
   1  -5   8   13.20    1.68
  -2   5  -8   22.06    3.70
  -2   5  -8   16.53    6.72
  -2   5  -8   18.27    7.66
  -2   5  -8   16.73    2.99
   2  -5   8   15.34    1.86
   2  -5   8   10.32   10.34
   2  -5   8   18.70    5.50
  -3   5  -8    2.57    1.97
  -3   5  -8    1.76    5.07
  -3   5  -8   -0.03    4.73
  -3   5  -8    0.64    1.89
   3  -5   8   -0.32    7.84
   3  -5   8    2.78    4.95
  -4   5  -8   22.49    3.45
  -4   5  -8   18.90    6.38
  -4   5  -8   24.10    8.69
   4  -5   8   25.61    7.76
   4  -5   8   13.60    9.13
  -5   5  -8   -0.11    1.94
  -5   5  -8   -2.45    4.38
  -5   5  -8   -0.12    6.78
   5  -5   8    4.02    6.35
  -6   5  -8    6.55    2.65
   6   4  -8   -1.83    2.84
  -6  -4   8   -4.01    9.39
   5   4  -8    3.38    3.94
   5   4  -8    6.57    3.70
   5   4  -8   14.30    7.26
   5   4  -8    8.94    2.55
  -5  -4   8    5.33    1.87
  -5  -4   8   -8.33    8.48
  -5  -4   8    9.75    2.38
   4   4  -8   17.06    6.38
   4   4  -8   10.12    2.60
   4   4  -8    9.31    4.84
   4   4  -8   10.27    3.59
  -4  -4   8    6.90    2.25
  -4  -4   8   10.30    1.98
   3   4  -8    9.64    3.23
   3   4  -8    7.45    4.61
   3   4  -8    9.79    2.31
   3   4  -8   14.29    5.80
  -3  -4   8   14.03    2.09
   2   4  -8    5.76    2.72
   2   4  -8    4.33    4.08
   2   4  -8   -1.29    4.16
   2   4  -8    3.41    1.81
  -2  -4   8    3.89    1.36
   1   4  -8   52.43    5.46
   1   4  -8   32.89    8.71
   1   4  -8   46.05    3.99
   1   4  -8   48.04    8.09
  -1  -4   8   35.77    3.06
   0   4  -8   10.86    2.89
   0   4  -8    8.70    2.21
   0   4  -8    9.12    5.38
   0   4  -8    8.54    5.14
   0  -4   8    7.44    1.55
  -1   4  -8   28.55    3.52
  -1   4  -8   27.12    7.75
  -1   4  -8   26.37    7.86
  -1   4  -8   31.57    4.06
   1  -4   8   34.50    5.61
   1  -4   8   26.30    2.49
  -2   4  -8    2.14    4.75
  -2   4  -8    1.50    1.99
  -2   4  -8   -2.35    4.68
  -2   4  -8    3.22    2.03
   2  -4   8   -1.86    3.69
   2  -4   8    0.94    1.14
  -3   4  -8   38.45    3.82
  -3   4  -8   34.72    9.17
  -3   4  -8   34.35    4.26
  -3   4  -8   33.83    7.59
   3  -4   8   24.26   11.24
   3  -4   8   31.82    2.73
   3  -4   8   44.93    8.27
  -4   4  -8   -0.05    1.59
  -4   4  -8    1.21    4.31
  -4   4  -8   -0.21    5.13
  -4   4  -8    1.05    1.77
   4  -4   8   -0.68    5.25
   4  -4   8    1.83    6.47
   4  -4   8    1.51    1.12
  -5   4  -8   25.06    6.85
  -5   4  -8   41.21   10.84
  -5   4  -8   29.24    3.89
   5  -4   8   22.78    8.31
  -6   4  -8    0.69    7.29
  -6   4  -8    3.77    4.91
  -6   4  -8   -0.44    2.11
   6  -4   8   -7.11    6.54
   6   3  -8    6.14    3.41
  -6  -3   8    8.90    2.44
  -6  -3   8   11.31   11.47
   5   3  -8    8.87    6.04
   5   3  -8    6.12    2.33
   5   3  -8    9.84    3.65
   5   3  -8    2.15    3.65
  -5  -3   8    6.28    2.40
  -5  -3   8    6.60    2.04
   4   3  -8   16.13    3.98
   4   3  -8   11.05    4.94
   4   3  -8   16.16    2.85
   4   3  -8   18.19    6.09
  -4  -3   8   13.19    2.11
  -4  -3   8   14.74    3.11
   3   3  -8    5.32    2.59
   3   3  -8    3.82    1.75
   3   3  -8    5.41    4.07
   3   3  -8    8.18    5.05
  -3  -3   8    2.31    2.09
  -3  -3   8    5.96    1.59
   2   3  -8   62.48    8.64
   2   3  -8   61.58    6.00
   2   3  -8   38.72    9.08
   2   3  -8   55.48    4.18
  -2  -3   8   61.39    3.79
  -2  -3   8   39.98    5.36
   1   3  -8   -0.09    1.60
   1   3  -8   -2.45    4.04
   1   3  -8    4.98    2.38
   1   3  -8    5.21    4.04
  -1  -3   8    7.16    3.40
  -1  -3   8    3.55    1.36
   0   3  -8   52.68    4.17
   0   3  -8   46.66    7.98
   0   3  -8   35.32    8.68
   0   3  -8   52.02    5.29
   0  -3   8   46.50    3.40
   0  -3   8   48.75    6.29
  -1   3  -8    1.63    1.84
  -1   3  -8    1.66    3.91
  -1   3  -8    1.46    1.65
  -1   3  -8    9.46    5.47
   1  -3   8   -0.48    1.05
   1  -3   8    6.70    3.32
   1  -3   8    3.20    1.33
  -2   3  -8   39.22    8.35
  -2   3  -8   43.16    3.93
  -2   3  -8   46.40    9.14
  -2   3  -8   47.31    4.86
   2  -3   8   38.21    3.10
  -3   3  -8    1.86    1.72
  -3   3  -8   -4.09    4.22
  -3   3  -8    4.14    4.62
  -3   3  -8    1.16    1.88
   3  -3   8    2.33    4.53
   3  -3   8    3.49    1.35
  -4   3  -8   54.64    5.42
  -4   3  -8   54.50    8.90
  -4   3  -8   82.44   12.56
  -4   3  -8   48.10    4.69
  -5   3  -8    2.24    4.68
  -5   3  -8   -0.81    5.46
  -5   3  -8    2.85    1.92
   5  -3   8    1.52    1.26
   5  -3   8    2.18    5.95
  -6   3  -8    9.37    5.37
  -6   3  -8   21.48    8.74
  -6   3  -8   13.66    2.78
   6  -3   8   21.50    8.33
   6  -3   8    8.80    1.99
  -7   3  -8    9.54    5.28
   6   2  -8   -0.37    2.46
   6   2  -8    4.41    2.27
  -6  -2   8    3.83    2.08
  -6  -2   8    1.32    2.62
   5   2  -8   15.68    2.93
   5   2  -8   15.55    3.76
  -5  -2   8   11.54    3.17
  -5  -2   8   13.55    2.23
   4   2  -8    0.77    2.16
   4   2  -8    2.94    3.02
   4   2  -8    1.41    1.70
   4   2  -8    4.61    4.85
  -4  -2   8    0.20    1.43
  -4  -2   8    0.70    2.15
   3   2  -8   48.49    5.30
   3   2  -8   45.43    3.79
   3   2  -8   49.19    7.95
   3   2  -8   30.03    7.33
  -3  -2   8   42.90    4.81
  -3  -2   8   49.13    6.35
  -3  -2   8   42.95    3.39
   2   2  -8    2.96    1.60
   2   2  -8   -0.87    2.90
   2   2  -8   -0.90    3.79
   2   2  -8    1.06    2.04
  -2  -2   8    2.67    2.85
  -2  -2   8    1.01    1.21
  -2  -2   8   -0.48    1.72
   1   2  -8   75.05    9.17
   1   2  -8   81.60    6.84
   1   2  -8   71.12    6.64
   1   2  -8   54.30    9.51
   1   2  -8   75.11    5.03
  -1  -2   8   78.32    4.52
  -1  -2   8   76.28    6.91
  -1  -2   8   63.69    6.45
   0   2  -8   -1.90    4.02
   0   2  -8   -1.39    2.62
   0   2  -8   -0.44    2.84
   0   2  -8    0.16    1.64
   0   2  -8    1.56    1.43
   0  -2   8    0.51    2.73
   0  -2   8   -0.18    1.00
  -1   2  -8   58.38    9.29
  -1   2  -8   37.76    5.69
  -1   2  -8   58.70    5.42
  -1   2  -8   52.22    8.43
  -1   2  -8   61.10    4.32
   1  -2   8   53.12    3.72
   1  -2   8   46.20    6.32
  -2   2  -8   31.73    7.39
  -2   2  -8   31.13    3.74
  -2   2  -8   26.47    6.78
  -2   2  -8   25.71    3.29
  -2   2  -8   21.66    4.12
   2  -2   8   27.21    4.87
   2  -2   8   23.54    2.47
  -3   2  -8   51.46    5.06
  -3   2  -8   46.16    4.25
  -3   2  -8   62.81    9.69
  -3   2  -8   54.55    8.44
   3  -2   8   41.57    5.70
   3  -2   8   47.28    3.58
  -4   2  -8   14.22    6.26
  -4   2  -8   10.29    2.47
  -4   2  -8   10.12    5.24
   4  -2   8    5.10    1.60
  -5   2  -8   16.06    5.83
  -5   2  -8   24.72    3.24
   5  -2   8   23.41    2.71
  -6   2  -8   11.17    7.02
  -6   2  -8   10.14    5.43
  -6   2  -8    6.71    2.31
   6  -2   8   12.34    7.78
   6  -2   8    5.50    1.82
  -7   2  -8    8.37    2.23
  -7   2  -8   23.21    9.91
  -7   2  -8   11.66    5.30
   7  -2   8   15.14    8.44
   7  -2   8    8.34    2.14
   6   1  -8   14.39    3.07
   6   1  -8   15.40    3.58
  -6  -1   8   16.64    2.72
  -6  -1   8   12.58    3.72
   5   1  -8    0.15    1.98
   5   1  -8   -0.07    1.92
  -5  -1   8   -3.50    2.05
  -5  -1   8   -0.62    1.39
   4   1  -8   32.29    4.29
   4   1  -8   23.32    5.56
   4   1  -8   34.63    3.61
   4   1  -8   32.77    6.78
  -4  -1   8   30.39    4.22
  -4  -1   8   32.10    3.04
  -4  -1   8   32.90    6.04
   3   1  -8    5.52    1.77
   3   1  -8    4.06    2.91
   3   1  -8    5.51    2.28
   3   1  -8    4.72    4.30
  -3  -1   8    2.92    1.32
  -3  -1   8    7.20    3.55
  -3  -1   8    4.84    2.21
   2   1  -8   63.18    8.30
   2   1  -8   69.66    6.23
   2   1  -8   61.72    4.45
   2   1  -8   64.00    6.54
   2   1  -8   51.84    8.48
  -2  -1   8   69.66    6.18
  -2  -1   8   61.85    6.06
  -2  -1   8   60.48    6.84
  -2  -1   8   66.16    4.07
   1   1  -8   -1.61    3.46
   1   1  -8    0.63    2.51
   1   1  -8   -2.23    2.35
   1   1  -8    1.30    1.35
   1   1  -8   -0.70    1.45
  -1  -1   8   -1.46    2.15
  -1  -1   8    0.56    1.00
  -1  -1   8    0.77    1.68
  -1  -1   8   -0.23    2.56
   0   1  -8   41.76    7.13
   0   1  -8   47.69    3.60
   0   1  -8   42.35    7.24
   0   1  -8   53.59    4.81
   0   1  -8   48.29    6.04
   0  -1   8   52.32    6.34
   0  -1   8   33.40    4.55
   0  -1   8   44.00    3.13
  -1   1  -8   19.43    3.10
  -1   1  -8   10.47    5.12
  -1   1  -8   14.55    2.29
  -1   1  -8   13.71    3.61
  -1   1  -8   22.07    5.77
   1  -1   8   12.75    1.82
   1  -1   8   12.12    3.81
  -2   1  -8   58.79    8.39
  -2   1  -8   54.56    6.27
  -2   1  -8   61.87    5.71
  -2   1  -8   77.52    9.90
  -2   1  -8   59.32    4.44
   2  -1   8   63.34    6.28
   2  -1   8   58.90    4.06
  -3   1  -8   23.62    3.05
  -3   1  -8   16.49    5.56
  -3   1  -8   32.04    7.64
  -3   1  -8   16.26    3.89
   3  -1   8   23.47    2.53
   3  -1   8   22.65    4.42
  -4   1  -8   40.70    7.32
  -4   1  -8   41.65    3.63
   4  -1   8   35.38    5.48
   4  -1   8   36.76    3.07
  -5   1  -8   14.76    5.37
  -5   1  -8   33.21    8.64
  -5   1  -8   19.18    3.04
   5  -1   8   15.08    2.41
  -6   1  -8   28.98    9.31
  -6   1  -8    8.27    4.91
   6  -1   8    8.26    2.02
  -7   1  -8   35.65   10.65
  -7   1  -8   25.31    6.80
  -7   0   8    4.40    3.36
   6   0  -8    0.82    1.86
   6   0  -8   -2.13    1.85
  -6   0   8   -3.49    2.27
  -6   0   8   -0.63    1.77
   5   0  -8   18.73    2.84
   5   0  -8   16.69    3.26
  -5   0   8   14.84    5.09
  -5   0   8   18.39    2.46
  -5   0   8   10.58    3.08
   4   0  -8    9.89    4.80
   4   0  -8   10.25    2.32
   4   0  -8   12.92    2.89
  -4   0   8    7.02    4.35
  -4   0   8    6.25    2.50
  -4   0   8    7.36    1.71
   3   0  -8   24.00    4.86
   3   0  -8   32.49    3.14
   3   0  -8   38.10    4.12
   3   0  -8   29.70    6.17
  -3   0   8   36.17    6.19
  -3   0   8   31.31    5.29
  -3   0   8   31.96    4.14
  -3   0   8   36.35    2.78
   2   0  -8    1.26    3.65
   2   0  -8    0.35    1.98
   2   0  -8    0.54    1.62
   2   0  -8    0.63    1.31
  -2   0   8    2.50    1.17
  -2   0   8    0.75    1.81
  -2   0   8    3.34    2.45
  -2   0   8    2.85    2.77
  -2   0   8    6.84    3.58
   1   0  -8   79.86    9.64
   1   0  -8   86.86    9.29
   1   0  -8   79.19    5.06
   1   0  -8   65.44    6.48
   1   0  -8   84.92    7.05
  -1   0   8   83.17    7.13
  -1   0   8   77.62    8.66
  -1   0   8   74.11    4.62
  -1   0   8   71.00    8.33
  -1   0   8   86.43    7.11
   0   0  -8   22.53    5.50
   0   0  -8   28.74    5.20
   0   0  -8   24.83    2.77
   0   0  -8   19.13    4.20
   0   0  -8   27.85    3.38
   0   0   8   24.83    4.43
   0   0   8   24.84    2.22
   0   0   8   20.51    4.81
   0   0   8   22.04    3.32
  -1   0  -8   68.89    5.81
  -1   0  -8   67.44    4.46
  -1   0  -8   60.95    5.86
  -1   0  -8   78.14    9.07
   1   0   8   70.84    7.88
   1   0   8   48.54    5.65
   1   0   8   62.14    6.22
   1   0   8   62.50    3.93
  -2   0  -8   94.46    5.78
  -2   0  -8   83.77    9.74
  -2   0  -8   93.69    7.79
  -2   0  -8   99.16    7.39
   2   0   8   91.38    7.65
   2   0   8   95.93    5.46
   2   0   8   77.20    8.93
  -3   0  -8   37.34    5.03
  -3   0  -8   32.55    3.08
  -3   0  -8   26.74    6.06
   3   0   8   30.85    5.06
   3   0   8   30.86    2.68
  -4   0  -8   43.36    8.29
  -4   0  -8   21.74    4.33
  -4   0  -8   23.26    5.77
  -4   0  -8   30.36    3.36
   4   0   8   27.85    2.95
   4   0   8   25.98    5.00
  -5   0  -8   13.92    5.14
  -5   0  -8   26.37    8.23
  -5   0  -8   13.70    2.60
   5   0   8   10.23    2.05
   5   0   8   10.28    3.70
  -6   0  -8   37.79    7.09
   6   0   8   31.13    3.39
  -7   0  -8   15.79    8.33
  -7   0  -8    3.39    1.74
   7   0   8    4.46    1.78
   7  -1  -8   -0.86    2.08
  -7   1   8   -5.77    2.65
   6  -1  -8   11.69    2.62
  -6   1   8   13.97    2.39
  -6   1   8    7.51    3.30
   5  -1  -8    8.00    2.31
   5  -1  -8    7.73    2.08
  -5   1   8    6.40    1.86
  -5   1   8    3.80    2.68
   4  -1  -8   39.09    3.49
   4  -1  -8   36.62    4.39
  -4   1   8   37.88    5.01
  -4   1   8   44.62    6.35
  -4   1   8   38.35    3.11
   3  -1  -8   12.63    4.51
   3  -1  -8   14.95    2.33
   3  -1  -8   12.86    2.04
   3  -1  -8   12.24    2.60
  -3   1   8   10.78    2.65
  -3   1   8   15.77    4.30
  -3   1   8   10.02    1.72
   2  -1  -8   79.62    6.68
   2  -1  -8   65.56    8.26
   2  -1  -8   74.17    4.74
  -2   1   8   68.10    6.68
  -2   1   8   72.83    6.68
  -2   1   8   72.09    4.44
  -2   1   8   65.16    8.22
   1  -1  -8   38.17    4.21
   1  -1  -8   46.33    6.67
   1  -1  -8   39.92    3.16
  -1   1   8   32.50    5.78
  -1   1   8   31.92    6.09
  -1   1   8   48.07    4.43
  -1   1   8   38.63    5.22
  -1   1   8   34.84    2.74
   0  -1  -8   24.20    5.21
   0  -1  -8   27.79    3.42
   0  -1  -8   25.32    2.54
   0   1   8   26.98    2.36
   0   1   8   21.98    4.13
   0   1   8   28.68    3.46
   0   1   8   24.19    4.98
  -1  -1  -8   90.82    5.62
  -1  -1  -8  101.47    9.01
   1   1   8   91.16    7.57
   1   1   8   79.33    8.00
   1   1   8  100.56    8.15
   1   1   8   96.52    5.42
  -2  -1  -8   39.89    6.26
  -2  -1  -8   36.61    3.12
  -2  -1  -8   36.22    5.20
   2   1   8   31.36    2.66
   2   1   8   35.77    5.18
   2   1   8   34.14    5.65
  -3  -1  -8   48.96    3.70
  -3  -1  -8   47.39    7.10
   3   1   8   47.81    7.06
   3   1   8   41.86    5.77
   3   1   8   43.42    3.37
  -4  -1  -8   10.55    4.45
  -4  -1  -8   11.30    2.04
   4   1   8   11.59    3.75
   4   1   8    8.64    1.73
  -5  -1  -8   51.12    7.42
   5   1   8   39.94    3.44
   5   1   8   58.31    7.21
  -6  -1  -8    4.15    5.87
  -6  -1  -8    1.92    1.65
  -6  -1  -8    2.75    3.94
  -6  -1  -8   -0.33    4.13
   6   1   8    1.79    1.52
  -7  -1  -8   26.08    3.25
   7   1   8   30.05    3.48
   7  -2  -8    7.44    2.59
   7  -2  -8    3.81   15.09
   6  -2  -8    8.91    2.30
  -6   2   8    6.75    1.89
  -6   2   8    5.07    3.07
   5  -2  -8   13.17    2.44
  -5   2   8   11.84    2.02
  -5   2   8    8.24    2.95
   4  -2  -8   23.67    3.48
   4  -2  -8   24.84    2.96
  -4   2   8   29.48    4.41
  -4   2   8   26.70    2.56
  -4   2   8   32.22    5.82
   3  -2  -8   27.43    3.65
   3  -2  -8   28.60    2.99
   3  -2  -8   25.28    5.63
  -3   2   8   32.34    5.17
  -3   2   8   26.97    2.45
  -3   2   8   28.04    3.91
   2  -2  -8   30.27    5.55
   2  -2  -8   30.26    3.65
   2  -2  -8   27.77    2.81
  -2   2   8   18.78    5.06
  -2   2   8   27.28    4.54
  -2   2   8   31.57    3.88
  -2   2   8   30.99    2.53
   1  -2  -8   14.13    4.15
   1  -2  -8    9.89    1.79
  -1   2   8    6.47    3.58
  -1   2   8    7.46    2.12
  -1   2   8    8.30    1.36
  -1   2   8    7.81    2.99
   0  -2  -8   92.98    8.75
   0  -2  -8   98.89    5.76
   0   2   8   80.91    8.09
   0   2   8   88.83    7.33
   0   2   8   93.95    5.41
   0   2   8  110.92    8.26
  -1  -2  -8   11.26    3.94
  -1  -2  -8   12.83    1.92
   1   2   8   17.90    2.75
   1   2   8   13.95    1.82
   1   2   8    7.82    3.61
   1   2   8   14.67    3.93
   1   2   8   12.09    3.31
  -2  -2  -8   84.07    4.73
  -2  -2  -8   76.29    8.26
   2   2   8   77.04    6.66
   2   2   8   73.56    4.51
   2   2   8   71.92    7.35
   2   2   8   67.78    6.60
  -3  -2  -8   29.91    8.00
  -3  -2  -8   12.39    4.08
  -3  -2  -8   12.59    1.97
  -3  -2  -8   22.80    6.28
   3   2   8    8.41    3.96
   3   2   8   12.58    1.93
   3   2   8    9.90    3.35
  -4  -2  -8   68.34    4.56
  -4  -2  -8   62.48    7.79
   4   2   8   64.83    4.34
   4   2   8   69.88    8.72
   4   2   8   60.51    7.02
  -5  -2  -8   -0.61    3.15
  -5  -2  -8   -3.51    3.99
  -5  -2  -8    3.06    4.42
   5   2   8    0.48    1.25
   5   2   8    5.19    3.32
  -6  -2  -8   45.23    3.83
  -6  -2  -8   55.85    9.38
   6   2   8   47.75    6.94
   6   2   8   48.23    3.91
  -7  -2  -8    1.71    1.56
   7   2   8    0.84    1.68
   6  -3  -8    6.42    2.03
   6  -3  -8   -0.99   14.93
  -6   3   8    2.92    3.09
  -6   3   8    1.97    1.57
   5  -3  -8   37.49    9.68
   5  -3  -8   24.14    2.97
   5  -3  -8   13.36   14.67
  -5   3   8   19.18    2.43
  -5   3   8   15.77    3.72
   4  -3  -8   40.63    9.68
   4  -3  -8   16.03    2.45
  -4   3   8   22.92    5.11
  -4   3   8   18.61    3.63
  -4   3   8   21.00    2.41
   3  -3  -8   29.62    2.91
  -3   3   8   24.66    4.87
  -3   3   8   26.73    2.45
  -3   3   8   21.05    3.72
   2  -3  -8   26.25    7.86
   2  -3  -8   11.35    1.94
   2  -3  -8    8.69    3.52
  -2   3   8    4.88    3.52
  -2   3   8    7.33    3.05
  -2   3   8   10.28    2.53
  -2   3   8    9.00    1.46
   1  -3  -8   69.41    4.27
   1  -3  -8   68.07    7.55
   1  -3  -8   58.49    3.65
  -1   3   8   67.13    3.99
  -1   3   8   70.96    6.31
  -1   3   8   59.27    7.29
  -1   3   8   68.53    6.09
   0  -3  -8   20.48    7.22
   0  -3  -8    8.67    1.53
   0  -3  -8    5.24    1.00
   0  -3  -8    4.60    3.03
   0   3   8    3.91    2.15
   0   3   8    5.85    1.94
   0   3   8    2.12    3.22
   0   3   8    5.43    2.56
   0   3   8    5.13    1.25
  -1  -3  -8   86.19    4.94
  -1  -3  -8   97.12    7.94
  -1  -3  -8   97.44    5.30
   1   3   8  104.25   10.72
   1   3   8   82.86    7.11
   1   3   8   78.78    7.69
   1   3   8   85.40    5.12
  -2  -3  -8   17.40    6.75
  -2  -3  -8    8.89    1.48
   2   3   8    7.35    2.88
   2   3   8    9.35    3.68
   2   3   8    8.09    2.09
   2   3   8    9.57    1.54
  -3  -3  -8   59.56    3.78
  -3  -3  -8   53.61    6.90
  -3  -3  -8   49.90    6.48
   3   3   8   55.48    3.75
   3   3   8   59.54    6.62
   3   3   8   56.64    7.17
  -4  -3  -8    0.81    4.06
  -4  -3  -8    2.36    4.60
  -4  -3  -8   -0.74    2.45
   4   3   8    1.58    1.18
   4   3   8    1.29    2.61
  -5  -3  -8   53.14    3.80
  -5  -3  -8   72.46   10.89
   5   3   8   50.20    6.78
   5   3   8   53.48    4.14
  -6  -3  -8    3.03    4.17
  -6  -3  -8   -0.23    1.29
   6   3   8    2.99    1.74
   6   3   8   -0.84    2.91
  -7  -3  -8   18.84    2.57
   7   3   8   13.98    2.50
  -8  -3  -8    1.64    1.76
   6  -4  -8   11.10   14.97
  -6   4   8   12.15    3.62
  -6   4   8   10.97    2.30
   5  -4  -8    6.67   13.06
  -5   4   8    7.06    3.11
  -5   4   8    6.37    1.76
   4  -4  -8   28.15   15.60
   4  -4  -8   24.82    2.59
  -4   4   8   25.41    4.34
  -4   4   8   25.95    5.32
  -4   4   8   22.32    2.45
   3  -4  -8    6.33    5.71
   3  -4  -8    5.81    1.45
   3  -4  -8    7.40   11.48
  -3   4   8    5.77    3.42
  -3   4   8    3.65    1.31
  -3   4   8    5.78    2.37
   2  -4  -8   78.30   16.55
   2  -4  -8   53.67    3.52
  -2   4   8   61.88    5.86
  -2   4   8   51.73    3.46
  -2   4   8   53.40    7.19
  -2   4   8   41.28    5.46
   1  -4  -8   -0.06    0.47
   1  -4  -8    0.61    2.75
   1  -4  -8    3.63    8.66
   1  -4  -8    0.03    4.55
   1  -4  -8   -0.39    0.87
  -1   4   8    1.53    1.63
  -1   4   8    0.01    0.73
  -1   4   8    0.75    0.96
  -1   4   8    0.84    3.51
  -1   4   8   -1.23    2.39
   0  -4  -8  115.65    8.72
   0  -4  -8  179.43   17.67
   0  -4  -8  118.22    6.31
   0  -4  -8  103.25    6.01
   0   4   8  124.41    9.71
   0   4   8  114.89    6.36
   0   4   8  137.82   12.79
   0   4   8  115.43    8.13
   0   4   8  107.56    9.30
  -1  -4  -8   -0.79    0.57
  -1  -4  -8    2.26    2.50
  -1  -4  -8    3.48    5.49
  -1  -4  -8    1.10    4.68
  -1  -4  -8   -0.09    0.82
   1   4   8    0.61    1.35
   1   4   8   -0.56    2.96
   1   4   8   -1.85    1.88
   1   4   8    0.14    2.16
   1   4   8   -0.25    0.88
  -2  -4  -8   63.25    3.79
  -2  -4  -8   56.18    6.33
  -2  -4  -8   54.16    3.54
  -2  -4  -8   71.36    9.66
   2   4   8   76.90    5.84
   2   4   8   56.68    3.89
   2   4   8   62.74    7.32
   2   4   8   63.95    5.80
  -3  -4  -8    6.04    5.28
  -3  -4  -8    3.60    4.07
  -3  -4  -8   -1.22    2.40
   3   4   8    0.71    3.68
   3   4   8    7.08    2.85
   3   4   8    2.28    1.14
   3   4   8    4.13    1.65
  -4  -4  -8   61.40    4.04
  -4  -4  -8   79.91   11.75
   4   4   8   68.10    6.65
   4   4   8   66.91    4.37
  -5  -4  -8    8.16    5.96
  -5  -4  -8    4.63    1.31
   5   4   8    7.33    3.43
   5   4   8    4.92    1.64
  -6  -4  -8   36.26    9.59
  -6  -4  -8   38.83    3.20
   6   4   8   34.65    3.48
   6   4   8   34.77    6.29
  -7  -4  -8    7.60    1.86
   7   4   8    8.35    4.27
   7   4   8    4.30    1.78
  -8  -4  -8    6.74    2.00
   6  -5  -8    0.77   14.70
  -6   5   8    0.86    1.70
   5  -5  -8   10.06   15.20
  -5   5   8   17.56    2.31
  -5   5   8   17.36    3.99
   4  -5  -8   -3.53   11.66
   4  -5  -8    0.97    4.17
  -4   5   8    1.25    1.28
  -4   5   8    1.36    3.54
  -4   5   8   -0.49    2.26
   3  -5  -8   25.74   14.00
   3  -5  -8   44.06    9.60
  -3   5   8   33.12    4.42
  -3   5   8   26.20    2.50
  -3   5   8   29.88    4.87
   2  -5  -8    7.66   10.32
   2  -5  -8    0.04    4.43
  -2   5   8    2.82    2.43
  -2   5   8    1.08    0.98
  -2   5   8    0.44    1.80
   1  -5  -8   95.80    7.24
   1  -5  -8   96.61   17.59
  -1   5   8  107.10    8.43
  -1   5   8   86.01    8.39
  -1   5   8   90.90    5.27
  -1   5   8   91.51    7.14
   0  -5  -8    5.96    7.82
   0  -5  -8    1.95    0.38
   0  -5  -8    2.07    4.86
   0  -5  -8   -1.96    1.77
   0   5   8    1.70    0.94
   0   5   8   -1.69    2.93
   0   5   8    2.94    1.71
   0   5   8    4.34    2.47
   0   5   8    2.78    2.32
  -1  -5  -8   58.74    3.03
  -1  -5  -8   61.95   12.34
  -1  -5  -8   52.13    2.94
  -1  -5  -8   51.51    4.86
   1   5   8   57.34    5.30
   1   5   8   42.74    6.09
   1   5   8   55.59    5.35
   1   5   8   60.33    3.55
  -2  -5  -8    3.19    5.79
  -2  -5  -8   12.92    6.31
  -2  -5  -8    8.18    1.04
  -2  -5  -8    5.24    2.45
  -2  -5  -8    9.12    1.08
   2   5   8    9.62    1.54
   2   5   8    4.45    2.42
   2   5   8    9.45    2.11
   2   5   8    3.08    3.21
  -3  -5  -8   35.86    2.48
  -3  -5  -8   36.62    7.95
  -3  -5  -8   45.30   10.49
   3   5   8   31.97    4.69
   3   5   8   36.49    2.90
   3   5   8   40.53    3.97
  -4  -5  -8   10.12    1.43
  -4  -5  -8   14.00    6.92
   4   5   8   12.34    3.57
   4   5   8   10.51    1.79
  -5  -5  -8   35.65    2.71
  -5  -5  -8   30.61    9.51
   5   5   8   30.81    5.39
   5   5   8   30.45    3.11
  -6  -5  -8    9.80    6.54
  -6  -5  -8   10.99    1.75
   6   5   8    8.67    2.04
   6   5   8    4.94    3.53
  -7  -5  -8    6.35    1.67
  -7  -5  -8    5.55    6.09
   7   5   8    1.21    4.14
   7   5   8    4.09    1.94
  -8  -5  -8    5.75    1.80
   5  -6  -8    1.29   14.38
  -5   6   8   -1.91    2.66
  -5   6   8   -3.92    4.10
   4  -6  -8   11.29   15.03
  -4   6   8   14.19    3.51
  -4   6   8   10.28    1.78
  -4   6   8   14.04    4.39
   3  -6  -8   -0.17   11.21
   3  -6  -8    5.19    5.24
  -3   6   8    1.36    1.18
  -3   6   8    1.78    2.12
  -3   6   8    2.06    3.13
   2  -6  -8   44.69   15.53
   2  -6  -8   60.54   10.65
  -2   6   8   44.42    5.25
  -2   6   8   49.92    3.28
  -2   6   8   49.85    5.51
   1  -6  -8   16.80    7.22
   1  -6  -8    6.73   10.47
  -1   6   8   14.00    4.12
  -1   6   8    9.11    1.35
  -1   6   8   10.03    2.51
  -1   6   8    9.33    2.91
   0  -6  -8   54.39   10.17
   0  -6  -8   42.10   13.32
   0   6   8   48.03    4.74
   0   6   8   43.03    2.84
   0   6   8   34.99    5.63
   0   6   8   26.90    4.15
  -1  -6  -8   14.96    6.92
  -1  -6  -8    2.27    7.07
  -1  -6  -8   39.00   12.60
   1   6   8    9.05    1.40
   1   6   8    6.82    3.50
   1   6   8    9.29    2.14
   1   6   8   12.33    2.87
  -2  -6  -8   26.82    8.77
  -2  -6  -8   26.72    9.02
   2   6   8   24.35    2.20
   2   6   8   21.52    3.70
   2   6   8   22.93    3.20
   2   6   8   15.91    4.39
  -3  -6  -8   18.54    1.40
  -3  -6  -8   60.67   14.81
  -3  -6  -8   24.92    7.77
  -3  -6  -8   14.24    7.43
   3   6   8   21.90    2.16
   3   6   8   18.18    3.67
   3   6   8   21.56    2.88
  -4  -6  -8   29.74    2.07
  -4  -6  -8   30.76   10.05
   4   6   8   31.32    5.04
   4   6   8   28.22    2.76
  -5  -6  -8   12.63    7.10
  -5  -6  -8   14.37    1.63
   5   6   8   16.49    4.39
   5   6   8   14.93    2.28
  -6  -6  -8    5.44    6.40
  -6  -6  -8    6.55    1.37
   6   6   8    8.34    4.07
   6   6   8    4.64    1.84
  -7  -6  -8    5.68    6.59
  -7  -6  -8    6.41    1.56
   7   6   8    6.90    4.18
   7   6   8    5.25    2.13
   5  -7  -8    6.22   17.72
   4  -7  -8   -7.77   12.66
  -4   7   8    2.35    2.64
  -4   7   8    1.44    3.39
   3  -7  -8   17.82    7.24
   3  -7  -8   27.12   15.84
  -3   7   8   21.38    4.13
  -3   7   8   19.60    3.86
   2  -7  -8   13.63    7.02
   2  -7  -8    3.49   11.64
  -2   7   8    6.55    2.53
  -2   7   8    7.44    3.00
   1  -7  -8   27.67    8.88
   1  -7  -8   26.46   14.10
  -1   7   8   19.41    3.42
  -1   7   8   32.70    4.23
   0  -7  -8   24.71   11.69
   0  -7  -8    6.93    5.93
   0  -7  -8    0.84    8.81
   0   7   8    7.45    2.31
   0   7   8    7.00    2.42
   0   7   8    6.62    1.16
   0   7   8    4.34    3.34
  -1  -7  -8   16.58   10.44
  -1  -7  -8   19.37    8.55
  -1  -7  -8   49.49   15.19
   1   7   8   15.94    1.73
   1   7   8   15.95    2.73
   1   7   8   12.58    3.90
   1   7   8   13.52    2.95
  -2  -7  -8   13.01    8.65
  -2  -7  -8   13.34    7.27
  -2  -7  -8   44.06   14.20
   2   7   8   10.05    2.24
   2   7   8   17.28    3.31
   2   7   8   17.22    1.84
  -3  -7  -8   17.51    8.10
  -3  -7  -8   31.07   10.49
   3   7   8   20.02    3.77
   3   7   8   21.41    2.20
  -4  -7  -8   70.20   16.96
  -4  -7  -8   17.01    8.73
   4   7   8   20.91    4.15
   4   7   8   20.09    2.44
  -5  -7  -8   10.85    7.06
  -5  -7  -8   19.96   11.62
   5   7   8    5.68    1.75
   5   7   8    7.45    3.69
  -6  -7  -8   32.68   13.68
  -6  -7  -8    5.45    7.40
   6   7   8   10.53    2.07
   6   7   8   13.77    4.45
   7   7   8    0.66    1.76
   7   7   8   -2.10    3.15
   4  -8  -8   -3.28   15.53
   3  -8  -8   -1.64   14.01
   3  -8  -8   17.24    7.57
  -3   8   8   10.62    3.35
  -3   8   8   11.72    3.58
   2  -8  -8   14.22    7.62
   2  -8  -8    1.30   13.49
  -2   8   8   10.48    3.00
  -2   8   8   13.96    3.24
   1  -8  -8   17.80   13.69
   1  -8  -8    7.90    6.73
  -1   8   8    6.07    2.42
  -1   8   8   11.03    2.93
   0  -8  -8    7.31    7.42
   0  -8  -8   31.70   13.24
   0  -8  -8    9.16   12.77
   0   8   8    7.74    2.39
   0   8   8    4.50    2.23
  -1  -8  -8   16.43    8.52
  -1  -8  -8   11.42   10.55
  -1  -8  -8   54.76   16.29
   1   8   8   15.00    2.91
   1   8   8   16.00    2.89
  -2  -8  -8   19.34   10.28
  -2  -8  -8   54.37   16.50
  -2  -8  -8   18.69    9.04
   2   8   8   14.84    3.18
  -3  -8  -8   36.85   12.01
  -3  -8  -8   38.20   11.73
   3   8   8   31.40    4.57
  -4  -8  -8    6.29   11.27
  -4  -8  -8    2.61    6.33
   4   8   8    1.51    1.28
   4   8   8    2.40    2.71
  -5  -8  -8   11.18    8.68
  -5  -8  -8   33.34   15.14
   5   8   8   11.00    2.04
   5   8   8   19.10    4.50
  -6  -8  -8    2.85   10.56
   6   8   8    0.88    1.43
   6   8   8    0.43    3.38
   3  -9  -8   16.88   17.83
   2  -9  -8   12.81    8.31
   2  -9  -8   13.64   16.20
  -2   9   8   10.05    3.19
  -2   9   8    8.26    2.76
   1  -9  -8   17.62   13.46
   1  -9  -8    8.71   14.71
   1  -9  -8    3.35    6.04
  -1   9   8    1.69    1.95
  -1   9   8    3.98    2.35
   0  -9  -8   64.03   18.29
   0  -9  -8    5.50   12.33
   0  -9  -8   10.56    7.88
   0   9   8   14.84    3.12
   0   9   8   13.30    2.47
  -1  -9  -8    3.20    6.14
  -1  -9  -8    6.51   11.33
  -1  -9  -8   -0.37    9.95
   1   9   8    1.07    1.86
  -2  -9  -8   24.65   10.45
  -2  -9  -8   67.82   19.02
  -2  -9  -8   19.46   11.29
   2   9   8   16.67    3.22
  -3  -9  -8    1.10   10.20
  -3  -9  -8    3.49    6.64
   3   9   8    1.53    2.38
  -4  -9  -8   32.04   16.18
  -4  -9  -8   15.19    9.42
   4   9   8    9.88    3.48
  -5  -9  -8    4.83   12.61
   1 -10  -8   38.56   17.42
   1 -10  -8    8.55    9.86
   1 -10  -8    6.17   16.29
  -1  10   8    5.31    2.79
   0 -10  -8    5.62   13.38
   0 -10  -8    7.88   13.17
  -1 -10  -8   21.68   13.34
  -1 -10  -8   50.75   19.44
   1  10   8   11.65    2.30
  -2 -10  -8    5.92   13.08
  -2 -10  -8    6.21   11.67
  -3 -10  -8   32.07   16.94
  -4 -10  -8   -4.48   10.97
   2   7  -9    2.24    2.19
  -2  -7   9   -9.64   11.49
   1   7  -9    3.35    2.35
  -1  -7   9    4.59   13.97
   0   7  -9    6.87    2.52
   0   7  -9    0.49    2.81
   0  -7   9    3.14   13.10
  -1   7  -9    2.52    3.01
   1  -7   9    1.40   11.98
  -2   7  -9    5.01    3.15
   2  -7   9    8.21   12.05
   4   6  -9    9.80    6.69
   3   6  -9    4.36    5.05
   3   6  -9    3.91    2.49
   3   6  -9    4.76    5.97
  -3  -6   9   -3.59   12.18
   2   6  -9   11.10    6.79
   2   6  -9    1.69    5.04
   2   6  -9    8.59    2.62
   2   6  -9    3.60    3.37
  -2  -6   9    1.86   12.70
   1   6  -9   12.49    6.24
   1   6  -9    5.00    5.69
   1   6  -9    8.73    3.64
   1   6  -9    6.90    2.55
  -1  -6   9    4.47   12.88
   0   6  -9    6.82    6.09
   0   6  -9    2.37    2.63
   0   6  -9   -0.92    4.54
   0   6  -9   -0.01    2.15
   0  -6   9    1.45   11.97
  -1   6  -9   14.94    6.88
  -1   6  -9   19.88    8.18
  -1   6  -9   16.48    3.92
  -1   6  -9   15.76    3.24
   1  -6   9    9.57   12.76
  -2   6  -9    5.67    6.76
  -2   6  -9    1.10    2.46
  -2   6  -9    2.28    2.51
  -2   6  -9   -2.83    6.29
   2  -6   9    3.55   11.18
  -3   6  -9   10.07    6.97
  -3   6  -9   11.88    2.86
   3  -6   9    3.39    8.81
  -4   6  -9    0.02    2.37
   4  -6   9   -1.13    7.85
   4   5  -9    4.26    3.46
   4   5  -9    8.51    5.60
   4   5  -9    5.30    6.20
   4   5  -9    4.28    2.33
  -4  -5   9    6.90    1.92
  -4  -5   9    9.81   14.46
   3   5  -9    6.82    3.50
   3   5  -9    7.48    5.84
   3   5  -9    5.67    5.41
   3   5  -9   11.50    2.81
  -3  -5   9   11.62   14.17
  -3  -5   9   11.48    2.05
   2   5  -9    9.78    5.72
   2   5  -9    7.99    5.87
   2   5  -9   10.66    3.56
   2   5  -9    9.50    2.64
  -2  -5   9   17.27   14.97
   1   5  -9    0.78    2.45
   1   5  -9    0.55    1.97
   1   5  -9   -6.82    4.30
   1   5  -9    1.77    4.71
  -1  -5   9   -1.22    1.15
  -1  -5   9    0.70   10.39
   0   5  -9   26.99    3.64
   0   5  -9   27.41    4.67
   0   5  -9   23.39    8.41
   0   5  -9   24.27    8.04
   0  -5   9   23.39    2.45
   0  -5   9   19.23   14.07
  -1   5  -9    0.39    4.57
  -1   5  -9    9.36    6.61
  -1   5  -9    0.38    2.13
  -1   5  -9    1.70    2.40
   1  -5   9    4.92   11.53
   1  -5   9    1.25    1.15
  -2   5  -9   15.50    6.77
  -2   5  -9   16.47    3.58
  -2   5  -9   16.49    3.27
  -2   5  -9   13.15    7.11
   2  -5   9   14.18   10.98
  -3   5  -9    2.39    5.51
  -3   5  -9   -7.35    5.29
  -3   5  -9    0.98    1.94
  -3   5  -9    0.18    2.07
   3  -5   9    7.31    5.44
   3  -5   9    1.81    8.79
  -4   5  -9   13.57    3.18
  -4   5  -9   13.16    6.11
  -4   5  -9   13.28    7.61
   4  -5   9    8.20    9.42
   4  -5   9   18.71    7.29
  -5   5  -9    0.81    5.47
  -5   5  -9    0.74    2.26
   5  -5   9    3.63    6.68
   5   4  -9    9.18    3.96
  -5  -4   9    7.08    2.08
  -5  -4   9    3.00   13.38
   4   4  -9    4.30    2.31
   4   4  -9    5.27    5.76
   4   4  -9    6.10    3.62
   4   4  -9    1.94    3.98
  -4  -4   9    4.70    1.74
   3   4  -9   13.85    2.77
   3   4  -9   12.47    3.74
   3   4  -9   11.32    6.01
   3   4  -9    9.73    5.67
  -3  -4   9   11.88    2.05
   2   4  -9    1.23    1.78
   2   4  -9   -0.55    2.52
   2   4  -9   -1.50    5.23
   2   4  -9    0.95    4.16
  -2  -4   9    2.65    1.51
   1   4  -9   32.32    4.69
   1   4  -9   27.75    8.35
   1   4  -9   29.91    7.39
   1   4  -9   28.90    3.54
  -1  -4   9   25.44    2.68
   0   4  -9   -0.04    4.23
   0   4  -9   -0.05    2.26
   0   4  -9    0.48    5.87
   0   4  -9   -0.15    1.83
   0  -4   9   -1.95    1.02
  -1   4  -9   47.81    9.66
  -1   4  -9   41.82    4.97
  -1   4  -9   31.63    8.87
  -1   4  -9   40.76    4.09
  -2   4  -9    1.82    4.55
  -2   4  -9   -3.26    1.83
  -2   4  -9    0.42    1.89
  -2   4  -9   -2.70    5.24
   2  -4   9   -0.67    1.20
   2  -4   9   -0.23    3.73
  -3   4  -9   15.04    7.00
  -3   4  -9   26.32    4.04
  -3   4  -9   22.46    3.53
  -3   4  -9   22.23    7.82
   3  -4   9   34.82    7.66
  -4   4  -9    5.67    7.09
  -4   4  -9    3.81    2.03
  -4   4  -9    3.21    2.39
  -4   4  -9    3.25    5.23
   4  -4   9    1.29    1.26
   4  -4   9   -1.07    7.81
   4  -4   9   -5.97    4.82
  -5   4  -9   34.96   11.08
  -5   4  -9   23.83    3.79
  -5   4  -9   17.84    6.78
   5  -4   9   25.43    8.80
  -6   4  -9    1.47    2.54
  -6   4  -9    5.13    5.41
   6  -4   9   -3.20    6.77
   6   3  -9    5.28    3.67
  -6  -3   9    6.92   12.61
   5   3  -9    0.29    2.01
   5   3  -9   -1.94    2.47
  -5  -3   9    1.02    2.21
  -5  -3   9    0.94    1.75
   4   3  -9    7.17    4.44
   4   3  -9   18.19    3.20
   4   3  -9   21.49    6.70
   4   3  -9   17.68    4.15
  -4  -3   9   14.62    3.11
  -4  -3   9   13.30    2.20
   3   3  -9    1.07    3.56
   3   3  -9    1.05    2.49
   3   3  -9   -0.04    1.70
   3   3  -9    5.29    5.24
  -3  -3   9    0.46    1.92
  -3  -3   9    0.21    1.42
   2   3  -9   23.77    7.14
   2   3  -9   27.94    6.86
   2   3  -9   29.57    3.45
   2   3  -9   34.24    4.92
  -2  -3   9   21.07    3.98
  -2  -3   9   27.37    2.76
   1   3  -9    0.89    1.66
   1   3  -9   -0.51    3.37
   1   3  -9   -0.09    1.92
   1   3  -9   -1.47    4.33
  -1  -3   9    0.51    1.33
   0   3  -9   87.46   10.94
   0   3  -9   75.90    5.48
   0   3  -9   57.23   10.62
   0   3  -9   79.43    7.29
  -1   3  -9    1.45    1.99
  -1   3  -9    0.09    5.25
  -1   3  -9    1.64    2.12
  -1   3  -9   -1.44    3.71
   1  -3   9   -0.47    1.25
  -2   3  -9   33.65    3.90
  -2   3  -9   37.16    4.31
  -2   3  -9   26.54    7.63
  -2   3  -9   34.18    8.58
   2  -3   9   29.94    2.88
  -3   3  -9    7.56    5.53
  -3   3  -9    7.81    5.77
  -3   3  -9    9.88    2.58
  -3   3  -9   13.57    2.83
   3  -3   9   18.03    6.13
   3  -3   9    7.40    1.74
  -4   3  -9   31.19    8.86
  -4   3  -9   17.47    3.10
  -4   3  -9   24.33    7.24
   4  -3   9   14.26    2.25
   4  -3   9   33.16    8.24
  -5   3  -9    4.99    5.41
  -5   3  -9    5.93    2.37
  -5   3  -9    8.65    7.56
   5  -3   9    5.27    1.71
   5  -3   9   15.65    7.28
  -6   3  -9   11.57    2.99
  -6   3  -9   21.75    9.71
  -6   3  -9   15.63    7.02
   6  -3   9    8.06    2.03
   6  -3   9   16.78    8.71
   6   2  -9   -3.35    2.63
  -6  -2   9   -3.34    2.41
   5   2  -9   17.47    4.03
   5   2  -9   18.88    3.31
  -5  -2   9   10.37    2.23
  -5  -2   9   11.59    3.26
   4   2  -9    1.89    3.12
   4   2  -9   -0.25    2.37
   4   2  -9    1.46    4.64
   4   2  -9   -1.58    1.60
  -4  -2   9    1.14    1.56
  -4  -2   9    0.68    2.23
   3   2  -9   17.36    5.51
   3   2  -9   27.11    6.85
   3   2  -9   28.75    4.43
   3   2  -9   27.54    3.42
  -3  -2   9   20.40    3.76
  -3  -2   9   18.24    2.37
   2   2  -9   10.43    2.43
   2   2  -9    8.01    4.51
   2   2  -9    8.73    5.06
   2   2  -9   14.23    3.22
  -2  -2   9    3.77    3.36
  -2  -2   9    7.09    1.75
  -2  -2   9    7.18    2.50
   1   2  -9   50.82    9.18
   1   2  -9   78.47    6.50
   1   2  -9   63.79    4.66
   1   2  -9   63.45    9.14
  -1  -2   9   43.61    6.02
  -1  -2   9   65.39    4.19
  -1  -2   9   63.60    7.34
   0   2  -9   11.47    5.12
   0   2  -9   13.74    3.00
   0   2  -9    7.80    5.43
   0   2  -9   12.13    2.35
   0  -2   9    9.42    1.73
   0  -2   9    9.51    3.73
  -1   2  -9   33.90    8.07
  -1   2  -9   40.28    3.66
  -1   2  -9   38.64    4.36
  -1   2  -9   33.43    7.56
   1  -2   9   22.25    4.89
   1  -2   9   29.76    3.11
  -2   2  -9    6.63    5.61
  -2   2  -9   10.18    2.54
  -2   2  -9   15.41    5.75
  -2   2  -9   14.50    2.63
   2  -2   9    2.38    3.06
   2  -2   9    6.51    1.58
  -3   2  -9   27.84    3.86
  -3   2  -9   29.15    3.70
  -3   2  -9   37.21    8.66
  -3   2  -9   20.79    7.23
   3  -2   9   26.66    2.93
  -4   2  -9   23.12    6.91
  -4   2  -9   35.76    9.10
  -4   2  -9   19.20    3.10
   4  -2   9   16.46    2.42
  -5   2  -9   24.62    3.42
  -5   2  -9   45.81   10.61
  -5   2  -9   23.29    7.00
   5  -2   9   22.32    2.86
  -6   2  -9    8.13    2.80
  -6   2  -9   25.04    9.30
  -6   2  -9   11.02    5.89
   6  -2   9    9.10    2.10
   6  -2   9   18.28    8.32
  -7   2  -9    6.91    5.58
   7  -2   9    0.15    1.82
   6   1  -9   15.12    3.25
   6   1  -9    8.60    3.17
  -6  -1   9   15.60    2.85
  -6  -1   9    7.65    3.43
   5   1  -9    0.13    2.28
   5   1  -9    0.69    2.13
  -5  -1   9   -0.71    1.57
  -5  -1   9   -3.10    2.45
   4   1  -9   21.71    3.95
   4   1  -9   23.05    3.17
  -4  -1   9   20.20    2.68
  -4  -1   9   20.29    3.89
   3   1  -9   14.98    2.76
   3   1  -9   11.64    3.04
   3   1  -9   21.42    5.93
   3   1  -9   10.13    4.08
  -3  -1   9   12.13    2.96
  -3  -1   9   14.88    4.74
  -3  -1   9    9.01    1.85
   2   1  -9   34.32    6.70
   2   1  -9   47.14    5.18
   2   1  -9   37.70    3.61
   2   1  -9   47.55    7.79
  -2  -1   9   39.96    3.25
  -2  -1   9   39.46    4.73
  -2  -1   9   39.35    6.05
   1   1  -9   13.67    4.38
   1   1  -9   15.56    2.49
   1   1  -9   16.43    3.16
   1   1  -9   16.87    4.91
   1   1  -9    9.02    4.95
  -1  -1   9   15.15    3.18
  -1  -1   9   15.70    2.03
  -1  -1   9   11.56    3.55
  -1  -1   9   15.09    4.10
   0   1  -9   57.89    5.62
   0   1  -9   55.47    8.47
   0   1  -9   51.86    8.45
   0   1  -9   54.82    4.40
   0   1  -9   67.06    7.34
   0  -1   9   52.95    3.75
   0  -1   9   54.74    6.75
  -1   1  -9   12.05    4.72
  -1   1  -9   13.04    6.01
  -1   1  -9   11.35    2.61
  -1   1  -9    8.16    2.12
  -1   1  -9    0.66    3.11
   1  -1   9    8.32    1.78
   1  -1   9   10.30    3.86
  -2   1  -9   22.61    4.59
  -2   1  -9   46.15    7.85
  -2   1  -9   32.40    3.74
  -2   1  -9   42.23    7.99
  -2   1  -9   35.05    4.15
   2  -1   9   34.11    2.96
   2  -1   9   28.89    5.23
  -3   1  -9   62.84    9.47
  -3   1  -9   40.00    3.91
  -3   1  -9   36.06    7.55
   3  -1   9   37.23    6.00
   3  -1   9   39.41    3.46
  -4   1  -9   33.07    7.27
  -4   1  -9   37.35    3.96
   4  -1   9   30.47    3.30
  -5   1  -9   19.63    3.16
  -5   1  -9   24.65    6.41
   5  -1   9   18.68    2.62
  -6   1  -9   10.03    7.84
  -6   1  -9   -7.62    4.33
  -6   1  -9    4.54    2.31
   6  -1   9    4.64    1.79
  -7   1  -9   20.91    9.56
  -7   1  -9    9.16    2.40
   7  -1   9   10.80    2.52
   6   0  -9    1.04    2.12
  -6   0   9    0.09    1.90
  -6   0   9   -5.36    2.81
   5   0  -9   10.77    3.00
   5   0  -9   11.36    2.55
  -5   0   9    5.25    3.03
  -5   0   9   10.01    2.18
   4   0  -9    8.14    2.70
   4   0  -9    5.45    2.17
  -4   0   9    4.49    4.19
  -4   0   9    7.38    1.82
  -4   0   9    5.87    2.97
   3   0  -9   35.02    4.27
   3   0  -9   36.17    7.01
   3   0  -9   31.77    3.51
   3   0  -9   25.45    4.97
  -3   0   9   34.09    4.70
  -3   0   9   34.51    3.10
  -3   0   9   25.60    5.23
   2   0  -9   45.84    4.04
   2   0  -9   51.70    5.19
   2   0  -9   48.07    7.72
   2   0  -9   45.47    6.69
  -2   0   9   53.38    5.31
  -2   0   9   41.18    5.97
  -2   0   9   41.01    3.33
   1   0  -9   43.44    3.76
   1   0  -9   53.42    5.16
   1   0  -9   53.60    7.89
   1   0  -9   46.67    6.96
  -1   0   9   53.90    6.41
  -1   0   9   36.98    6.54
  -1   0   9   48.04    5.30
  -1   0   9   39.32    6.72
  -1   0   9   47.31    3.45
   0   0  -9   34.08    6.12
   0   0  -9   26.68    3.11
   0   0  -9   26.91    6.25
   0   0  -9   31.58    3.90
   0   0   9   25.94    4.71
   0   0   9   31.37    4.02
   0   0   9   23.30    5.42
   0   0   9   31.53    2.64
  -1   0  -9   27.85    3.44
  -1   0  -9   12.78    5.42
  -1   0  -9   20.73    4.46
  -1   0  -9   33.04    6.21
  -1   0  -9   18.09    2.62
   1   0   9   11.80    3.01
   1   0   9   20.26    2.36
   1   0   9   18.24    4.24
  -2   0  -9   66.60    6.13
  -2   0  -9   69.34    6.40
  -2   0  -9   66.28    4.70
  -2   0  -9   75.24    9.59
   2   0   9   62.99    4.38
   2   0   9   53.78    6.95
  -3   0  -9   35.02    3.35
  -3   0  -9   29.63    6.71
   3   0   9   38.48    5.74
   3   0   9   28.21    2.83
  -4   0  -9   71.78    5.10
  -4   0  -9   55.59    8.67
   4   0   9   51.99    7.08
   4   0   9   66.04    4.50
  -5   0  -9    2.15    1.81
  -5   0  -9    3.73    5.77
  -5   0  -9    5.47    4.81
  -5   0  -9    4.70    5.84
   5   0   9    1.86    1.62
  -6   0  -9   12.20    5.51
   6   0   9   18.33    2.72
  -7   0  -9    2.82    7.00
  -7   0  -9    0.54    1.84
   7   0   9   -0.16    1.65
   6  -1  -9    7.21    2.51
  -6   1   9    7.15    2.11
  -6   1   9    2.40    3.21
   5  -1  -9    7.37    2.43
   5  -1  -9    7.28    2.22
  -5   1   9    9.45    2.03
  -5   1   9    8.63    5.00
  -5   1   9    2.05    2.85
   4  -1  -9   15.04    3.11
   4  -1  -9   16.63    2.76
  -4   1   9   13.50    4.93
  -4   1   9   11.45    3.12
  -4   1   9   14.33    2.18
   3  -1  -9   48.85    5.15
   3  -1  -9   51.43    4.23
  -3   1   9   47.31    3.58
  -3   1   9   53.20    6.89
  -3   1   9   49.05    5.47
   2  -1  -9   32.25    4.01
   2  -1  -9   32.63    3.16
   2  -1  -9   28.67    6.08
  -2   1   9   32.36    4.23
  -2   1   9   30.93    5.18
  -2   1   9   30.33    2.84
   1  -1  -9   52.64    5.16
   1  -1  -9   42.78    3.70
   1  -1  -9   41.42    7.03
  -1   1   9   47.04    5.08
  -1   1   9   48.78    7.19
  -1   1   9   49.41    3.38
  -1   1   9   57.36    6.60
   0  -1  -9   11.98    4.93
   0  -1  -9   14.63    2.17
   0  -1  -9   16.74    2.96
   0   1   9    7.40    4.20
   0   1   9   10.32    3.52
   0   1   9   13.43    2.78
   0   1   9   11.52    3.76
   0   1   9   11.44    1.70
  -1  -1  -9   79.91    9.32
  -1  -1  -9   73.11    4.82
   1   1   9   60.78    7.15
   1   1   9   74.11    4.51
   1   1   9   69.23    8.33
   1   1   9   70.33    6.62
  -2  -1  -9   13.34    4.92
  -2  -1  -9   12.99    2.09
  -2  -1  -9   17.71    5.25
   2   1   9    6.87    3.30
   2   1   9    2.80    2.04
   2   1   9    8.37    1.71
   2   1   9    6.69    4.02
  -3  -1  -9   84.25    5.46
  -3  -1  -9   70.53    9.12
   3   1   9   78.41    7.57
   3   1   9   89.11    5.38
  -4  -1  -9    2.80    3.99
  -4  -1  -9    0.53    1.57
  -4  -1  -9    4.40    5.40
  -4  -1  -9   11.67    6.26
   4   1   9   -2.49    2.95
   4   1   9    0.53    1.44
  -5  -1  -9   27.95    6.05
  -5  -1  -9   19.04    2.83
   5   1   9   23.89    5.12
   5   1   9   18.13    2.57
  -6  -1  -9   -1.66    3.71
  -6  -1  -9   -2.21    5.66
   6   1   9   -0.17    1.43
  -7  -1  -9   49.86   11.65
  -7  -1  -9   24.45    3.25
   7   1   9   18.94    3.07
   6  -2  -9    4.81    2.23
  -6   2   9    2.50    1.98
  -6   2   9   -1.38    5.61
  -6   2   9   -1.07    2.72
   5  -2  -9    1.53    1.85
  -5   2   9    5.03    4.44
  -5   2   9    1.58    2.59
  -5   2   9    4.27    1.90
   4  -2  -9   33.42    3.54
  -4   2   9   32.58    3.17
  -4   2   9   28.74    5.84
  -4   2   9   31.24    4.84
   3  -2  -9   10.13    2.59
   3  -2  -9   16.55    2.47
  -3   2   9   14.26    4.32
  -3   2   9    8.48    2.79
  -3   2   9   16.65    2.20
   2  -2  -9   49.56    7.53
   2  -2  -9   52.24    3.91
  -2   2   9   52.61    5.50
  -2   2   9   55.78    6.47
  -2   2   9   50.72    3.55
   1  -2  -9    5.10    1.60
   1  -2  -9    8.43    2.48
   1  -2  -9    3.02    3.67
  -1   2   9   -0.37    3.51
  -1   2   9    5.26    1.42
  -1   2   9    2.27    1.98
  -1   2   9    3.84    3.15
   0  -2  -9   56.03    3.99
   0  -2  -9   45.56    7.01
   0   2   9   53.92    3.73
   0   2   9   45.61    6.85
   0   2   9   65.78    5.79
   0   2   9   48.74    6.10
  -1  -2  -9    0.67    1.37
  -1  -2  -9    0.39    3.38
  -1  -2  -9    1.73    3.06
   1   2   9    2.39    1.18
   1   2   9   -1.69    2.98
   1   2   9    1.70    1.79
   1   2   9    3.65    2.90
  -2  -2  -9  112.94    9.47
  -2  -2  -9  106.52    6.08
   2   2   9  104.42    5.97
   2   2   9   83.26    8.85
   2   2   9   98.74    8.29
   2   2   9   94.39    8.53
  -3  -2  -9   -0.28    1.26
  -3  -2  -9   -3.23    3.28
  -3  -2  -9    2.67    4.19
  -3  -2  -9    1.59    5.88
   3   2   9    0.12    2.65
   3   2   9   -0.48    1.10
   3   2   9   -3.95    3.78
  -4  -2  -9   38.45    6.72
  -4  -2  -9   46.43    3.63
   4   2   9   40.95    3.55
   4   2   9   40.75    6.10
  -5  -2  -9   -0.54    4.91
  -5  -2  -9    1.74    4.74
   5   2   9    2.32    3.12
   5   2   9    0.21    1.37
  -6  -2  -9   26.69    3.08
  -6  -2  -9   40.72    9.00
   6   2   9   24.06    3.11
   6   2   9   32.95    6.19
  -7  -2  -9    1.47    6.39
  -7  -2  -9   -0.06    1.61
   7   2   9    1.13    1.73
   6  -3  -9  -11.57   13.85
  -6   3   9   -8.76    4.38
  -6   3   9    1.88    1.91
  -6   3   9    1.97    3.27
   5  -3  -9   15.96    2.68
  -5   3   9   22.50    6.32
  -5   3   9   23.60    2.83
  -5   3   9   17.92    4.01
   4  -3  -9    4.35    6.81
   4  -3  -9    4.05    1.79
  -4   3   9    1.05    2.50
  -4   3   9    4.03    4.30
  -4   3   9    5.42    1.70
   3  -3  -9   49.03    3.79
  -3   3   9   40.27    5.98
  -3   3   9   45.16    5.36
  -3   3   9   47.01    3.50
   2  -3  -9   20.90    8.57
   2  -3  -9   10.79    1.94
  -2   3   9    5.59    2.40
  -2   3   9    7.73    1.61
  -2   3   9    6.05    3.32
   1  -3  -9   52.90    7.15
   1  -3  -9   56.37    3.86
  -1   3   9   48.81    5.24
  -1   3   9   44.63    6.80
  -1   3   9   56.47    6.18
  -1   3   9   49.08    3.48
   0  -3  -9    1.09    3.18
   0  -3  -9    0.45    1.26
   0  -3  -9    2.63    6.01
   0   3   9    1.31    2.72
   0   3   9   -2.00    1.77
   0   3   9    0.00    3.17
   0   3   9    0.51    1.10
   0   3   9    0.95    1.65
  -1  -3  -9  130.40    7.31
   1   3   9  105.23    9.92
   1   3   9  124.00    9.28
   1   3   9  156.59   10.83
   1   3   9  119.34   14.55
   1   3   9  133.45    7.24
  -2  -3  -9    4.90    5.68
  -2  -3  -9    4.67    3.97
  -2  -3  -9   -1.15    3.14
  -2  -3  -9    2.31    1.33
   2   3   9    0.81    1.12
   2   3   9   -0.48    2.56
   2   3   9    2.47    1.76
   2   3   9    6.81    3.78
  -3  -3  -9   64.99    8.61
  -3  -3  -9   42.34    6.25
  -3  -3  -9   54.53    3.49
   3   3   9   44.27    3.34
   3   3   9   43.76    5.96
   3   3   9   31.04    4.46
  -4  -3  -9    1.70    3.99
  -4  -3  -9    2.41    4.96
  -4  -3  -9    1.42    4.92
   4   3   9    1.58    3.10
   4   3   9    2.33    1.40
  -5  -3  -9   51.36    9.31
  -5  -3  -9   28.82    2.84
   5   3   9   29.40    3.07
   5   3   9   27.21    5.33
  -6  -3  -9    7.40    1.95
  -6  -3  -9    8.10    5.41
   6   3   9    3.22    3.77
   6   3   9    4.87    1.85
  -7  -3  -9   22.86    2.98
   7   3   9   15.12    2.63
   6  -4  -9    3.56   15.29
  -6   4   9   -3.36    5.32
  -6   4   9    6.51    2.02
   5  -4  -9  -16.79   12.17
  -5   4   9   -2.71    2.45
  -5   4   9   -1.19    1.45
  -5   4   9    0.28    4.69
   4  -4  -9   40.57    3.48
   4  -4  -9   46.14   17.65
  -4   4   9   38.44    5.33
  -4   4   9   39.90    6.38
  -4   4   9   38.00    3.36
   3  -4  -9   -0.41   11.44
   3  -4  -9    0.36    1.35
   3  -4  -9   -3.93    4.80
  -3   4   9   -1.36    2.15
  -3   4   9    0.01    1.25
  -3   4   9    0.79    3.13
   2  -4  -9   30.70    2.89
   2  -4  -9   42.08   14.50
  -2   4   9   35.07    5.27
  -2   4   9   32.07    2.65
  -2   4   9   40.55    4.65
   1  -4  -9    4.35    1.32
   1  -4  -9    5.39    9.20
   1  -4  -9   12.60    7.15
  -1   4   9    3.08    3.01
  -1   4   9    4.10    2.08
  -1   4   9    3.94    1.23
   0  -4  -9   78.35    4.37
   0  -4  -9   60.25    3.84
   0  -4  -9  125.43   15.45
   0  -4  -9   63.72    7.34
   0   4   9   64.03    8.01
   0   4   9   78.62    6.52
   0   4   9   73.85    4.31
   0   4   9   67.65    8.31
   0   4   9   69.47    6.57
  -1  -4  -9    6.65    1.43
  -1  -4  -9    6.54    3.38
  -1  -4  -9   12.17    6.79
  -1  -4  -9    7.38    6.47
  -1  -4  -9    6.44    1.14
   1   4   9    9.14    2.24
   1   4   9    3.73    2.66
   1   4   9    7.85    1.57
   1   4   9    6.21    3.85
  -2  -4  -9   75.57   11.61
  -2  -4  -9   68.40    6.83
  -2  -4  -9   66.34    4.23
   2   4   9   69.61    6.46
   2   4   9   76.71    6.35
   2   4   9   57.88    7.52
   2   4   9   58.80    4.17
  -3  -4  -9   15.84    7.13
   3   4   9    8.92    1.67
   3   4   9    6.38    2.09
   3   4   9   12.67    3.76
  -4  -4  -9   35.37    2.84
  -4  -4  -9   48.11   10.72
   4   4   9   31.88    3.13
   4   4   9   24.70    5.01
  -5  -4  -9   20.24    2.41
  -5  -4  -9   22.98    7.82
   5   4   9   19.13    2.62
   5   4   9   19.13    4.77
  -6  -4  -9   27.25    8.60
  -6  -4  -9   20.63    2.59
   6   4   9   18.79    5.41
   6   4   9   19.69    2.83
  -7  -4  -9   10.31    2.12
   7   4   9    6.92    2.11
   7   4   9    7.83    5.30
   5  -5  -9    6.32   15.34
  -5   5   9   21.20    2.68
  -5   5   9   17.52    5.86
  -5   5   9   14.25    3.96
   4  -5  -9   -8.73   11.30
   4  -5  -9    2.20    4.88
  -4   5   9   -0.39    2.25
  -4   5   9    1.71    3.79
  -4   5   9    0.67    1.42
   3  -5  -9   12.39   13.18
   3  -5  -9   24.60    8.45
  -3   5   9   18.39    2.26
  -3   5   9   10.09    3.74
  -3   5   9   20.71    3.85
   2  -5  -9    1.50   10.11
   2  -5  -9    4.01    5.48
  -2   5   9    3.20    2.35
  -2   5   9    0.38    2.71
  -2   5   9    0.83    1.09
   1  -5  -9   37.72    2.45
   1  -5  -9   42.05   13.32
  -1   5   9   34.93    4.89
  -1   5   9   38.99    2.95
  -1   5   9   45.54    4.79
   0  -5  -9   12.07    1.31
   0  -5  -9   19.65    7.84
   0  -5  -9   14.73    9.61
   0   5   9   13.90    1.75
   0   5   9   12.98    2.83
   0   5   9    9.41    4.05
   0   5   9   12.30    3.39
  -1  -5  -9   59.11   12.54
   1   5   9   54.64    3.43
   1   5   9   52.55    5.28
   1   5   9   38.39    6.29
   1   5   9   46.47    5.56
  -2  -5  -9   24.58    8.32
  -2  -5  -9    9.47    6.64
  -2  -5  -9   12.29    1.41
   2   5   9   13.96    1.92
   2   5   9   16.10    2.77
   2   5   9   15.42    3.64
  -3  -5  -9   22.60    1.98
  -3  -5  -9   25.86    8.63
   3   5   9   20.51    2.43
   3   5   9   23.33    3.33
   3   5   9   21.47    4.17
  -4  -5  -9   26.50    2.41
  -4  -5  -9   30.22    9.23
   4   5   9   36.51    5.48
   4   5   9   30.28    2.81
  -5  -5  -9   12.93    1.85
  -5  -5  -9   10.13    6.33
   5   5   9   12.36    4.42
   5   5   9    9.33    2.06
  -6  -5  -9   13.35    7.85
  -6  -5  -9   15.83    2.15
   6   5   9    3.80    3.76
   6   5   9   10.50    2.35
  -7  -5  -9    5.50    1.72
   7   5   9    2.94    1.96
   7   5   9    5.45    4.68
   5  -6  -9   -3.32   14.03
   4  -6  -9   -0.29   13.71
  -4   6   9   10.25    1.99
  -4   6   9   10.73    3.40
  -4   6   9   12.55    4.53
   3  -6  -9    8.97    6.01
   3  -6  -9    3.00   12.50
  -3   6   9    0.53    2.39
  -3   6   9    2.43    3.13
  -3   6   9    1.03    1.30
   2  -6  -9   15.97    7.35
   2  -6  -9   22.49   13.42
  -2   6   9   19.27    2.10
  -2   6   9   23.73    4.00
  -2   6   9   16.63    3.93
   1  -6  -9   37.54   10.37
   1  -6  -9   17.50   11.60
  -1   6   9   23.30    4.06
  -1   6   9   23.18    3.78
  -1   6   9   23.02    2.27
   0  -6  -9   40.98   10.50
   0  -6  -9   27.90   11.62
   0   6   9   31.84    3.98
   0   6   9   25.50    4.13
   0   6   9   29.55    2.41
  -1  -6  -9   17.66    9.12
  -1  -6  -9   24.73    8.76
   1   6   9   19.92    2.09
   1   6   9   16.44    2.97
   1   6   9   17.45    3.55
  -2  -6  -9   17.01    7.61
  -2  -6  -9    9.38    7.54
   2   6   9   10.70    1.70
   2   6   9   13.00    3.46
   2   6   9   14.69    2.67
  -3  -6  -9   35.91   10.46
  -3  -6  -9   29.36    1.94
   3   6   9   28.98    3.58
   3   6   9   27.47    2.67
   3   6   9   24.62    4.56
  -4  -6  -9    9.26    1.23
  -4  -6  -9    7.62    6.36
   4   6   9    9.49    3.40
   4   6   9    7.55    1.80
  -5  -6  -9   25.51    2.09
  -5  -6  -9   16.07    8.72
   5   6   9   10.54    4.25
   5   6   9   16.50    2.60
  -6  -6  -9    5.69    1.41
  -6  -6  -9    8.31    7.06
   6   6   9    4.57    4.01
   6   6   9    5.23    1.93
  -7  -6  -9   11.71    2.07
  -7  -6  -9    9.37    7.73
   7   6   9   11.59    2.54
   7   6   9    9.52    4.83
   4  -7  -9   -7.13   14.85
   3  -7  -9   13.34    6.73
   3  -7  -9   -5.56   11.45
  -3   7   9    9.50    3.06
  -3   7   9    9.92    3.67
   2  -7  -9   17.99    8.08
   2  -7  -9   22.71   14.50
  -2   7   9   18.43    3.64
  -2   7   9   13.63    3.58
   1  -7  -9   15.11    7.53
   1  -7  -9    6.75   11.10
  -1   7   9    9.51    2.74
  -1   7   9   11.16    3.15
   0  -7  -9    9.19   10.37
   0  -7  -9   22.46    8.46
   0   7   9   13.78    1.67
   0   7   9   13.43    2.81
   0   7   9    8.94    2.95
  -1  -7  -9    8.30    9.32
  -1  -7  -9    8.81    6.95
   1   7   9    5.69    2.67
   1   7   9    9.49    2.53
   1   7   9   10.05    1.53
  -2  -7  -9   30.46    9.78
  -2  -7  -9   24.96   10.11
   2   7   9   15.11    2.77
   2   7   9   17.06    3.59
   2   7   9   21.94    2.20
  -3  -7  -9   27.33   13.15
  -3  -7  -9    8.98    7.03
   3   7   9    4.65    1.44
   3   7   9    4.34    2.79
  -4  -7  -9   32.27   10.98
   4   7   9   35.28    3.09
   4   7   9   25.25    4.72
  -5  -7  -9    5.82    6.46
   5   7   9    0.75    1.52
   5   7   9    4.72    3.42
  -6  -7  -9   18.20    9.93
   6   7   9   15.49    2.56
   6   7   9   14.37    4.57
  -7  -7  -9    6.00    7.74
   3  -8  -9   27.73   17.83
   3  -8  -9   15.92    7.70
  -3   8   9   10.20    3.51
   2  -8  -9    3.40    6.06
   2  -8  -9   11.77   13.92
  -2   8   9    2.23    2.83
  -2   8   9    1.93    2.50
   1  -8  -9    6.77   13.53
   1  -8  -9   20.37    9.07
  -1   8   9   10.55    2.98
  -1   8   9   14.20    3.19
   0  -8  -9   -4.93    9.68
   0  -8  -9    4.27    6.21
   0   8   9    4.50    2.48
   0   8   9    1.53    2.09
  -1  -8  -9   24.08    9.41
  -1  -8  -9   24.03   11.90
   1   8   9   20.71    3.33
   1   8   9   19.09    3.46
  -2  -8  -9   -0.94    5.53
  -2  -8  -9    1.37   10.06
  -2  -8  -9   -1.58    7.63
   2   8   9   -0.54    2.27
  -3  -8  -9   29.73   11.19
   3   8   9   23.22    4.24
  -4  -8  -9   -0.27    5.92
  -4  -8  -9    5.89   10.58
   4   8   9    1.13    2.88
  -5  -8  -9   46.92   17.25
  -5  -8  -9    7.27    7.69
   5   8   9   19.35    4.70
   5   8   9   13.59    2.34
   6   8   9    2.13    1.64
   2  -9  -9    9.76   17.24
   2  -9  -9   12.90    7.54
  -2   9   9   11.47    3.34
   1  -9  -9   -8.91   11.52
   1  -9  -9    1.43    5.79
  -1   9   9    1.90    2.53
  -1   9   9   -1.97    2.04
   0  -9  -9    9.34   12.24
   0  -9  -9   12.69    8.14
   0   9   9    9.10    2.79
   0   9   9    6.95    2.46
  -1  -9  -9   -1.28   10.68
  -1  -9  -9   11.59   12.93
  -1  -9  -9    2.21    6.07
   1   9   9   -0.76    2.02
  -2  -9  -9   16.04    9.07
  -2  -9  -9   19.70   10.96
  -2  -9  -9   54.48   18.41
   2   9   9   12.92    3.08
  -3  -9  -9    6.94    7.09
  -3  -9  -9    3.70   12.79
   3   9   9   -0.33    2.40
  -4  -9  -9   55.78   18.81
  -5  -9  -9   -7.99   12.09
   0 -10  -9    2.84   13.39
   0 -10  -9   12.69   14.73
  -1 -10  -9   48.50   19.46
  -1 -10  -9    7.76   13.53
  -2 -10  -9    6.95   11.02
  -2 -10  -9   11.33   15.02
  -3 -10  -9   31.58   17.49
   2   6 -10    1.39    5.20
   2   6 -10    5.14    2.61
   2   6 -10    6.69    6.67
  -2  -6  10    6.18   14.82
   1   6 -10    6.05    6.71
   1   6 -10    7.39    6.73
   1   6 -10    7.95    2.56
  -1  -6  10    0.90   14.51
   0   6 -10   -0.90    2.43
   0   6 -10    4.79    2.57
   0   6 -10   -2.94    6.18
   0   6 -10   -3.90    4.94
   0  -6  10   -4.60   12.52
  -1   6 -10    9.21    7.19
  -1   6 -10    9.46    3.60
  -1   6 -10   14.49    3.32
  -1   6 -10    9.53    7.02
   1  -6  10    3.78   12.92
  -2   6 -10   -9.11    6.30
  -2   6 -10   -1.74    2.45
  -2   6 -10   -3.27    2.42
   2  -6  10    0.03    9.83
  -3   6 -10   14.52    3.35
   3  -6  10    6.64   11.22
   4   5 -10    4.78    6.46
  -4  -5  10    7.91   17.18
  -4  -5  10    5.94    1.99
   3   5 -10    2.90    4.87
   3   5 -10   -2.03    5.50
   3   5 -10    2.30    2.37
  -3  -5  10    0.36    1.61
  -3  -5  10    3.81   14.51
   2   5 -10    1.49    5.85
   2   5 -10   12.98    4.09
   2   5 -10   11.81    6.58
   2   5 -10   11.90    2.91
  -2  -5  10   14.89    2.24
  -2  -5  10    7.91   14.15
   1   5 -10    6.28    5.96
   1   5 -10   -1.82    2.37
   1   5 -10   -2.35    4.17
   1   5 -10   -0.92    1.93
  -1  -5  10   -1.31    1.22
   0   5 -10   16.81    7.32
   0   5 -10   15.62    3.81
   0   5 -10   18.36    3.39
   0   5 -10    5.21    6.29
   0  -5  10   10.88    1.95
  -1   5 -10   -1.10    4.75
  -1   5 -10   -7.28    6.07
  -1   5 -10    2.73    2.36
  -1   5 -10   -2.09    2.17
   1  -5  10   -4.64    9.42
  -2   5 -10   28.52    4.67
  -2   5 -10   27.77    9.18
  -2   5 -10   28.37    4.22
  -2   5 -10   19.87    8.57
   2  -5  10   11.60   12.64
  -3   5 -10   -0.95    2.16
  -3   5 -10    5.03    2.66
  -3   5 -10   -1.23    6.61
  -3   5 -10   -0.42    5.66
   3  -5  10   -1.66    9.12
  -4   5 -10    3.04    2.82
  -4   5 -10    6.57    6.94
   4  -5  10    1.01    8.32
   4   4 -10   -0.64    2.89
   4   4 -10    1.41    2.46
  -4  -4  10   -1.54    1.58
   3   4 -10   26.35    7.51
   3   4 -10   14.46    2.95
   3   4 -10   17.67    4.27
   3   4 -10   10.35    5.68
  -3  -4  10   13.91    2.22
   2   4 -10    1.75    2.00
   2   4 -10    0.93    2.60
   2   4 -10   -1.13    4.00
   2   4 -10   -3.27    4.97
  -2  -4  10    1.07    1.54
   1   4 -10   11.62    6.35
   1   4 -10   13.98    3.05
   1   4 -10   14.80    3.71
   1   4 -10   14.91    6.41
  -1  -4  10    9.78    1.91
   0   4 -10    1.08    5.77
   0   4 -10    3.61    2.25
   0   4 -10    2.46    2.54
   0   4 -10   -1.27    4.27
   0  -4  10    1.23    1.41
  -1   4 -10   35.61    5.20
  -1   4 -10   41.79    4.68
  -1   4 -10   36.18    9.51
  -1   4 -10   35.59    9.24
  -2   4 -10    1.62    2.38
  -2   4 -10    2.36    5.05
  -2   4 -10    1.41    2.20
  -2   4 -10    1.58    6.80
   2  -4  10    0.95    1.37
  -3   4 -10   28.04    8.52
  -3   4 -10   21.99    3.70
  -3   4 -10   20.76    3.80
  -3   4 -10   27.99    8.93
   3  -4  10   18.05    2.46
   3  -4  10   23.89    6.96
  -4   4 -10   11.09    6.95
  -4   4 -10    4.31    7.19
  -4   4 -10    3.36    2.62
   4  -4  10    2.98    1.59
   4  -4  10   -0.92    8.30
   4  -4  10    8.02    6.13
  -5   4 -10   11.56    3.05
  -5   4 -10   11.81    6.91
   5  -4  10   15.11    7.97
   5   3 -10    0.27    3.19
  -5  -3  10    1.26    2.20
   4   3 -10   18.89    4.39
   4   3 -10   15.37    3.29
  -4  -3  10   22.21    2.88
  -4  -3  10   11.57    3.20
   3   3 -10   -7.33    4.43
   3   3 -10   -0.08    2.47
   3   3 -10   -0.59    3.55
   3   3 -10   -0.67    1.85
  -3  -3  10   -0.07    1.97
  -3  -3  10    0.12    1.41
   2   3 -10   10.28    5.35
   2   3 -10   21.87    7.18
   2   3 -10   14.02    2.74
   2   3 -10   13.07    3.60
  -2  -3  10   12.35    2.19
   1   3 -10    3.19    2.16
   1   3 -10    3.09    4.12
   1   3 -10    3.31    2.52
   1   3 -10    4.25    5.97
  -1  -3  10    3.85    1.68
   0   3 -10   39.53    4.23
   0   3 -10   33.71    8.45
   0   3 -10   45.79    9.20
   0   3 -10   34.73    4.71
   0  -3  10   23.79    2.86
  -1   3 -10    9.12    2.95
  -1   3 -10    1.57    5.92
  -1   3 -10    8.44    5.22
  -1   3 -10   11.15    2.72
   1  -3  10   14.10    4.22
   1  -3  10    9.82    2.04
  -2   3 -10   31.01    8.74
  -2   3 -10   29.91    4.03
  -2   3 -10   29.15    4.14
  -2   3 -10   32.63    8.29
   2  -3  10   20.90    2.74
  -3   3 -10    7.96    2.67
  -3   3 -10    9.33    6.19
  -3   3 -10    9.60    2.74
  -3   3 -10    6.93    5.96
   3  -3  10   11.23    5.87
   3  -3  10    3.86    1.70
  -4   3 -10   12.30    7.10
  -4   3 -10   10.24    2.95
  -4   3 -10   13.35    6.68
   4  -3  10    9.12    6.40
   4  -3  10    5.22    1.89
  -5   3 -10   14.94    3.35
  -5   3 -10    8.20    6.55
  -5   3 -10   27.12    9.58
   5  -3  10   17.33    8.11
   5  -3  10   11.25    2.14
  -6   3 -10   -9.80    5.90
   6  -3  10    3.45    2.11
   6  -3  10    4.34    7.84
   5   2 -10    9.79    3.57
   5   2 -10    8.63    2.94
  -5  -2  10    8.11    3.00
  -5  -2  10   11.61    2.41
   4   2 -10   -0.19    2.43
   4   2 -10   -0.73    1.88
  -4  -2  10    0.54    1.71
  -4  -2  10    1.09    2.33
   3   2 -10   14.67    3.69
   3   2 -10   14.83    5.38
   3   2 -10   15.15    6.28
   3   2 -10   18.91    3.06
  -3  -2  10   16.19    2.45
  -3  -2  10   14.69    3.35
   2   2 -10    6.79    2.23
   2   2 -10    5.13    4.25
   2   2 -10    5.42    5.55
   2   2 -10    8.50    3.12
  -2  -2  10    6.21    1.66
  -2  -2  10    6.27    2.75
   1   2 -10    8.43    5.52
   1   2 -10   20.35    3.02
   1   2 -10   16.31    5.80
   1   2 -10   23.71    3.93
  -1  -2  10   20.37    2.38
  -1  -2  10   10.28    3.15
   0   2 -10   21.35    6.87
   0   2 -10   22.81    3.26
   0   2 -10   23.42    6.86
   0   2 -10   26.80    4.25
   0  -2  10   22.86    2.67
  -1   2 -10   32.66    4.30
  -1   2 -10   21.39    7.10
  -1   2 -10   35.86    8.16
  -1   2 -10   37.23    4.10
   1  -2  10   22.66    2.78
  -2   2 -10   14.92    5.84
  -2   2 -10    9.82    2.65
  -2   2 -10   12.48    2.88
  -2   2 -10   11.27    6.59
   2  -2  10    8.06    2.01
  -3   2 -10    5.89    5.67
  -3   2 -10   10.51    2.67
  -3   2 -10   13.56    6.35
  -3   2 -10    9.42    2.74
   3  -2  10    7.49    2.00
  -4   2 -10   49.82   11.12
  -4   2 -10   31.45    4.10
  -4   2 -10   27.15    7.77
   4  -2  10   20.13    2.79
  -5   2 -10    1.11    5.40
  -5   2 -10    9.32    7.25
  -5   2 -10    7.33    2.56
   5  -2  10    6.97    2.06
  -6   2 -10   13.37    3.31
  -6   2 -10    8.46    7.12
  -6   2 -10   30.04   10.51
   6  -2  10   14.76    8.54
   6   1 -10    2.15    2.85
  -6  -1  10   -2.74    3.02
   5   1 -10   -0.55    2.53
   5   1 -10    1.14    2.30
  -5  -1  10   -3.41    2.70
  -5  -1  10    0.50    1.72
   4   1 -10   18.32    3.10
   4   1 -10   19.62    4.07
  -4  -1  10   22.90    2.99
  -4  -1  10   16.97    3.96
   3   1 -10    6.18    2.17
   3   1 -10    6.20    2.71
  -3  -1  10    5.96    2.55
  -3  -1  10    4.70    1.68
   2   1 -10   18.38    3.58
   2   1 -10   33.11    7.16
   2   1 -10   19.58    3.03
   2   1 -10   16.83    5.00
  -2  -1  10   15.64    2.16
  -2  -1  10   14.53    3.26
  -2  -1  10   22.34    4.90
   1   1 -10   39.06    7.31
   1   1 -10   43.45    7.89
   1   1 -10   41.54    4.87
   1   1 -10   41.12    4.05
  -1  -1  10   39.07    3.14
  -1  -1  10   31.24    4.67
  -1  -1  10   41.51    6.28
   0   1 -10   29.76    4.16
   0   1 -10   28.82    3.47
   0   1 -10   32.69    7.34
   0   1 -10   25.26    6.94
   0  -1  10   20.31    5.00
   0  -1  10   29.31    2.76
  -1   1 -10   22.65    3.83
  -1   1 -10   21.63    3.10
  -1   1 -10   21.43    6.03
  -1   1 -10   18.64    6.50
   1  -1  10   22.24    4.95
   1  -1  10   17.84    2.42
  -2   1 -10   14.01    2.72
  -2   1 -10    7.28    5.78
  -2   1 -10   14.12    2.95
  -2   1 -10   23.06    7.00
   2  -1  10   11.29    2.07
   2  -1  10    3.66    3.67
  -3   1 -10   37.29    8.17
  -3   1 -10   36.90    4.14
  -3   1 -10   56.80    9.58
   3  -1  10   33.35    3.61
  -4   1 -10    3.59    2.14
  -4   1 -10    1.34    5.09
  -4   1 -10   11.91    6.75
   4  -1  10    5.47    1.98
  -5   1 -10   39.73    8.40
  -5   1 -10   42.18    4.59
   5  -1  10   27.17    3.50
  -6   1 -10   -2.67    5.16
  -6   1 -10    6.37    8.07
  -6   1 -10    4.08    2.31
   6  -1  10    1.76    1.84
   7  -1  10    6.85    2.08
  -6   0  10   -1.46    3.20
   5   0 -10   13.04    2.79
   5   0 -10    7.55    2.89
  -5   0  10    8.17    3.48
  -5   0  10   11.60    2.36
   4   0 -10    8.47    2.52
   4   0 -10    6.00    2.72
  -4   0  10   12.50    4.56
  -4   0  10    9.71    2.07
  -4   0  10    3.71    2.88
   3   0 -10    8.47    2.76
   3   0 -10    7.19    2.25
  -3   0  10    7.18    2.81
  -3   0  10    9.64    2.00
  -3   0  10    9.21    4.15
   2   0 -10   35.71    6.14
   2   0 -10   30.72    7.07
   2   0 -10   48.42    5.25
   2   0 -10   35.71    3.75
  -2   0  10   31.08    5.76
  -2   0  10   45.60    3.50
  -2   0  10   40.91    5.00
   1   0 -10   13.64    3.02
   1   0 -10    8.65    5.06
   1   0 -10   10.40    3.84
   1   0 -10   11.38    2.38
  -1   0  10   12.26    2.94
  -1   0  10   13.52    4.03
  -1   0  10   13.06    2.08
   0   0 -10   48.02    7.45
   0   0 -10   41.98    4.84
   0   0 -10   44.52    7.84
   0   0 -10   39.72    3.73
   0   0  10   36.96    4.80
   0   0  10   39.57    3.33
   0   0  10   39.87    5.93
  -1   0 -10   11.03    4.46
  -1   0 -10    6.57    2.33
  -1   0 -10    6.16    5.12
  -1   0 -10    5.62    1.99
   1   0  10    7.26    3.86
   1   0  10    8.04    1.87
   1   0  10    4.28    2.32
  -2   0 -10   42.07    8.20
  -2   0 -10   53.08    4.26
   2   0  10   32.99    6.03
   2   0  10   51.29    3.92
  -3   0 -10    3.09    4.73
  -3   0 -10    3.27    1.86
  -3   0 -10    1.47    4.91
   3   0  10    0.68    3.22
   3   0  10   -0.14    1.50
  -4   0 -10   43.98    4.08
  -4   0 -10   41.20    7.97
   4   0  10   40.23    3.61
  -5   0 -10    2.23    5.75
  -5   0 -10   -0.79    1.74
  -5   0 -10   -3.56    4.29
  -5   0 -10    4.91    6.38
   5   0  10    1.27    1.76
  -6   0 -10   39.45   11.28
   6   0  10   19.76    3.08
   7   0  10    1.31    1.78
   6  -1 -10    5.70    2.59
  -6   1  10   -3.75    3.15
   5  -1 -10    6.43    2.42
   5  -1 -10    7.09    2.44
  -5   1  10    1.35    3.21
  -5   1  10    5.81    1.96
  -5   1  10    1.76    4.53
   4  -1 -10    4.69    2.32
   4  -1 -10    2.36    2.07
  -4   1  10    2.07    2.71
  -4   1  10   -0.84    4.27
  -4   1  10    3.42    1.79
   3  -1 -10   29.13    3.52
   3  -1 -10   31.52    4.50
  -3   1  10   30.13    3.17
  -3   1  10   34.99    5.08
  -3   1  10   36.25    6.48
   2  -1 -10    3.05    2.08
   2  -1 -10    5.53    2.11
   2  -1 -10    4.24    2.45
  -2   1  10    2.90    1.53
  -2   1  10    1.68    3.27
  -2   1  10    2.64    2.36
   1  -1 -10   44.28    5.09
   1  -1 -10   41.22    3.79
   1  -1 -10   41.92    7.47
  -1   1  10   51.73    6.50
  -1   1  10   47.99    3.55
  -1   1  10   47.65    5.24
   0  -1 -10   12.77    4.19
   0  -1 -10    9.34    5.12
   0  -1 -10    5.14    2.30
   0  -1 -10    5.53    1.92
   0   1  10    4.60    3.28
   0   1  10    6.38    2.42
   0   1  10    6.78    1.57
   0   1  10    5.17    3.92
  -1  -1 -10   32.97    3.36
  -1  -1 -10   37.67    7.52
   1   1  10   38.58    3.21
   1   1  10   41.67    6.92
   1   1  10   37.13    5.75
   1   1  10   33.43    4.46
  -2  -1 -10    2.20    1.70
  -2  -1 -10   -2.66    3.72
  -2  -1 -10    1.49    3.98
   2   1  10    0.15    1.26
   2   1  10   -0.82    1.78
   2   1  10   -2.16    2.85
  -3  -1 -10   58.28    4.62
  -3  -1 -10   65.14    9.25
   3   1  10   56.61    4.18
   3   1  10   46.42    6.91
  -4  -1 -10   -0.62    1.60
  -4  -1 -10   -1.91    5.14
  -4  -1 -10   -2.73    4.01
  -4  -1 -10    0.83    5.84
   4   1  10    2.27    3.34
   4   1  10    0.18    1.56
  -5  -1 -10   32.26    3.81
   5   1  10   23.52    3.07
  -6  -1 -10    1.47    6.07
   6   1  10    1.00    1.70
  -7  -1 -10   25.44   10.16
  -7  -1 -10    9.05    2.54
   7   1  10   10.53    2.55
   6  -2 -10    5.78    2.63
   5  -2 -10    3.60    2.18
  -5   2  10   -2.49    4.09
  -5   2  10   -2.61    2.68
  -5   2  10    0.78    1.71
   4  -2 -10   17.58    2.94
  -4   2  10   11.38    3.62
  -4   2  10   17.60    2.46
  -4   2  10   18.59    5.48
   3  -2 -10    0.49    1.67
  -3   2  10    0.23    3.49
  -3   2  10    2.12    1.45
  -3   2  10   -0.11    2.24
   2  -2 -10   27.74    3.15
  -2   2  10   25.16    2.58
  -2   2  10   30.34    5.37
  -2   2  10   24.59    3.98
   1  -2 -10    5.46    4.60
   1  -2 -10   10.58    2.25
  -1   2  10    9.63    1.70
  -1   2  10    8.73    2.66
  -1   2  10    6.14    3.47
   0  -2 -10   51.90    7.85
   0  -2 -10   54.62    4.11
   0   2  10   51.37    5.37
   0   2  10   44.02    3.44
   0   2  10   48.98    6.39
  -1  -2 -10    7.08    4.48
  -1  -2 -10    4.71    3.83
  -1  -2 -10    2.07    1.65
   1   2  10    3.63    3.91
   1   2  10    0.71    1.90
   1   2  10   -0.06    2.95
   1   2  10    1.81    1.29
  -2  -2 -10   83.76    9.63
  -2  -2 -10   96.47    5.61
   2   2  10   72.32    7.30
   2   2  10   75.36    7.67
   2   2  10   77.32    5.16
  -3  -2 -10   11.35    4.76
  -3  -2 -10   11.20    2.20
  -3  -2 -10   27.08    7.20
   3   2  10   10.91    2.09
   3   2  10    7.19    3.73
  -4  -2 -10   38.78    3.72
   4   2  10   34.89    6.12
   4   2  10   33.59    3.47
  -5  -2 -10    7.43    6.19
  -5  -2 -10   10.15    7.23
   5   2  10    0.49    1.52
   5   2  10    5.83    3.76
  -6  -2 -10   14.75    2.58
  -6  -2 -10   25.65    8.27
   6   2  10   10.52    2.41
  -7  -2 -10   17.63    8.60
  -7  -2 -10    4.32    1.92
   7   2  10    5.64    2.23
   6  -3 -10    0.69   16.17
  -6   3  10  -12.28    4.18
   5  -3 -10   11.34    2.54
  -5   3  10   15.04    6.21
  -5   3  10    9.44    3.56
  -5   3  10    8.90    2.19
   4  -3 -10    0.50    1.74
   4  -3 -10   -2.54    6.65
  -4   3  10    1.37    4.30
  -4   3  10   -3.80    2.48
  -4   3  10   -0.17    1.51
   3  -3 -10   40.98    3.68
  -3   3  10   36.22    6.03
  -3   3  10   39.50    5.57
  -3   3  10   42.45    3.48
   2  -3 -10    3.64    1.78
   2  -3 -10    1.99    6.42
  -2   3  10   -0.35    2.00
  -2   3  10    0.33    1.34
  -2   3  10    2.07    3.16
   1  -3 -10   55.71    4.00
  -1   3  10   53.74    6.40
  -1   3  10   45.45    3.42
  -1   3  10   46.97    5.38
   0  -3 -10    9.38    2.01
   0  -3 -10   26.23    9.16
   0   3  10    7.03    1.61
   0   3  10   10.20    3.56
   0   3  10    7.17    2.49
  -1  -3 -10   24.39    5.85
  -1  -3 -10   43.74    3.69
   1   3  10   46.37    3.52
   1   3  10   55.53    5.21
   1   3  10   43.18    5.93
  -2  -3 -10   19.73    5.30
  -2  -3 -10   17.74    2.34
   2   3  10   14.95    2.16
   2   3  10   12.78    3.94
   2   3  10   16.52    3.16
  -3  -3 -10   39.07    3.35
   3   3  10   36.41    5.82
   3   3  10   25.10    4.08
   3   3  10   33.55    3.02
  -4  -3 -10    8.61    2.18
  -4  -3 -10   10.89    5.90
  -4  -3 -10   14.21    7.76
   4   3  10    5.71    3.66
   4   3  10    6.58    1.84
  -5  -3 -10   43.72    9.97
  -5  -3 -10   31.69    9.21
   5   3  10   19.30    2.99
   5   3  10   16.55    4.73
  -6  -3 -10   13.80    2.45
  -6  -3 -10   19.23    7.76
   6   3  10    9.84    4.67
   6   3  10    8.92    2.45
  -7  -3 -10    9.75    2.16
   7   3  10    8.85    2.54
   5  -4 -10   -7.17   14.15
  -5   4  10    2.58    4.42
  -5   4  10   -0.55    2.89
  -5   4  10    2.82    1.91
   4  -4 -10   37.12   10.83
   4  -4 -10   20.59   17.14
  -4   4  10   18.93    4.15
  -4   4  10   21.99    2.68
  -4   4  10   20.22    5.33
   3  -4 -10    1.19    1.56
   3  -4 -10    7.51    7.11
   3  -4 -10    1.57   12.75
  -3   4  10    3.90    2.58
  -3   4  10    6.77    1.65
  -3   4  10    5.39    3.66
   2  -4 -10   60.37   12.77
   2  -4 -10   21.58    2.63
  -2   4  10   27.17    2.56
  -2   4  10   26.85    4.25
  -2   4  10   28.30    5.19
   1  -4 -10    9.11    1.79
   1  -4 -10   14.94    7.99
  -1   4  10    5.41    2.44
  -1   4  10    5.70    3.20
  -1   4  10    6.70    1.60
   0  -4 -10   23.76    2.56
   0   4  10   23.56    3.75
   0   4  10   24.22    4.41
   0   4  10   26.84    2.38
  -1  -4 -10   24.72    2.59
  -1  -4 -10   39.32   11.20
   1   4  10   25.74    4.70
   1   4  10   31.23    4.17
   1   4  10   25.16    2.48
  -2  -4 -10   28.62    8.52
  -2  -4 -10   33.22    3.01
   2   4  10   30.67    2.97
   2   4  10   38.25    4.41
   2   4  10   29.54    5.14
  -3  -4 -10   27.58    9.85
  -3  -4 -10   16.27    2.24
   3   4  10   15.39    2.24
   3   4  10   12.07    2.72
   3   4  10   22.38    4.70
  -4  -4 -10   34.39    9.83
   4   4  10   12.19    4.27
   4   4  10   15.50    2.40
  -5  -4 -10   24.84    8.61
  -5  -4 -10   23.10    2.70
   5   4  10   22.85    3.16
   5   4  10   32.15    6.00
  -6  -4 -10    6.84    5.69
  -6  -4 -10    8.09    1.91
   6   4  10    3.39    3.85
   6   4  10    5.17    2.00
  -7  -4 -10   17.22    2.72
   7   4  10   18.35    3.21
   5  -5 -10   -1.46   15.29
  -5   5  10    3.97    1.92
   4  -5 -10    4.16    6.07
   4  -5 -10   -4.40   13.81
  -4   5  10    2.34    1.57
  -4   5  10    3.45    2.97
  -4   5  10    2.22    4.31
   3  -5 -10   17.41   14.79
   3  -5 -10   27.73    9.36
  -3   5  10   13.94    4.39
  -3   5  10   20.33    4.17
  -3   5  10   21.04    2.44
   2  -5 -10    6.31    6.56
   2  -5 -10    8.21   11.86
  -2   5  10    6.25    3.66
  -2   5  10    2.76    2.44
  -2   5  10    4.07    1.48
   1  -5 -10   18.92    1.87
   1  -5 -10   34.89   10.49
   1  -5 -10   21.48   11.74
  -1   5  10    8.02    3.38
  -1   5  10   13.13    3.14
  -1   5  10   19.78    2.21
   0  -5 -10   21.99   10.38
   0  -5 -10   45.43   11.31
   0  -5 -10   22.66    2.13
   0   5  10   24.03    3.84
   0   5  10   22.24    4.47
   0   5  10   25.47    2.44
  -1  -5 -10   47.29   11.33
  -1  -5 -10   22.27    2.22
  -1  -5 -10   37.62   10.92
   1   5  10   23.30    2.48
   1   5  10   25.38    3.95
   1   5  10   22.00    4.21
  -2  -5 -10   39.87   10.79
  -2  -5 -10   23.74    8.42
   2   5  10   20.11    4.22
   2   5  10   20.20    3.40
   2   5  10   20.94    2.47
  -3  -5 -10   12.16    1.64
  -3  -5 -10   15.93    8.01
   3   5  10   11.55    2.03
   3   5  10   13.75    3.89
   3   5  10   12.61    2.63
  -4  -5 -10   25.51    8.99
  -4  -5 -10   20.87    2.27
   4   5  10   17.48    4.45
   4   5  10   21.76    2.83
  -5  -5 -10    3.59    1.45
  -5  -5 -10    5.94    6.09
   5   5  10    4.71    3.60
   5   5  10    3.70    1.67
  -6  -5 -10   19.11    8.43
  -6  -5 -10   24.57    2.66
   6   5  10    9.35    4.70
   6   5  10   19.28    3.01
  -7  -5 -10    1.88    1.55
   7   5  10    3.24    4.33
   4  -6 -10    7.73   15.67
  -4   6  10    8.85    3.47
  -4   6  10   14.20    4.82
   3  -6 -10    1.16    5.75
   3  -6 -10    0.25   12.90
  -3   6  10    3.21    3.64
  -3   6  10    2.56    2.72
  -3   6  10    3.93    1.61
   2  -6 -10  -12.18    9.74
   2  -6 -10   14.35    7.91
  -2   6  10   10.52    3.13
  -2   6  10   10.36    3.65
  -2   6  10    8.99    1.72
   1  -6 -10   28.72    9.79
   1  -6 -10   34.39   14.74
  -1   6  10   24.83    4.33
  -1   6  10   20.54    3.76
  -1   6  10   23.26    2.38
   0  -6 -10   12.40    7.38
   0  -6 -10    2.48    8.84
   0   6  10    9.89    2.68
   0   6  10    8.81    1.59
   0   6  10    9.44    3.12
  -1  -6 -10   45.51   11.59
  -1  -6 -10   30.05   11.12
   1   6  10   28.03    4.62
   1   6  10   29.67    4.33
   1   6  10   38.09    2.89
  -2  -6 -10    7.13    7.65
  -2  -6 -10    4.57    6.48
   2   6  10    6.05    3.10
   2   6  10    5.26    2.27
   2   6  10    6.21    1.62
  -3  -6 -10   23.68    9.54
   3   6  10   22.41    4.43
   3   6  10   24.87    3.43
   3   6  10   17.43    2.35
  -4  -6 -10    1.43    0.98
  -4  -6 -10    4.15    5.95
   4   6  10    0.81    2.87
   4   6  10    2.36    1.53
  -5  -6 -10   31.03    2.56
  -5  -6 -10   38.41   11.75
   5   6  10   26.64    3.18
   5   6  10   24.43    5.54
  -6  -6 -10    2.89    6.37
   6   6  10   -0.35    1.66
   6   6  10   -1.35    3.16
   7   6  10   13.87    5.14
   4  -7 -10   10.55   17.90
   3  -7 -10    8.53    6.35
   3  -7 -10    1.03   14.17
  -3   7  10    1.56    2.94
  -3   7  10    2.65    3.75
   2  -7 -10   -4.93   13.14
   2  -7 -10   14.04    7.99
  -2   7  10    9.17    3.56
  -2   7  10   10.63    3.38
   1  -7 -10    7.33    6.71
   1  -7 -10  -10.29   11.20
  -1   7  10    1.30    2.69
  -1   7  10    1.83    2.52
   0  -7 -10   39.30   11.42
   0  -7 -10   35.78   14.15
   0   7  10   32.62    2.78
   0   7  10   37.69    4.85
   0   7  10   32.96    4.70
  -1  -7 -10   -3.10    8.36
  -1  -7 -10    3.93    6.20
   1   7  10    3.26    1.34
   1   7  10    0.97    2.05
   1   7  10    2.31    2.79
  -2  -7 -10   27.99   10.67
  -2  -7 -10   29.14    9.92
   2   7  10   21.67    3.50
   2   7  10   22.84    2.50
   2   7  10   24.70    4.28
  -3  -7 -10    1.48    5.25
   3   7  10   -0.50    2.36
   3   7  10   -0.91    1.13
  -4  -7 -10   17.38    8.53
   4   7  10   17.65    4.40
   4   7  10   20.85    2.69
  -5  -7 -10    1.53    5.94
   5   7  10    0.25    1.55
   5   7  10    2.47    3.22
  -6  -7 -10   13.31    8.49
   6   7  10   13.21    2.43
   6   7  10   14.03    4.64
   3  -8 -10   -0.15   16.31
   2  -8 -10    2.36   14.23
   2  -8 -10    8.10    6.55
  -2   8  10    0.58    3.17
  -2   8  10   -0.62    2.62
   1  -8 -10    7.65   13.12
   1  -8 -10   24.43    9.64
  -1   8  10   26.03    4.27
  -1   8  10   15.22    3.74
   0  -8 -10    2.56    5.96
   0  -8 -10   -2.71   10.26
   0   8  10    2.24    2.55
   0   8  10   -1.44    2.05
  -1  -8 -10   20.59    9.11
  -1  -8 -10   12.94   11.69
   1   8  10   13.30    3.41
   1   8  10   12.70    2.98
  -2  -8 -10    0.29    5.74
  -2  -8 -10    0.82    8.67
   2   8  10    0.99    2.58
  -3  -8 -10   20.11    9.73
   3   8  10   11.14    3.52
  -4  -8 -10    6.31    7.00
   4   8  10    1.54    2.97
  -5  -8 -10   12.68    9.34
   5   8  10   14.74    2.48
   1  -9 -10    5.04   15.04
   1  -9 -10    0.62    6.09
  -1   9  10   -3.00    2.36
   0  -9 -10    2.75   13.34
   0  -9 -10   10.65    8.64
   0   9  10   11.62    3.29
  -1  -9 -10   -5.32    4.62
  -1  -9 -10    4.77    9.87
   1   9  10    0.37    2.46
  -2  -9 -10   10.78    8.44
  -2  -9 -10   12.65   10.96
   2   9  10    9.57    3.32
   0  -6  11   -5.34   12.98
   2   5 -11    9.23    6.46
   2   5 -11    3.84    7.09
   2   5 -11   11.89    3.32
  -2  -5  11    9.06   15.64
   1   5 -11    1.65    5.47
   1   5 -11   -1.67    2.19
   1   5 -11   -6.05    5.81
   1   5 -11   -1.80    3.16
   0   5 -11    8.80    3.55
   0   5 -11   14.22    3.29
   0   5 -11   26.31    8.54
   0   5 -11    8.06    6.48
  -1   5 -11    1.31    5.37
  -1   5 -11    4.56    7.13
  -1   5 -11    1.35    2.59
  -1   5 -11   -0.58    2.82
   1  -5  11   -6.17   10.33
  -2   5 -11    8.62    7.84
  -2   5 -11    7.51    3.29
  -2   5 -11    8.83    3.21
  -2   5 -11    0.48    6.88
   2  -5  11    5.43   12.20
  -3   5 -11    4.58    2.46
  -3   5 -11   -2.47    6.81
  -3   5 -11    1.86    2.56
   3  -5  11   -1.12   10.06
   3   4 -11    9.91    3.33
  -3  -4  11    8.09    2.05
   2   4 -11    6.90    6.31
   2   4 -11    0.13    4.83
   2   4 -11    2.15    2.41
   2   4 -11   -1.80    2.60
  -2  -4  11    1.97    1.66
   1   4 -11   12.25    3.70
   1   4 -11   10.28    2.73
   1   4 -11   16.76    7.41
   1   4 -11   10.40    6.26
  -1  -4  11    9.00    1.97
   0   4 -11    6.40    2.52
   0   4 -11    0.95    5.61
   0   4 -11    4.86    3.05
   0   4 -11    3.46    5.13
   0  -4  11    0.34    1.49
  -1   4 -11    9.70    2.89
  -1   4 -11   12.31    6.44
  -1   4 -11   11.43    3.35
  -1   4 -11    4.49    6.59
   1  -4  11    6.20    1.86
  -2   4 -11   10.50    3.13
  -2   4 -11    2.81    7.00
  -2   4 -11   10.48    3.19
  -2   4 -11   14.12    7.32
   2  -4  11    6.78    1.91
  -3   4 -11    4.67    6.56
  -3   4 -11   11.91    3.16
  -3   4 -11    7.80    2.84
  -3   4 -11   14.99    7.55
   3  -4  11    6.46    1.87
  -4   4 -11    3.00    6.87
  -4   4 -11    3.55    2.81
   4  -4  11    2.89    9.62
  -4  -3  11    9.01    2.89
  -4  -3  11    7.05    2.06
   3   3 -11   -1.56    2.67
   3   3 -11    3.17    2.52
  -3  -3  11    2.84    2.30
  -3  -3  11    4.50    1.86
   2   3 -11   23.25    3.66
   2   3 -11   18.91    4.39
   2   3 -11   11.13    5.92
   2   3 -11   19.06    7.21
  -2  -3  11   18.92    2.65
   1   3 -11    4.95    3.05
   1   3 -11    2.76    4.68
   1   3 -11    5.21    2.29
   1   3 -11    1.18    6.10
  -1  -3  11    2.61    1.66
   0   3 -11    6.83    5.43
   0   3 -11    9.54    3.13
   0   3 -11   10.21    2.63
   0   3 -11    8.39    6.99
   0  -3  11    9.01    1.99
  -1   3 -11   21.76    7.31
  -1   3 -11   13.60    7.30
  -1   3 -11   22.27    3.53
  -1   3 -11   19.57    3.97
   1  -3  11   13.67    2.38
  -2   3 -11   19.09    7.68
  -2   3 -11   12.46    3.16
  -2   3 -11   12.28    3.12
  -2   3 -11   10.22    5.91
   2  -3  11    4.72    1.80
  -3   3 -11    4.63    2.37
  -3   3 -11   11.28    7.01
  -3   3 -11    4.79    2.36
  -3   3 -11    5.56    5.99
   3  -3  11    9.71    5.69
   3  -3  11    1.79    1.72
  -4   3 -11   11.58    7.02
  -4   3 -11    1.66    2.62
  -4   3 -11    0.39    6.05
   4  -3  11    3.77    1.90
   4  -3  11    7.99    6.52
  -5   3 -11    4.14    2.69
  -5   3 -11    8.69    7.52
   5  -3  11   17.91    7.86
   5  -3  11    6.56    2.04
  -5  -2  11    3.94    2.56
   4   2 -11    3.33    3.23
   4   2 -11    7.17    2.65
  -4  -2  11    5.60    2.05
  -4  -2  11    4.92    2.66
   3   2 -11   15.69    3.06
   3   2 -11   12.04    3.78
  -3  -2  11    9.48    2.10
  -3  -2  11   15.54    3.62
   2   2 -11    4.30    2.68
   2   2 -11    3.26    2.20
   2   2 -11    2.55    3.84
   2   2 -11    3.28    5.62
  -2  -2  11    3.42    2.46
  -2  -2  11    6.22    1.70
   1   2 -11    7.88    2.95
   1   2 -11    7.52    4.86
   1   2 -11   -0.66    4.97
   1   2 -11   13.45    2.95
  -1  -2  11    3.79    2.54
  -1  -2  11    5.23    1.69
   0   2 -11   31.96    4.84
   0   2 -11   28.02    3.74
   0   2 -11   25.99    7.31
   0   2 -11   23.85    7.48
   0  -2  11   26.14    3.09
  -1   2 -11    8.36    2.58
  -1   2 -11   14.44    6.09
  -1   2 -11   19.46    7.21
  -1   2 -11   11.50    3.14
   1  -2  11   10.72    2.25
  -2   2 -11   17.13    7.48
  -2   2 -11   25.93    7.74
  -2   2 -11   24.83    3.60
  -2   2 -11   19.55    3.71
   2  -2  11   17.05    2.71
  -3   2 -11    6.71    2.57
  -3   2 -11    7.09    5.75
  -3   2 -11   -1.97    5.25
  -3   2 -11    6.42    2.53
   3  -2  11    4.74    1.82
  -4   2 -11    7.51    6.66
  -4   2 -11   17.18    3.53
  -4   2 -11   35.13   10.14
   4  -2  11   13.25    2.59
  -5   2 -11    2.86    6.89
  -5   2 -11    1.43    2.23
  -5   2 -11    2.46    6.56
   5  -2  11    0.07    1.88
   6  -2  11   27.13   10.26
   5   1 -11    6.72    3.36
  -5  -1  11    1.43    3.22
   4   1 -11    5.60    3.20
   4   1 -11    6.79    2.69
  -4  -1  11    6.19    3.20
  -4  -1  11    8.05    2.23
   3   1 -11    6.84    2.48
   3   1 -11    7.31    2.94
  -3  -1  11    7.47    2.08
  -3  -1  11    8.49    2.95
   2   1 -11   11.25    2.60
   2   1 -11    6.25    2.75
   2   1 -11    6.24    3.98
  -2  -1  11    8.77    2.98
  -2  -1  11    8.23    1.89
   1   1 -11   30.20    3.77
   1   1 -11   28.28    4.45
   1   1 -11   25.75    6.31
   1   1 -11   25.93    7.30
  -1  -1  11   23.18    2.68
  -1  -1  11   21.12    3.98
   0   1 -11    7.81    2.42
   0   1 -11   -0.23    5.10
   0   1 -11    9.29    4.64
   0   1 -11   12.36    3.23
   0  -1  11    8.60    2.04
   0  -1  11    2.89    2.48
  -1   1 -11   44.35    9.23
  -1   1 -11   51.14    4.62
  -1   1 -11   53.81    5.81
  -1   1 -11   63.14    9.79
   1  -1  11   47.00    4.08
  -2   1 -11    5.16    4.91
  -2   1 -11    6.02    2.40
  -2   1 -11    1.09    5.79
  -2   1 -11    3.89    2.47
   2  -1  11    2.91    1.63
  -3   1 -11   28.32    3.84
  -3   1 -11   21.79    7.66
  -3   1 -11   41.93    9.46
   3  -1  11   25.07    3.22
  -4   1 -11    4.48    6.49
  -4   1 -11   -1.28    2.12
  -4   1 -11    0.35    5.26
   4  -1  11   -0.57    1.73
  -5   1 -11   36.62    8.64
  -5   1 -11   17.44    3.37
   5  -1  11   23.20    3.31
  -6   1 -11    0.19    2.33
   6  -1  11   -1.53    1.73
   5   0 -11    1.28    2.35
   5   0 -11    4.91    2.70
  -5   0  11   -2.26    3.31
   4   0 -11   10.59    2.67
   4   0 -11    6.26    2.76
  -4   0  11    5.44    3.44
  -4   0  11    7.98    2.13
   3   0 -11    4.25    2.30
   3   0 -11    3.36    2.39
  -3   0  11    3.61    1.75
  -3   0  11    3.78    2.82
   2   0 -11   28.58    3.65
   2   0 -11   25.31    4.20
  -2   0  11   24.24    2.75
  -2   0  11   21.87    5.22
  -2   0  11   21.75    4.01
   1   0 -11    0.94    2.05
   1   0 -11    4.27    5.30
   1   0 -11    0.86    2.90
   1   0 -11   -0.82    1.64
  -1   0  11    0.32    2.21
  -1   0  11    2.00    1.51
  -1   0  11    3.77    3.40
   0   0 -11   65.30    6.45
   0   0 -11   55.02    9.17
   0   0 -11   80.35    9.88
   0   0 -11   58.51    4.82
   0   0  11   60.24    7.57
   0   0  11   47.06    6.17
   0   0  11   64.27    4.35
  -1   0 -11    0.45    1.83
  -1   0 -11    4.22    5.03
  -1   0 -11    0.80    3.86
  -1   0 -11   -0.45    1.81
   1   0  11    2.26    1.49
   1   0  11    0.77    3.27
   1   0  11    0.93    2.20
  -2   0 -11   41.62    7.86
  -2   0 -11   23.30    6.93
  -2   0 -11   22.63    3.26
   2   0  11   20.67    2.90
   2   0  11   11.47    4.58
  -3   0 -11    0.40    1.83
  -3   0 -11    0.90    4.68
  -3   0 -11   -4.45    4.67
   3   0  11    0.33    1.53
  -4   0 -11   29.67    3.84
  -4   0 -11   34.87    8.30
   4   0  11   33.43    3.71
  -5   0 -11   -3.00    6.30
  -5   0 -11    2.23    6.60
  -5   0 -11    2.54    2.38
   5   0  11    0.95    1.95
  -6   0 -11   47.82   12.26
  -6   0 -11   24.09    3.96
   6   0  11   19.80    3.29
   5  -1 -11    9.78    3.06
   5  -1 -11   13.38    3.20
  -5   1  11    5.13    3.79
   4  -1 -11    2.09    2.17
   4  -1 -11    0.91    2.22
  -4   1  11    0.92    1.81
  -4   1  11    0.81    4.27
  -4   1  11   -2.22    3.07
   3  -1 -11   15.51    3.50
   3  -1 -11   27.06    3.61
  -3   1  11   20.75    2.67
  -3   1  11   14.95    5.05
  -3   1  11   23.46    4.27
   2  -1 -11    0.28    1.94
   2  -1 -11    0.93    2.07
  -2   1  11    0.20    1.37
  -2   1  11    3.48    3.71
  -2   1  11   -0.50    2.38
   1  -1 -11   54.49    5.71
   1  -1 -11   52.61    4.52
  -1   1  11   44.72    3.65
  -1   1  11   49.22    6.87
  -1   1  11   50.60    5.72
   0  -1 -11   -0.20    3.08
   0  -1 -11    0.76    2.04
   0  -1 -11    1.63    4.35
   0  -1 -11    0.32    1.65
   0   1  11    0.19    2.02
   0   1  11    0.06    1.27
   0   1  11   -0.99    3.29
  -1  -1 -11   27.39    7.10
  -1  -1 -11   35.69    3.86
   1   1  11   35.99    3.28
   1   1  11   28.62    4.42
   1   1  11   24.33    5.22
  -2  -1 -11   -1.12    4.13
  -2  -1 -11    0.45    4.49
  -2  -1 -11    0.49    1.64
   2   1  11   -0.26    1.40
   2   1  11   -1.88    3.00
  -3  -1 -11   44.55    3.98
  -3  -1 -11   28.46    7.52
   3   1  11   37.93    3.74
   3   1  11   34.21    6.58
  -4  -1 -11    9.46    7.77
  -4  -1 -11    3.56    2.26
  -4  -1 -11   12.41    6.94
   4   1  11    4.37    4.01
   4   1  11    1.65    1.70
  -5  -1 -11   38.68    4.20
   5   1  11   23.35    3.24
  -6  -1 -11    4.34    7.05
   6   1  11    2.91    2.23
   5  -2 -11    0.02    2.19
  -5   2  11    0.95    1.78
  -5   2  11   -0.77    4.42
  -5   2  11   -3.56    3.14
   4  -2 -11    7.12    2.37
  -4   2  11    5.14    3.29
  -4   2  11   11.83    4.96
  -4   2  11   10.73    2.21
   3  -2 -11    0.90    1.99
  -3   2  11    1.65    3.51
  -3   2  11   -4.52    2.56
  -3   2  11   -0.19    1.43
   2  -2 -11   52.17    4.44
  -2   2  11   50.04    3.95
  -2   2  11   40.88    6.72
  -2   2  11   53.02    6.27
   1  -2 -11    2.56    1.90
  -1   2  11    3.86    2.51
  -1   2  11    5.76    3.78
  -1   2  11    4.30    1.51
   0  -2 -11   49.92    4.22
   0   2  11   45.64    6.49
   0   2  11   45.25    3.51
   0   2  11   45.53    5.35
  -1  -2 -11    5.10    1.98
  -1  -2 -11    8.99    4.43
   1   2  11    2.74    1.49
   1   2  11    2.43    2.40
   1   2  11    5.67    3.41
  -2  -2 -11   34.28    3.32
   2   2  11   29.72    2.95
   2   2  11   20.71    3.91
   2   2  11   25.03    5.33
  -3  -2 -11   10.98    2.56
  -3  -2 -11   41.90   11.98
  -3  -2 -11   29.97    7.41
   3   2  11   11.88    2.44
   3   2  11    9.47    4.31
  -4  -2 -11   41.49    3.99
   4   2  11   21.85    5.65
   4   2  11   34.23    3.47
  -5  -2 -11   35.52   10.00
  -5  -2 -11   20.16    3.25
  -5  -2 -11   32.56   10.14
   5   2  11   11.77    2.51
  -6  -2 -11   11.18    6.66
  -6  -2 -11   10.14    8.34
   6   2  11    8.41    2.58
   5  -3 -11    7.13    2.45
  -5   3  11   12.01    6.07
  -5   3  11    8.50    2.19
   4  -3 -11   -0.31    8.18
   4  -3 -11    2.99    2.11
  -4   3  11    2.34    4.59
  -4   3  11    0.46    1.57
  -4   3  11    0.33    2.73
   3  -3 -11   32.19    3.59
  -3   3  11   23.67    4.52
  -3   3  11   26.83    5.75
  -3   3  11   26.79    3.05
   2  -3 -11    5.79    2.13
   2  -3 -11   28.98   10.54
  -2   3  11   10.32    3.20
  -2   3  11    7.27    3.94
  -2   3  11   12.32    2.16
   1  -3 -11   41.96    3.80
  -1   3  11   39.14    3.36
  -1   3  11   34.95    5.64
  -1   3  11   42.16    5.20
   0  -3 -11   16.60    8.95
   0  -3 -11    7.48    2.01
   0   3  11    6.71    1.68
   0   3  11   11.61    3.92
   0   3  11   11.92    3.08
  -1  -3 -11   20.07    2.71
   1   3  11   24.58    4.85
   1   3  11   26.01    2.81
   1   3  11   19.08    3.52
  -2  -3 -11   21.56    2.80
   2   3  11   20.51    4.88
   2   3  11   19.15    3.56
   2   3  11   19.89    2.53
  -3  -3 -11   34.10    3.52
   3   3  11   24.92    3.04
   3   3  11   26.86    5.33
  -4  -3 -11   38.53   11.13
  -4  -3 -11   18.62    2.85
   4   3  11   16.44    4.86
   4   3  11   14.54    2.55
  -5  -3 -11   14.06    7.34
  -5  -3 -11   13.11    7.87
   5   3  11    3.51    2.06
   5   3  11    4.58    4.47
  -6  -3 -11    7.96    2.21
  -6  -3 -11   17.09    7.89
   6   3  11    3.81    2.06
   5  -4 -11   -5.12   15.47
  -5   4  11    1.04    2.10
  -5   4  11   -0.11    4.65
   4  -4 -11   16.20    8.78
   4  -4 -11   20.65   17.04
  -4   4  11    3.61    3.26
  -4   4  11    9.06    2.21
  -4   4  11    9.07    4.60
   3  -4 -11    6.67    2.04
   3  -4 -11   20.38   10.27
   3  -4 -11   17.63   15.50
  -3   4  11    8.04    1.88
  -3   4  11    5.36    3.92
  -3   4  11    6.59    3.11
   2  -4 -11   27.86    3.06
  -2   4  11   24.08    4.28
  -2   4  11   30.44    5.31
  -2   4  11   28.43    2.77
   1  -4 -11   34.02   11.40
   1  -4 -11   12.38    2.12
  -1   4  11    9.06    1.81
  -1   4  11   10.24    3.01
  -1   4  11    8.05    3.73
   0  -4 -11   35.18   11.20
   0  -4 -11   13.65    2.22
   0   4  11   10.94    4.05
   0   4  11   12.67    3.10
   0   4  11   12.34    2.02
  -1  -4 -11   21.50    2.60
  -1  -4 -11   33.38   11.19
   1   4  11   15.63    4.28
   1   4  11   21.91    3.67
   1   4  11   20.53    2.46
  -2  -4 -11   20.08    8.29
  -2  -4 -11   19.94    2.61
  -2  -4 -11   44.00   11.73
   2   4  11   11.85    2.11
   2   4  11   20.77    3.55
   2   4  11   10.26    4.12
  -3  -4 -11   29.93    3.16
   3   4  11   24.04    3.92
   3   4  11   28.95    3.16
   3   4  11   32.57    5.96
  -4  -4 -11   22.29    8.84
   4   4  11    8.19    4.40
   4   4  11    6.14    1.94
  -5  -4 -11   26.60    9.86
  -5  -4 -11   16.05    2.35
   5   4  11   15.18    2.74
   5   4  11   19.54    5.18
  -6  -4 -11    1.63    1.62
  -6  -4 -11    4.01    5.86
   6   4  11    0.18    1.75
   6   4  11   -5.10    3.92
  -7  -4 -11    8.71    2.26
   4  -5 -11    7.24   16.59
   4  -5 -11   10.63    7.61
  -4   5  11    8.36    2.15
  -4   5  11    5.79    4.75
   3  -5 -11   27.05   17.39
   3  -5 -11   21.92    9.38
  -3   5  11   11.19    2.12
  -3   5  11   10.72    3.77
  -3   5  11    7.69    4.41
   2  -5 -11   16.44   14.56
   2  -5 -11   21.75    9.56
  -2   5  11    9.80    3.30
  -2   5  11    9.52    3.90
  -2   5  11   11.14    1.91
   1  -5 -11   23.42   10.23
   1  -5 -11    5.87   11.09
  -1   5  11   10.93    3.07
  -1   5  11   11.46    1.82
  -1   5  11   10.46    3.78
   0  -5 -11   35.99   10.98
   0  -5 -11   15.05    1.95
   0  -5 -11   15.92   10.50
   0   5  11   20.34    3.76
   0   5  11   21.25    4.58
   0   5  11   16.84    2.16
  -1  -5 -11   15.54    9.21
  -1  -5 -11   23.53    9.55
  -1  -5 -11   11.21    1.75
   1   5  11   12.69    3.80
   1   5  11   11.10    1.98
   1   5  11   10.39    2.81
  -2  -5 -11   34.06   10.06
  -2  -5 -11   79.55   13.57
   2   5  11   46.06    6.57
   2   5  11   46.59    5.40
   2   5  11   43.48    3.68
  -3  -5 -11    2.89    6.22
   3   5  11    3.40    2.12
   3   5  11    4.68    1.77
   3   5  11    1.28    3.19
  -4  -5 -11   20.16    2.27
  -4  -5 -11   25.81    9.50
   4   5  11   14.52    2.52
   4   5  11   11.55    4.28
  -5  -5 -11   -2.05    5.65
  -5  -5 -11    1.50    1.33
   5   5  11    2.79    3.86
   5   5  11   -2.45    1.49
  -6  -5 -11   21.47    8.91
  -6  -5 -11   12.60    2.20
   6   5  11   13.78    2.82
   6   5  11    8.91    5.02
  -7  -5 -11   -1.05    1.47
   4  -6 -11   15.66   16.28
   3  -6 -11    5.17   14.55
   3  -6 -11   23.82    9.36
  -3   6  11   13.85    3.84
  -3   6  11   15.70    2.41
  -3   6  11    8.99    4.46
   2  -6 -11    2.38   12.86
   2  -6 -11    5.98    6.57
  -2   6  11    4.31    3.57
  -2   6  11    3.88    2.84
  -2   6  11    5.55    1.71
   1  -6 -11   10.12   12.78
   1  -6 -11   22.10    9.13
  -1   6  11   16.74    3.62
  -1   6  11   11.51    3.86
  -1   6  11   16.36    2.16
   0  -6 -11    5.70   10.20
   0  -6 -11    0.59    6.01
   0   6  11    3.56    3.19
   0   6  11    0.79    1.25
   0   6  11   -0.36    2.25
  -1  -6 -11   19.05   10.37
  -1  -6 -11   52.63   13.26
   1   6  11   37.91    4.91
   1   6  11   25.70    4.83
   1   6  11   35.73    3.09
  -2  -6 -11    1.34    6.82
  -2  -6 -11    2.85    6.47
   2   6  11    0.60    1.35
   2   6  11   -0.89    2.15
   2   6  11    4.73    3.43
  -3  -6 -11   27.08   10.24
   3   6  11   27.22    3.87
   3   6  11   20.82    4.70
   3   6  11   20.34    2.74
  -4  -6 -11   -2.08    4.84
   4   6  11   -1.29    1.59
   4   6  11   -2.23    2.80
  -5  -6 -11   24.02    9.28
   5   6  11   14.60    4.65
   5   6  11   21.19    3.02
  -6  -6 -11    5.30    6.97
   6   6  11    4.03    4.22
   6   6  11    2.41    1.87
   3  -7 -11   -8.87   14.57
   3  -7 -11    2.25    6.12
   2  -7 -11   11.89    7.92
   2  -7 -11    8.95   15.35
  -2   7  11    7.65    3.48
  -2   7  11    7.24    3.79
   1  -7 -11   -5.81   10.99
   1  -7 -11    1.96    6.32
  -1   7  11   -1.05    2.48
  -1   7  11    0.86    3.01
   0  -7 -11   27.56   10.54
   0  -7 -11   30.24   13.70
   0   7  11   17.74    4.09
   0   7  11   20.96    3.99
   0   7  11   20.66    2.46
  -1  -7 -11    2.01    8.51
  -1  -7 -11   -1.03    5.67
   1   7  11   -1.42    1.16
   1   7  11   -2.23    2.10
   1   7  11   -0.45    2.73
  -2  -7 -11   31.11   11.20
  -2  -7 -11   19.85   10.27
   2   7  11   21.00    3.59
   2   7  11   23.01    4.65
   2   7  11   21.13    2.50
  -3  -7 -11   -2.39    4.92
   3   7  11   -0.66    1.30
   3   7  11   -2.83    2.88
  -4  -7 -11   24.20   10.34
   4   7  11   22.52    4.98
   4   7  11   15.49    2.45
  -5  -7 -11    6.30    7.46
   5   7  11    9.77    4.51
   5   7  11    2.17    1.71
   6   7  11    8.51    2.63
   2  -8 -11   -1.33   14.94
   2  -8 -11    7.31    6.79
   1  -8 -11    9.06   13.46
   1  -8 -11   16.92    8.55
  -1   8  11   13.42    3.69
   0  -8 -11    7.54   12.28
   0  -8 -11    2.36    6.00
   0   8  11    3.26    2.99
   0   8  11   -4.06    2.20
  -1  -8 -11   14.74   11.76
  -1  -8 -11   29.78   11.12
   1   8  11   14.06    3.81
   1   8  11   10.25    3.08
  -2  -8 -11    6.93    7.43
  -2  -8 -11    6.91    9.48
   2   8  11    4.43    3.28
  -3  -8 -11    9.05    7.62
   3   8  11    3.31    3.22
   4   8  11    0.84    3.51
   0  -9 -11    6.79   14.74
   0   9  11    7.08    3.35
  -1  -9 -11    5.03   11.19
   0   5 -12   -8.11    6.24
  -1   5 -12    1.45    7.10
   1  -5  12   -3.54   12.64
   2   4 -12    1.40    5.06
  -2  -4  12    0.08    1.58
   1   4 -12   12.15    6.73
   1   4 -12   11.50    3.09
   1   4 -12   -0.77    6.69
  -1  -4  12    9.40    2.14
   0   4 -12    1.58    5.42
   0   4 -12    2.30    2.84
   0   4 -12    8.10    7.05
   0   4 -12    4.29    2.65
   0  -4  12    1.66    1.71
  -1   4 -12    3.08    2.74
  -1   4 -12    1.45    2.74
  -1   4 -12    1.12    7.00
  -1   4 -12    2.37    5.77
   1  -4  12    2.74    1.77
  -2   4 -12    7.67    3.16
  -2   4 -12   13.30    3.54
  -2   4 -12    0.08    7.21
  -2   4 -12    9.49    7.03
   2  -4  12   10.38    2.27
  -3   4 -12    0.78    7.12
  -3   4 -12    1.33    2.52
  -3  -3  12   10.40    2.67
   2   3 -12    9.70    3.68
   2   3 -12    9.90    2.95
  -2  -3  12    9.33    2.31
   1   3 -12   -3.08    6.89
   1   3 -12    5.63    5.66
   1   3 -12    5.25    3.19
   1   3 -12   12.08    3.00
  -1  -3  12    6.03    1.93
   0   3 -12    5.06    3.14
   0   3 -12    3.07    2.49
   0   3 -12    8.46    6.75
   0   3 -12    6.17    5.60
   0  -3  12    3.27    1.70
  -1   3 -12   13.93    3.76
  -1   3 -12   18.16    8.18
  -1   3 -12   14.30    6.67
  -1   3 -12   16.84    3.63
   1  -3  12   13.71    2.58
  -2   3 -12    4.16    5.66
  -2   3 -12    4.42    2.84
  -2   3 -12   15.80    8.69
  -2   3 -12    4.30    2.77
   2  -3  12    4.39    1.88
  -3   3 -12   28.44    9.19
  -3   3 -12   19.26    3.61
  -3   3 -12   19.42    8.22
  -3   3 -12   17.19    3.71
   3  -3  12   10.17    2.46
  -4   3 -12   10.03    7.76
  -4   3 -12    1.25    2.71
   4  -3  12    1.33    1.85
   3   2 -12    3.64    2.88
   3   2 -12    4.83    3.41
  -3  -2  12    3.03    2.59
  -3  -2  12    5.21    2.12
   2   2 -12   14.58    3.85
   2   2 -12   10.21    2.80
  -2  -2  12    9.19    2.11
  -2  -2  12    8.70    2.97
   1   2 -12    4.11    2.51
   1   2 -12    0.65    2.48
   1   2 -12    1.60    4.21
   1   2 -12    7.26    6.93
  -1  -2  12    4.57    1.90
   0   2 -12   12.63    7.29
   0   2 -12   16.42    6.56
   0   2 -12   11.75    3.08
   0   2 -12   20.09    4.16
   0  -2  12   15.45    2.62
  -1   2 -12    7.84    6.89
  -1   2 -12    3.49    2.46
  -1   2 -12    1.41    2.26
  -1   2 -12    1.38    4.65
   1  -2  12    1.14    1.72
  -2   2 -12   37.00    9.19
  -2   2 -12   28.74    4.59
  -2   2 -12   31.64    9.07
  -2   2 -12   27.82    3.94
   2  -2  12   18.47    2.79
  -3   2 -12    2.19    5.74
  -3   2 -12    2.98    2.30
  -3   2 -12    0.27    6.13
   3  -2  12    0.21    1.51
  -4   2 -12   15.37    3.67
  -4   2 -12    1.91    7.07
  -4   2 -12   29.75   10.15
   4  -2  12   14.12    2.80
   5  -2  12   -2.87    1.82
   4   1 -12   -1.26    2.86
  -4  -1  12    3.53    3.05
   3   1 -12   14.97    3.35
   3   1 -12    9.93    3.50
  -3  -1  12   10.15    2.23
  -3  -1  12   13.26    3.45
   2   1 -12    1.04    2.63
   2   1 -12    4.92    2.35
  -2  -1  12    2.44    1.81
  -2  -1  12    1.36    2.40
   1   1 -12   13.31    3.60
   1   1 -12   13.88    3.06
   1   1 -12   17.71    5.50
  -1  -1  12   10.29    3.29
  -1  -1  12   11.11    2.14
   0   1 -12   -1.70    3.58
   0   1 -12    2.61    5.49
   0   1 -12    1.82    2.22
   0   1 -12   -0.73    2.14
   0  -1  12    0.35    1.44
   0  -1  12    0.89    2.25
  -1   1 -12   30.13    8.41
  -1   1 -12   40.90    4.55
  -1   1 -12   40.32    5.47
  -1   1 -12   54.41    9.54
   1  -1  12   37.40    3.77
  -2   1 -12   -0.59    2.05
  -2   1 -12    5.13    5.35
  -2   1 -12   -4.65    5.21
  -2   1 -12    2.15    2.36
   2  -1  12   -0.19    1.69
  -3   1 -12   19.54    3.59
  -3   1 -12   16.06    7.63
  -3   1 -12   38.44    9.42
   3  -1  12   15.39    2.85
  -4   1 -12   -1.51    2.28
  -4   1 -12   -2.62    5.38
   4  -1  12   -0.97    1.82
  -5   1 -12   21.46    9.03
  -5   1 -12   15.54    3.57
  -5   1 -12   29.49   11.95
   5  -1  12    9.03    2.46
   4   0 -12   14.03    3.32
   4   0 -12   10.15    3.29
  -4   0  12    7.00    3.85
   3   0 -12    1.79    2.68
   3   0 -12    2.41    2.15
  -3   0  12    0.39    2.76
  -3   0  12    2.14    1.92
   2   0 -12   14.33    3.46
   2   0 -12   17.81    3.21
  -2   0  12    8.75    3.16
  -2   0  12   12.85    2.27
   1   0 -12    0.54    1.95
   1   0 -12    1.51    2.28
  -1   0  12   -0.26    2.25
  -1   0  12    0.72    1.61
   0   0 -12   34.15    3.93
   0   0 -12   36.52    4.65
   0   0  12   21.46    4.21
   0   0  12   23.24    5.88
   0   0  12   30.42    3.29
  -1   0 -12   -0.08    1.91
  -1   0 -12    1.47    2.34
  -1   0 -12    0.72    4.03
   1   0  12    0.53    2.26
   1   0  12    0.67    1.49
  -2   0 -12   42.84    9.19
  -2   0 -12   26.43    3.61
  -2   0 -12   22.35    7.92
   2   0  12   18.82    2.87
  -3   0 -12    0.01    1.92
  -3   0 -12    1.03    5.04
   3   0  12   -1.54    1.53
  -4   0 -12   16.36    3.11
   4   0  12   12.51    2.55
  -5   0 -12   15.04    9.45
  -5   0 -12    6.33    2.58
  -5   0 -12   17.73    8.65
   5   0  12    5.06    2.16
   5  -1 -12    6.99    2.84
   4  -1 -12   -1.42    2.29
   4  -1 -12    1.74    2.46
  -4   1  12    1.54    1.85
  -4   1  12   -4.05    2.94
   3  -1 -12   14.58    3.50
   3  -1 -12   13.17    2.91
  -3   1  12   12.46    3.97
  -3   1  12   15.47    5.49
  -3   1  12   13.81    2.44
   2  -1 -12    1.52    2.46
   2  -1 -12   -0.74    2.01
  -2   1  12    0.70    1.67
  -2   1  12   -2.72    3.31
  -2   1  12   -1.35    2.48
   1  -1 -12   38.31    4.14
   1  -1 -12   34.11    4.69
  -1   1  12   29.40    6.20
  -1   1  12   30.76    4.74
  -1   1  12   30.53    3.05
   0  -1 -12    9.59    4.35
   0  -1 -12    8.98    2.52
   0   1  12   13.81    5.13
   0   1  12    8.31    3.02
   0   1  12    5.54    1.81
  -1  -1 -12   33.57    3.80
   1   1  12   26.28    4.63
   1   1  12   35.63    6.07
   1   1  12   31.02    3.41
  -2  -1 -12    2.66    1.92
  -2  -1 -12    6.44    5.35
   2   1  12    2.98    1.87
   2   1  12   -1.50    3.38
  -3  -1 -12   14.82    2.89
   3   1  12   12.58    2.74
   3   1  12   17.72    5.37
  -4  -1 -12   30.46    9.47
  -4  -1 -12   30.78   11.27
  -5  -1 -12   34.79   10.55
  -5  -1 -12   32.33   11.15
  -5  -1 -12   13.41    2.98
   5   1  12   13.02    2.93
  -6  -1 -12   19.11    9.47
   4  -2 -12    8.77    2.76
  -4   2  12    3.20    3.63
  -4   2  12   10.04    2.37
  -4   2  12   13.40    5.94
   3  -2 -12   -0.55    2.04
  -3   2  12   -3.73    2.83
  -3   2  12   -2.20    3.80
  -3   2  12    0.34    1.79
   2  -2 -12   14.63    2.97
  -2   2  12   13.64    2.33
  -2   2  12   16.80    3.88
  -2   2  12   11.81    4.84
   1  -2 -12    9.66    2.58
  -1   2  12   18.04    2.52
  -1   2  12   12.52    3.58
  -1   2  12   10.26    4.36
   0  -2 -12   30.19    3.62
   0   2  12   21.73    5.24
   0   2  12   20.70    3.93
   0   2  12   21.94    2.76
  -1  -2 -12   17.91    5.56
  -1  -2 -12    7.38    2.35
   1   2  12    6.84    1.88
   1   2  12    6.20    4.14
   1   2  12    8.59    2.89
  -2  -2 -12   18.39    2.87
  -2  -2 -12   30.99    7.24
   2   2  12   13.71    2.38
   2   2  12   13.55    4.79
   2   2  12   10.38    3.13
  -3  -2 -12   21.15    3.09
   3   2  12   15.20    5.07
   3   2  12   29.78    3.47
  -4  -2 -12    6.23    2.24
  -4  -2 -12   16.20    8.91
  -4  -2 -12   14.15    7.30
   4   2  12    4.64    4.20
   4   2  12    4.32    2.18
  -5  -2 -12   17.74    3.24
  -5  -2 -12   40.00   11.38
   5   2  12   13.54    2.95
  -6  -2 -12   13.47    9.24
   6   2  12    2.81    2.37
   4  -3 -12    2.45    2.24
   4  -3 -12   -3.41    8.78
  -4   3  12   -3.03    4.23
  -4   3  12    1.57    1.79
   3  -3 -12   16.41   10.32
   3  -3 -12   11.14    2.66
  -3   3  12    3.28    4.39
  -3   3  12    9.67    2.28
  -3   3  12    4.45    3.33
   2  -3 -12   49.48   13.92
   2  -3 -12   14.25    2.72
  -2   3  12   16.88    2.43
  -2   3  12    9.49    4.36
  -2   3  12   12.58    3.74
   1  -3 -12   11.05    2.58
   1  -3 -12   48.09   13.49
  -1   3  12   12.04    4.37
  -1   3  12   14.27    3.55
  -1   3  12   16.23    2.41
   0  -3 -12    9.51    2.34
   0  -3 -12   33.09   11.55
   0   3  12    9.91    2.03
   0   3  12    6.94    4.12
   0   3  12    7.80    3.10
  -1  -3 -12   37.86   12.10
  -1  -3 -12   26.24    5.75
  -1  -3 -12   13.63    2.59
   1   3  12   14.67    2.45
   1   3  12   11.54    3.13
   1   3  12   12.29    4.14
  -2  -3 -12   17.10    2.76
  -2  -3 -12   42.75   12.53
  -2  -3 -12   35.11    7.45
   2   3  12   23.68    5.54
   2   3  12   16.48    3.58
   2   3  12   16.04    2.65
  -3  -3 -12    4.98    2.16
  -3  -3 -12   15.02   10.04
  -3  -3 -12   14.15    6.33
   3   3  12    5.15    3.98
   3   3  12    6.49    2.05
  -4  -3 -12   25.86    3.43
  -4  -3 -12   53.63   12.95
   4   3  12   19.49    2.98
   4   3  12   12.82    4.97
  -5  -3 -12   11.57    8.07
  -5  -3 -12    5.83    6.57
   5   3  12    3.27    2.14
  -6  -3 -12    9.07    7.75
  -6  -3 -12   15.59    2.74
   6   3  12   11.62    3.00
   4  -4 -12    1.47    8.13
   4  -4 -12   17.37   17.20
  -4   4  12    4.67    2.18
  -4   4  12    4.10    5.01
   3  -4 -12   23.52   10.92
   3  -4 -12   10.20   14.92
  -3   4  12    2.70    4.58
  -3   4  12    9.19    2.12
  -3   4  12    6.81    3.79
   2  -4 -12    4.17    1.95
   2  -4 -12    5.79    9.00
  -2   4  12    1.34    3.78
  -2   4  12    2.18    2.94
  -2   4  12    3.93    1.82
   1  -4 -12   12.60    2.24
   1  -4 -12   15.75    9.66
  -1   4  12    4.31    3.20
  -1   4  12    8.41    4.27
  -1   4  12    5.52    1.72
   0  -4 -12   35.75   11.81
   0  -4 -12   11.14    2.36
   0   4  12   18.33    4.59
   0   4  12   15.59    3.47
   0   4  12   14.66    2.30
  -1  -4 -12   22.63    2.80
   1   4  12   18.36    2.48
   1   4  12   21.44    4.83
   1   4  12   22.89    3.90
  -2  -4 -12    2.56    1.75
  -2  -4 -12    5.20    8.24
  -2  -4 -12   -4.26    6.53
   2   4  12    4.50    2.47
   2   4  12    3.60    1.79
   2   4  12    0.29    3.34
  -3  -4 -12   46.90    3.93
   3   4  12   38.96    4.99
   3   4  12   27.20    5.89
   3   4  12   36.83    3.78
  -4  -4 -12    2.22    6.45
   4   4  12   -4.83    3.07
   4   4  12   -0.28    1.76
  -5  -4 -12   11.07    2.22
  -5  -4 -12   16.91    8.86
   5   4  12   12.00    5.12
   5   4  12   15.23    2.98
  -6  -4 -12    0.96    5.91
  -6  -4 -12    1.03    1.59
   6   4  12   -1.43    1.90
   4  -5 -12    7.57   16.47
  -4   5  12    5.36    2.17
   3  -5 -12    8.15    8.70
   3  -5 -12   -9.32   12.69
  -3   5  12    3.05    1.75
  -3   5  12   -0.12    3.12
  -3   5  12    2.54    4.19
   2  -5 -12   10.74   14.77
   2  -5 -12   32.43   11.54
  -2   5  12   12.14    4.39
  -2   5  12   17.87    2.49
  -2   5  12    9.60    3.56
   1  -5 -12   11.83   13.56
   1  -5 -12    8.85    8.57
  -1   5  12    5.34    3.85
  -1   5  12    4.01    1.66
  -1   5  12    3.51    2.91
   0  -5 -12   22.30   12.28
   0  -5 -12   52.99   14.38
   0  -5 -12   17.97    2.30
   0   5  12   19.31    4.65
   0   5  12   23.20    2.70
   0   5  12   23.24    4.06
  -1  -5 -12   -2.74    7.15
  -1  -5 -12   -1.72    1.30
  -1  -5 -12   -0.93    6.71
   1   5  12   -1.98    2.41
   1   5  12   -1.90    3.11
   1   5  12    2.11    1.56
  -2  -5 -12   51.95   13.30
  -2  -5 -12   23.53    2.78
  -2  -5 -12   20.97    9.33
   2   5  12   34.10    4.64
   2   5  12   29.50    3.19
   2   5  12   28.52    5.87
  -3  -5 -12   -2.72    6.26
   3   5  12   -1.02    3.40
   3   5  12    0.71    1.56
   3   5  12    1.47    1.93
  -4  -5 -12   35.11   11.72
  -4  -5 -12   15.58    2.16
   4   5  12   11.29    4.57
   4   5  12   15.90    2.61
  -5  -5 -12   -0.16    1.38
  -5  -5 -12   -0.19    5.65
   5   5  12   -4.96    3.32
   5   5  12   -0.88    1.61
  -6  -5 -12   14.95    7.61
  -6  -5 -12    9.67    2.13
   6   5  12   14.91    6.00
   3  -6 -12   18.98    9.87
   3  -6 -12   11.89   17.35
  -3   6  12   11.75    2.38
   2  -6 -12    5.14   14.38
   2  -6 -12    0.43    7.03
  -2   6  12    0.41    1.60
  -2   6  12   -3.16    3.45
  -2   6  12   -3.71    2.53
   1  -6 -12    8.82   13.56
   1  -6 -12   16.23    9.43
  -1   6  12   10.45    1.95
  -1   6  12   15.48    4.42
  -1   6  12    7.62    3.24
   0  -6 -12    0.32    9.05
   0  -6 -12    0.31    6.92
   0   6  12   -1.92    1.24
   0   6  12   -3.85    2.11
   0   6  12    3.88    3.36
  -1  -6 -12   31.70   11.47
  -1  -6 -12   19.54   10.68
   1   6  12   19.15    2.49
   1   6  12   28.00    5.18
   1   6  12   13.93    3.43
  -2  -6 -12    2.63    7.01
  -2  -6 -12    2.72    7.83
   2   6  12    0.01    2.34
   2   6  12   -4.39    2.91
   2   6  12    1.28    1.52
  -3  -6 -12   22.39    9.79
   3   6  12   18.02    2.53
   3   6  12   19.85    4.86
   3   6  12   16.36    3.40
  -4  -6 -12   -2.70    6.18
   4   6  12   -0.14    1.55
   4   6  12   -2.77    3.55
  -5  -6 -12   13.15    8.50
   5   6  12   12.80    2.65
   5   6  12    4.61    3.85
  -6  -6 -12    7.80    7.19
   6   6  12    6.28    4.42
   2  -7 -12   12.81    8.36
   2  -7 -12   10.86   14.81
   1  -7 -12   -5.60    6.14
   1  -7 -12    3.93   13.61
  -1   7  12   -4.58    2.65
  -1   7  12   -0.57    3.34
   0  -7 -12    7.01   11.30
   0  -7 -12   16.97    9.84
   0   7  12    2.61    3.36
   0   7  12    8.92    3.33
  -1  -7 -12    4.67    7.11
  -1  -7 -12    0.36    9.14
   1   7  12   -2.87    2.51
   1   7  12    0.98    1.43
   1   7  12    0.60    3.06
  -2  -7 -12   26.04   10.62
   2   7  12   13.20    2.21
   2   7  12   11.69    3.25
   2   7  12   10.42    3.92
  -3  -7 -12    0.00    6.40
   3   7  12   -1.05    1.46
   3   7  12    7.29    3.87
  -4  -7 -12   12.03    8.50
   4   7  12   10.60    2.27
   4   7  12    9.10    4.10
   5   7  12    3.08    1.82
   1  -8 -12   -4.78   12.52
  -1   8  12    0.16    3.22
   0  -8 -12   -6.95   10.06
   0   8  12   -2.54    2.63
  -1  -8 -12    7.03   11.82
   1   8  12    5.57    3.23
   0   4 -13    0.38    5.50
   0  -4  13   -1.09    1.65
  -1   4 -13   -3.81    6.75
   1  -4  13    2.58    1.84
  -1  -3  13    7.31    2.25
   0   3 -13    1.10    5.20
   0   3 -13    3.22    2.89
   0  -3  13    1.51    1.71
  -1   3 -13   12.27    6.61
  -1   3 -13   10.81    3.60
  -1   3 -13    7.73    3.06
   1  -3  13    7.62    2.23
  -2   3 -13   -2.84    5.55
  -2   3 -13   -1.88    7.36
  -2   3 -13   -0.52    2.50
   2  -3  13   -1.63    1.61
  -3   3 -13   12.96    3.41
   3  -3  13    8.62    2.46
   1   2 -13    0.48    2.70
   1   2 -13    4.01    2.68
  -1  -2  13    1.91    1.86
   0   2 -13    9.60    5.61
   0   2 -13   10.30    3.13
   0   2 -13    6.45    3.27
   0  -2  13    7.87    2.03
  -1   2 -13   -1.61    5.01
  -1   2 -13   -1.87    2.28
  -1   2 -13    1.41    2.58
   1  -2  13   -2.08    1.49
  -2   2 -13   12.60    3.21
  -2   2 -13   18.28    7.22
  -2   2 -13   17.01    3.80
   2  -2  13   16.19    2.96
  -3   2 -13    0.11    2.32
  -3   2 -13    2.95    6.27
   3  -2  13   -0.95    1.71
   4  -2  13    8.50    2.65
   2   1 -13    1.09    2.47
   2   1 -13    0.21    2.80
  -2  -1  13    0.87    2.66
  -2  -1  13    3.19    1.97
   1   1 -13   11.33    3.52
   1   1 -13   20.44    3.73
  -1  -1  13   13.80    3.42
  -1  -1  13   14.83    2.60
   0   1 -13    0.66    2.35
   0   1 -13    3.71    4.71
   0   1 -13    0.57    2.32
   0  -1  13    1.24    1.74
  -1   1 -13   18.77    3.58
  -1   1 -13   14.61    3.65
  -1   1 -13   26.20    7.80
   1  -1  13   16.78    2.83
  -2   1 -13    5.50    2.54
  -2   1 -13    4.57    5.29
   2  -1  13    3.66    1.88
  -3   1 -13   27.22    9.18
  -3   1 -13   13.29    3.28
   3  -1  13   15.15    3.02
  -4   1 -13   -2.39    2.41
  -4   1 -13    2.48    6.68
   4  -1  13   -3.64    1.67
   3   0 -13    1.34    2.64
   3   0 -13   -1.14    2.35
  -3   0  13   -0.04    2.74
   2   0 -13   13.33    2.94
   2   0 -13    9.74    3.61
  -2   0  13   14.21    2.55
  -2   0  13   11.73    3.52
   1   0 -13   -0.15    2.03
   1   0 -13   -0.38    2.21
  -1   0  13   -0.20    1.75
  -1   0  13    1.59    2.72
   0   0 -13   24.74    6.51
   0   0 -13   14.07    3.54
   0   0 -13   14.84    3.06
   0   0  13   14.60    2.42
   0   0  13    8.83    3.36
  -1   0 -13   11.96    5.84
  -1   0 -13    3.66    2.35
   1   0  13    7.01    2.13
  -2   0 -13   20.28    3.52
  -2   0 -13   36.70    8.96
   2   0  13   16.91    2.88
  -3   0 -13    5.72    2.79
  -3   0 -13    6.19    5.86
   3   0  13    0.91    2.07
  -4   0 -13    5.07    2.60
  -4   0 -13   13.44    8.22
   4   0  13    9.91    2.51
  -5   0 -13   15.12    8.89
  -5   0 -13    6.10    9.23
   4  -1 -13    1.78    2.43
   3  -1 -13   13.71    3.08
   3  -1 -13   11.89    3.52
  -3   1  13    8.93    2.50
  -3   1  13    5.77    3.78
   2  -1 -13    1.95    2.34
   2  -1 -13    3.19    2.55
  -2   1  13   -0.27    2.94
  -2   1  13    2.42    1.72
   1  -1 -13   13.58    2.84
  -1   1  13   10.43    3.37
  -1   1  13   12.16    2.26
   0  -1 -13   10.44    2.65
   0   1  13    3.30    4.02
   0   1  13    9.25    2.25
   0   1  13    6.57    2.98
  -1  -1 -13   22.08    3.31
   1   1  13   17.29    3.86
   1   1  13   22.86    3.06
  -2  -1 -13   14.84    3.09
  -2  -1 -13   26.76    8.00
   2   1  13    8.90    2.27
  -3  -1 -13   29.54   11.83
  -3  -1 -13   27.83    8.36
  -3  -1 -13   13.12    3.10
   3   1  13    8.15    2.41
  -4  -1 -13   31.79   12.01
  -4  -1 -13   25.56    8.92
  -4  -1 -13   11.50    2.90
   4   1  13   12.74    2.88
  -5  -1 -13    1.72    2.27
  -5  -1 -13    9.71    7.55
  -5  -1 -13   -2.58    7.73
   5   1  13    3.68    2.42
   4  -2 -13    9.71    2.92
   3  -2 -13    3.40    2.45
  -3   2  13   -2.47    3.53
  -3   2  13   -1.79    4.02
  -3   2  13    3.14    1.87
   2  -2 -13    9.27    2.72
  -2   2  13    6.94    3.49
  -2   2  13    0.74    4.01
  -2   2  13    7.63    2.22
   1  -2 -13   14.63    2.95
  -1   2  13   12.46    5.01
  -1   2  13   14.83    2.52
  -1   2  13   12.35    3.61
   0  -2 -13    9.77    2.70
   0   2  13    8.64    4.84
   0   2  13   11.49    2.24
   0   2  13    9.46    3.13
  -1  -2 -13   22.86    3.29
   1   2  13   19.04    4.02
   1   2  13   24.89    3.09
   1   2  13   19.60    5.35
  -2  -2 -13   13.70   10.35
  -2  -2 -13   12.81    5.70
  -2  -2 -13    5.56    2.54
   2   2  13    3.95    1.87
   2   2  13    5.11    2.62
   2   2  13    5.14    4.25
  -3  -2 -13   39.38   13.46
  -3  -2 -13   24.95    7.92
  -3  -2 -13   13.17    2.82
   3   2  13    8.00    2.51
   3   2  13   10.78    5.06
  -4  -2 -13    0.95    8.23
  -4  -2 -13    1.48    2.22
  -4  -2 -13    6.11    6.50
   4   2  13    1.33    2.08
  -5  -2 -13   27.87   11.29
  -5  -2 -13   12.42    3.16
  -5  -2 -13   25.21    9.20
   5   2  13   12.16    2.84
   4  -3 -13    7.49   10.51
   4  -3 -13    0.06    2.46
  -4   3  13    0.88    5.13
   3  -3 -13    8.16    2.60
   3  -3 -13    6.25   10.41
  -3   3  13    0.67    4.70
  -3   3  13    3.06    2.09
   2  -3 -13   15.13    2.81
   2  -3 -13   31.41   12.44
  -2   3  13    9.93    3.73
  -2   3  13    4.68    4.26
  -2   3  13   10.07    2.32
   1  -3 -13    5.21    2.37
   1  -3 -13   17.65   11.10
  -1   3  13    2.99    3.80
  -1   3  13    0.26    2.82
  -1   3  13    4.18    1.87
   0  -3 -13   21.45    3.12
   0  -3 -13   59.07   14.66
   0   3  13   22.46    5.62
   0   3  13   19.23    4.00
   0   3  13   19.36    2.78
  -1  -3 -13    5.75    2.33
  -1  -3 -13   16.70   10.27
   1   3  13    9.16    4.26
   1   3  13    5.08    2.00
   1   3  13    7.82    3.00
  -2  -3 -13   28.53    6.95
  -2  -3 -13   11.56    2.57
  -2  -3 -13   33.05   12.18
   2   3  13   11.03    2.38
   2   3  13   15.50    5.18
   2   3  13   10.74    3.32
  -3  -3 -13    2.43    2.10
  -3  -3 -13    4.03    9.12
  -3  -3 -13    4.01    5.67
   3   3  13    2.98    1.95
   3   3  13   -4.10    4.02
  -4  -3 -13   16.53    2.93
  -4  -3 -13   50.48   14.05
   4   3  13   11.59    5.14
   4   3  13   18.51    3.10
  -5  -3 -13    0.47    6.08
  -5  -3 -13   -2.76    5.97
   5   3  13   -1.02    2.07
  -6  -3 -13   22.65   10.77
   3  -4 -13    6.36   10.41
   3  -4 -13  -13.65   12.10
  -3   4  13    4.33    2.11
  -3   4  13    1.85    4.45
   2  -4 -13    2.56    2.00
   2  -4 -13    4.95    9.99
  -2   4  13    2.21    1.69
  -2   4  13    5.93    4.27
  -2   4  13   -5.17    2.81
   1  -4 -13   29.81    3.35
   1  -4 -13   68.09   16.22
  -1   4  13   21.37    5.23
  -1   4  13   22.68    2.90
  -1   4  13   25.81    4.74
   0  -4 -13    2.46    1.95
   0  -4 -13    4.09    9.14
   0   4  13   -0.45    2.65
   0   4  13    1.58    1.55
   0   4  13    0.32    3.36
  -1  -4 -13   51.87   14.77
  -1  -4 -13   18.58    2.81
   1   4  13   11.38    4.28
   1   4  13   19.15    2.70
   1   4  13   19.11    3.74
  -2  -4 -13    2.86    7.71
  -2  -4 -13    1.00    1.85
  -2  -4 -13   -0.81    7.77
   2   4  13   -2.27    3.76
   2   4  13   -0.89    1.44
   2   4  13    1.36    2.26
  -3  -4 -13   16.97    2.85
  -3  -4 -13   39.58   12.90
   3   4  13   17.74    2.77
   3   4  13   11.61    4.86
   3   4  13   17.48    3.48
  -4  -4 -13    4.17    7.22
   4   4  13   -0.07    1.89
   4   4  13    2.50    4.47
  -5  -4 -13   18.99    2.75
  -5  -4 -13   39.61   12.69
   5   4  13   12.72    2.86
  -6  -4 -13    6.70    7.42
   3  -5 -13    5.85   15.64
   3  -5 -13    0.08    7.88
  -3   5  13   -0.29    1.87
   2  -5 -13   36.08   12.44
   2  -5 -13   20.45   16.56
  -2   5  13   11.92    4.35
  -2   5  13   13.14    4.95
  -2   5  13   18.79    2.64
   1  -5 -13    0.91   13.14
   1  -5 -13   -4.19    6.89
  -1   5  13   -0.96    1.47
  -1   5  13   -6.54    2.62
  -1   5  13   -0.29    3.66
   0  -5 -13   25.75   12.95
   0  -5 -13   34.76   12.49
   0   5  13   18.05    4.82
   0   5  13   18.22    2.48
   0   5  13   17.35    3.99
  -1  -5 -13   -2.15    1.42
  -1  -5 -13   -3.54    6.96
  -1  -5 -13   -1.41    8.57
   1   5  13   -3.50    2.55
   1   5  13    1.92    3.41
   1   5  13   -0.37    1.53
  -2  -5 -13   40.73   13.13
  -2  -5 -13   17.42    2.59
   2   5  13   18.70    3.77
   2   5  13   17.71    2.73
   2   5  13   16.16    5.18
  -3  -5 -13   -0.84    7.21
   3   5  13    0.22    1.59
   3   5  13   -0.42    3.36
   3   5  13    4.66    2.31
  -4  -5 -13   24.84   10.37
  -4  -5 -13   13.70    2.18
   4   5  13    7.25    4.98
   4   5  13   12.20    2.62
  -5  -5 -13    2.01    6.96
  -5  -5 -13    2.52    1.61
   5   5  13   -0.48    4.21
   5   5  13    0.31    2.16
   2  -6 -13   -0.24   13.64
   2  -6 -13   -0.66    7.33
  -2   6  13   -1.57    1.58
   1  -6 -13    3.55   12.79
   1  -6 -13   23.49   11.19
  -1   6  13   14.30    2.20
  -1   6  13    7.89    3.56
  -1   6  13    5.16    4.45
   0  -6 -13    0.31    8.06
   0  -6 -13   -1.57   10.60
   0   6  13    3.39    3.43
   0   6  13   -0.48    1.51
  -1  -6 -13    3.11    9.60
  -1  -6 -13   17.11   10.17
   1   6  13    9.59    2.08
   1   6  13    4.54    3.16
   1   6  13    5.35    3.63
  -2  -6 -13    1.62    7.67
   2   6  13    2.18    1.60
   2   6  13    2.60    2.54
   2   6  13    3.39    4.06
  -3  -6 -13   18.09    9.95
   3   6  13   10.04    4.95
   3   6  13   11.78    2.39
  -4  -6 -13    1.12    7.17
   4   6  13    2.85    2.03
   4   6  13   -2.06    3.57
   5   6  13    8.49    4.80
   1  -7 -13    1.65   13.17
   0  -7 -13    2.92   12.24
   0   7  13    1.05    3.05
  -1  -7 -13    0.86    9.65
   1   7  13    2.32    1.69
   1   7  13    4.94    3.81
   1   7  13   -3.66    2.51
   2   7  13   10.19    4.57
   2   7  13   12.66    2.32
   3   7  13    4.54    1.98
   3   7  13    3.35    3.58
   4   7  13    6.71    2.24
  -1  -8 -13    9.92   11.62
  -1   2 -14   -2.74    5.19
  -2   2 -14    5.96    6.84
   0   1 -14    2.59    3.27
   0  -1  14   -0.66    1.63
  -1   1 -14   11.74    6.66
  -1   1 -14    7.60    3.25
  -1   1 -14    4.92    2.86
   1  -1  14   11.68    2.63
  -2   1 -14    9.29    7.10
   2  -1  14    4.71    2.32
  -3   1 -14   25.61    9.17
   1   0 -14    2.65    2.70
   1   0 -14    0.99    2.22
  -1   0  14    4.09    2.85
  -1   0  14    0.73    2.07
   0   0 -14    3.94    2.79
   0   0 -14    5.69    2.92
   0   0  14    6.40    2.82
   0   0  14    5.27    2.14
  -1   0 -14    7.90    5.93
  -1   0 -14    8.98    2.95
   1   0  14    6.12    2.26
  -2   0 -14   13.80    3.24
  -2   0 -14   11.58    6.99
   2   0  14    9.92    2.76
  -3   0 -14   18.62    8.09
  -3   0 -14   11.74    3.13
   3   0  14    7.02    2.57
  -4   0 -14    9.91   11.48
  -4   0 -14   11.24    8.45
   2  -1 -14    9.12    2.98
   1  -1 -14    8.46    2.86
  -1   1  14    7.01    3.11
  -1   1  14    5.11    1.98
   0  -1 -14    5.44    2.68
   0   1  14   10.20    3.21
   0   1  14    4.77    1.96
  -1  -1 -14    6.30    2.62
   1   1  14    5.37    2.70
   1   1  14    5.09    1.92
  -2  -1 -14   14.92    3.33
   2   1  14    8.50    2.36
  -3  -1 -14    4.01    2.42
  -3  -1 -14   10.03    6.85
  -3  -1 -14   15.48   11.65
   3   1  14    2.17    2.09
  -4  -1 -14    9.79   11.19
  -4  -1 -14   20.37    8.92
  -5  -1 -14   -9.92    7.94
   2  -2 -14    6.57    2.74
   1  -2 -14    6.11    2.67
  -1   2  14    9.04    3.33
  -1   2  14    6.82    2.20
   0  -2 -14    1.46    2.10
   0   2  14    1.27    1.72
   0   2  14    6.25    4.98
   0   2  14    4.80    2.87
  -1  -2 -14   17.72    3.20
   1   2  14   15.42    3.67
   1   2  14   19.88    3.00
  -2  -2 -14    2.21    5.01
  -2  -2 -14    0.14    9.72
  -2  -2 -14    0.22    2.14
   2   2  14    2.87    1.87
  -3  -2 -14   25.32    8.62
  -3  -2 -14   25.95   12.11
  -3  -2 -14   12.20    3.05
   3   2  14    8.67    2.50
  -4  -2 -14   -2.79    6.06
  -4  -2 -14   -0.89    8.33
  -4  -2 -14    3.24    2.68
  -5  -2 -14   22.03   11.40
   2  -3 -14   14.50   12.80
   2  -3 -14    5.02    2.57
  -2   3  14    6.04    5.00
  -2   3  14    4.67    2.04
   1  -3 -14    0.10    9.90
   1  -3 -14    0.41    2.14
  -1   3  14    0.56    1.76
  -1   3  14   -2.39    3.77
  -1   3  14   -2.54    2.89
   0  -3 -14   61.38   16.06
   0  -3 -14   22.39    3.29
   0   3  14   16.71    2.66
   0   3  14   12.17    4.85
   0   3  14   20.01    4.09
  -1  -3 -14    0.65    2.13
  -1  -3 -14    0.73    9.17
   1   3  14   -2.82    3.84
   1   3  14   -0.39    1.63
   1   3  14    4.92    2.98
  -2  -3 -14   44.94   14.55
  -2  -3 -14   15.44    2.97
   2   3  14   16.90    3.58
   2   3  14    7.23    5.33
   2   3  14   13.40    2.61
  -3  -3 -14   -2.96    2.05
  -3  -3 -14   -4.83    8.66
  -3  -3 -14   -0.49    5.18
   3   3  14    1.54    2.10
  -4  -3 -14   15.62    3.25
  -4  -3 -14   27.03   12.14
  -4  -3 -14   32.13    9.53
   4   3  14   12.68    3.16
  -5  -3 -14    4.85    7.19
  -5  -3 -14    3.71    8.45
  -2   4  14   -1.86    1.94
  -2   4  14   -6.85    4.06
   1  -4 -14   33.48   14.23
   1  -4 -14   12.89    2.58
  -1   4  14    7.67    4.08
  -1   4  14    6.66    4.83
  -1   4  14   13.73    2.50
   0  -4 -14   -0.97    1.89
   0  -4 -14   -3.83    8.69
   0   4  14    0.11    1.76
   0   4  14   -0.02    3.95
   0   4  14   -4.32    2.78
  -1  -4 -14   18.88    2.96
  -1  -4 -14   35.47   13.31
   1   4  14   16.24    3.69
   1   4  14   15.73    2.69
   1   4  14   10.61    4.87
  -2  -4 -14   -5.68    7.84
  -2  -4 -14    1.88    1.97
   2   4  14   -1.97    3.98
   2   4  14    1.85    2.61
   2   4  14   -0.52    1.76
  -3  -4 -14   18.73    3.09
  -3  -4 -14   29.69   12.28
   3   4  14    8.49    2.32
   3   4  14    7.32    4.68
  -4  -4 -14    6.51    8.28
   4   4  14    2.78    2.37
   4   4  14    2.62    4.58
   2  -5 -14    3.49   16.26
   1  -5 -14   -7.44   12.69
  -1   5  14    1.21    1.78
  -1   5  14   -5.44    3.65
   0  -5 -14    5.66   11.47
   0  -5 -14   25.96   12.09
   0   5  14    2.87    3.30
   0   5  14   10.96    4.45
   0   5  14   12.26    2.42
  -1  -5 -14   -1.40    9.29
  -1  -5 -14   -2.65    8.01
   1   5  14   -1.61    2.57
   1   5  14    1.00    1.74
   1   5  14   -1.08    3.59
  -2  -5 -14   22.94   11.42
   2   5  14    4.80    4.24
   2   5  14    8.97    3.10
   2   5  14    6.77    2.07
  -3  -5 -14    1.21    8.00
   3   5  14    2.98    2.07
   3   5  14   -1.75    3.78
   4   5  14    6.90    4.83
   1  -6 -14   12.85   14.37
  -1   6  14    4.40    1.95
   0  -6 -14   -2.44   10.58
   0   6  14   -0.59    1.65
   0   6  14   -1.74    3.73
  -1  -6 -14   -0.83    9.45
   1   6  14    5.90    3.32
   1   6  14    6.75    2.05
   1   6  14    5.94    4.62
   2   6  14    3.32    1.98
   2   6  14   -0.93    3.92
   2   6  14    3.80    2.72
   3   6  14    6.54    2.13
   3   6  14    7.76    4.82
   4   6  14    2.46    4.78
  -1  -7 -14    0.27    9.99
   1   7  14   -3.72    3.15
   2   7  14    0.14    1.68
  -3   0 -15   23.57    9.79
  -3  -1 -15   -0.56    6.60
   0  -2 -15    4.42    2.58
  -1  -2 -15   11.49    3.11
   1   2  15   12.72    3.47
  -2  -2 -15    0.24    2.44
   1  -3 -15    4.23    2.49
   0  -3 -15   11.79    2.96
  -1  -3 -15    2.77    2.26
   1   3  15    3.72    2.86
  -2  -3 -15   21.07    3.46
   2   3  15   16.42    3.71
  -3  -3 -15    2.66    2.49
  -4  -3 -15   14.81    7.54
  -1   4  15   -7.97    3.67
   0  -4 -15   -2.17    1.98
   0   4  15    5.37    4.37
  -1  -4 -15    6.88   11.32
  -1  -4 -15    7.45    2.54
   1   4  15   14.16    3.53
   1   4  15   11.56    5.03
  -2  -4 -15    0.94    2.16
   2   4  15    0.14    4.33
   2   4  15    5.30    2.64
  -3  -4 -15    3.03    2.51
   0  -5 -15    3.05   12.08
   0   5  15    5.86    4.67
  -1  -5 -15   -1.76    9.76
   1   5  15   -0.86    3.96
   1   5  15    2.97    2.89
   2   5  15    3.95    4.83
   3   5  15    3.27    4.89
   0   0   0    0.00    0.00
;
_shelx_hkl_checksum              59281
#END Tags that were not found in dictionaries
loop_
_space_group_symop_operation_xyz
'x, y, z'
'-x, -y, -z'
loop_
_atom_site_label
_atom_site_type_symbol
_atom_site_fract_x
_atom_site_fract_y
_atom_site_fract_z
_atom_site_U_iso_or_equiv
_atom_site_adp_type
_atom_site_occupancy
_atom_site_site_symmetry_order
_atom_site_calc_flag
_atom_site_refinement_flags_posn
_atom_site_refinement_flags_adp
Au1 Au 0.23747(3) 0.71233(3) -0.04298(2) 0.02942(7) Uani 1 1 d . .
Cl1 Cl 0.4369(2) 0.82906(18) -0.22223(12) 0.0402(3) Uani 1 1 d . .
C1 C 0.0718(8) 0.6112(7) 0.1136(5) 0.0304(12) Uani 1 1 d . .
C2 C 0.1222(8) 0.4841(7) 0.2155(5) 0.0307(12) Uani 1 1 d . .
H2 H 0.2555 0.4216 0.2259 0.037 Uiso 1 1 calc R U
N1 N -0.1355(6) 0.6566(5) 0.1474(4) 0.0273(9) Uani 1 1 d . .
N2 N -0.2122(6) 0.5686(5) 0.2592(4) 0.0304(10) Uani 1 1 d . .
N3 N -0.0505(6) 0.4626(5) 0.2990(4) 0.0280(10) Uani 1 1 d . .
C3 C -0.2768(7) 0.7837(7) 0.0726(5) 0.0378(14) Uani 1 1 d . .
H3A H -0.4181 0.7827 0.1169 0.057 Uiso 1 1 calc R U
H3B H -0.2770 0.7510 -0.0082 0.057 Uiso 1 1 calc R U
H3C H -0.2304 0.9030 0.0588 0.057 Uiso 1 1 calc R U
C4 C -0.0750(7) 0.3468(7) 0.4201(5) 0.0284(11) Uani 1 1 d . .
C5 C -0.2747(8) 0.3267(7) 0.4816(5) 0.0388(14) Uani 1 1 d . .
H5 H -0.3934 0.3876 0.4441 0.047 Uiso 1 1 calc R U
C6 C -0.2965(9) 0.2153(8) 0.5990(6) 0.0470(16) Uani 1 1 d . .
H6 H -0.4312 0.2004 0.6433 0.056 Uiso 1 1 calc R U
C7 C -0.1235(9) 0.1264(7) 0.6514(5) 0.0417(14) Uani 1 1 d . .
H7 H -0.1399 0.0509 0.7320 0.050 Uiso 1 1 calc R U
C8 C 0.0734(9) 0.1453(7) 0.5885(5) 0.0404(14) Uani 1 1 d . .
H8 H 0.1917 0.0823 0.6253 0.049 Uiso 1 1 calc R U
C9 C 0.0977(8) 0.2559(7) 0.4723(5) 0.0345(13) Uani 1 1 d . .
H9 H 0.2329 0.2696 0.4283 0.041 Uiso 1 1 calc R U
loop_
_atom_site_aniso_label
_atom_site_aniso_U_11
_atom_site_aniso_U_22
_atom_site_aniso_U_33
_atom_site_aniso_U_23
_atom_site_aniso_U_13
_atom_site_aniso_U_12
Au1 0.02904(11) 0.02963(13) 0.03005(12) -0.00695(8) -0.00556(8) -0.00060(8)
Cl1 0.0399(8) 0.0398(9) 0.0335(8) -0.0002(6) 0.0007(6) 0.0061(6)
C1 0.031(3) 0.025(3) 0.041(3) -0.018(2) -0.009(2) -0.002(2)
C2 0.027(3) 0.031(3) 0.034(3) -0.007(2) -0.002(2) -0.001(2)
N1 0.028(2) 0.026(2) 0.030(2) -0.0096(19) -0.0071(18) 0.0011(18)
N2 0.025(2) 0.030(3) 0.036(3) -0.007(2) -0.0033(19) 0.0009(18)
N3 0.025(2) 0.024(2) 0.036(3) -0.0077(19) -0.0045(19) 0.0012(17)
C3 0.034(3) 0.036(4) 0.041(3) -0.006(3) -0.012(2) 0.009(2)
C4 0.028(3) 0.031(3) 0.030(3) -0.012(2) -0.004(2) -0.006(2)
C5 0.034(3) 0.037(4) 0.043(4) -0.006(3) -0.003(3) 0.002(2)
C6 0.040(3) 0.047(4) 0.050(4) -0.006(3) 0.004(3) -0.006(3)
C7 0.062(4) 0.035(4) 0.027(3) -0.003(3) -0.005(3) -0.008(3)
C8 0.053(4) 0.028(3) 0.042(4) -0.007(3) -0.017(3) -0.001(3)
C9 0.030(3) 0.033(3) 0.042(3) -0.012(3) -0.005(2) -0.002(2)
loop_
_atom_type_symbol
_atom_type_description
_atom_type_scat_dispersion_real
_atom_type_scat_dispersion_imag
_atom_type_scat_source
C C 0.0033 0.0016 'International Tables Vol C Tables 4.2.6.8 and 6.1.1.4'
H H 0.0000 0.0000 'International Tables Vol C Tables 4.2.6.8 and 6.1.1.4'
N N 0.0061 0.0033 'International Tables Vol C Tables 4.2.6.8 and 6.1.1.4'
Cl Cl 0.1484 0.1585 'International Tables Vol C Tables 4.2.6.8 and 6.1.1.4'
Au Au -2.0133 8.8022 'International Tables Vol C Tables 4.2.6.8 and 6.1.1.4'
loop_
_geom_angle_atom_site_label_1
_geom_angle_atom_site_label_2
_geom_angle_atom_site_label_3
_geom_angle
C1 Au1 Cl1 178.59(15)
C2 C1 N1 101.7(4)
C2 C1 Au1 131.9(4)
N1 C1 Au1 126.4(4)
N3 C2 C1 108.3(4)
N2 N1 C1 114.8(4)
N2 N1 C3 118.2(4)
C1 N1 C3 126.9(4)
N3 N2 N1 103.1(4)
N2 N3 C2 112.1(4)
N2 N3 C4 118.8(4)
C2 N3 C4 129.1(4)
C9 C4 C5 121.3(5)
C9 C4 N3 119.9(4)
C5 C4 N3 118.8(5)
C6 C5 C4 118.3(5)
C7 C6 C5 120.2(5)
C6 C7 C8 120.9(5)
C9 C8 C7 119.7(5)
C8 C9 C4 119.7(5)
loop_
_geom_bond_atom_site_label_1
_geom_bond_atom_site_label_2
_geom_bond_distance
Au1 C1 1.962(5)
Au1 Cl1 2.2792(13)
C1 C2 1.369(7)
C1 N1 1.375(6)
C2 N3 1.353(6)
N1 N2 1.332(5)
N1 C3 1.458(6)
N2 N3 1.317(5)
N3 C4 1.435(6)
C4 C9 1.378(7)
C4 C5 1.390(6)
C5 C6 1.388(7)
C6 C7 1.375(7)
C7 C8 1.378(7)
C8 C9 1.376(7)
