#------------------------------------------------------------------------------
#$Date: 2017-03-18 05:22:08 +0200 (Sat, 18 Mar 2017) $
#$Revision: 194345 $
#$URL: file:///home/coder/svn-repositories/cod/cif/1/54/55/1545594.cif $
#------------------------------------------------------------------------------
#
# This file is available in the Crystallography Open Database (COD),
# http://www.crystallography.net/
#
# All data on this site have been placed in the public domain by the
# contributors.
#
data_1545594
loop_
_publ_author_name
'Haddad, Jibreel'
'Whitehead, George F. S.'
'Katsoulidis, Alexandros'
'Rosseinsky, Matthew J.'
_publ_section_title
;
 In-MOFs based on amide functionalised flexible linkers
;
_journal_name_full               'Faraday Discuss.'
_journal_paper_doi               10.1039/C7FD00085E
_journal_year                    2017
_chemical_formula_moiety         'C12 H11 In N2 O7'
_chemical_formula_sum            'C12 H11 In N2 O7'
_chemical_formula_weight         410.05
_space_group_crystal_system      triclinic
_space_group_IT_number           2
_space_group_name_Hall           '-P 1'
_space_group_name_H-M_alt        'P -1'
_symmetry_space_group_name_Hall  '-P 1'
_symmetry_space_group_name_H-M   'P -1'
_atom_sites_solution_hydrogens   geom
_atom_sites_solution_primary     dual
_audit_creation_date             2017-02-10
_audit_creation_method
;
Olex2 1.2
(compiled 2017.01.04 svn.r3372 for OlexSys, GUI svn.r5292)
;
_audit_update_record
;
2017-02-24 deposited with the CCDC.
2017-03-17 downloaded from the CCDC.
;
_cell_angle_alpha                77.815(7)
_cell_angle_beta                 78.748(5)
_cell_angle_gamma                85.773(5)
_cell_formula_units_Z            2
_cell_length_a                   7.2372(4)
_cell_length_b                   10.1596(8)
_cell_length_c                   11.8645(8)
_cell_measurement_reflns_used    2896
_cell_measurement_temperature    100
_cell_measurement_theta_max      26.2950
_cell_measurement_theta_min      1.7790
_cell_volume                     835.84(10)
_computing_cell_refinement       'CrysAlisPro 1.171.38.43 (Rigaku OD, 2015)'
_computing_data_collection       'CrysAlisPro 1.171.38.43 (Rigaku OD, 2015)'
_computing_data_reduction        'CrysAlisPro 1.171.38.43 (Rigaku OD, 2015)'
_computing_molecular_graphics    'Olex2 (Dolomanov et al., 2009)'
_computing_publication_material  'Olex2 (Dolomanov et al., 2009)'
_computing_structure_refinement  'ShelXL (Sheldrick, 2015)'
_computing_structure_solution    'ShelXT (Sheldrick, 2015)'
_diffrn_ambient_temperature      100
_diffrn_detector                 'CCD plate'
_diffrn_measured_fraction_theta_full 1.000
_diffrn_measured_fraction_theta_max 1.000
_diffrn_measurement_details
;
List of Runs (angles in degrees, time in seconds):

  # Type    Start    End  Width  t~exp~   \w     \q     \k     \f   Frames
#--------------------------------------------------------------------------
  1  \w   -110.00  15.00   1.00   60.00    --  -20.00 -68.00   0.00  125
  2  \w   -110.00  15.00   1.00   60.00    --  -20.00 -68.00 120.00  125
  3  \w   -110.00  15.00   1.00   60.00    --  -20.00 -68.00 240.00  125
  4  \w   -110.00  15.00   1.00   60.00    --  -20.00 -30.00  90.00  125
;
_diffrn_measurement_device       'abstract diffractometer'
_diffrn_measurement_device_type
'dtrek-CrysAlisPro-abstract goniometer imported rigaku-d*trek images'
_diffrn_measurement_method       '\w scans'
_diffrn_orient_matrix_type
'CrysAlisPro convention (1999,Acta A55,543-557)'
_diffrn_orient_matrix_UB_11      -0.0419325000
_diffrn_orient_matrix_UB_12      -0.0258361000
_diffrn_orient_matrix_UB_13      0.0590596000
_diffrn_orient_matrix_UB_21      0.0024566000
_diffrn_orient_matrix_UB_22      -0.0653833000
_diffrn_orient_matrix_UB_23      -0.0126075000
_diffrn_orient_matrix_UB_31      0.0907355000
_diffrn_orient_matrix_UB_32      -0.0128420000
_diffrn_orient_matrix_UB_33      0.0150043000
_diffrn_radiation_monochromator  graphite
_diffrn_radiation_probe          x-ray
_diffrn_radiation_type           MoK\a
_diffrn_radiation_wavelength     0.71073
_diffrn_reflns_av_R_equivalents  0.0888
_diffrn_reflns_av_unetI/netI     0.1213
_diffrn_reflns_Laue_measured_fraction_full 1.000
_diffrn_reflns_Laue_measured_fraction_max 1.000
_diffrn_reflns_limit_h_max       6
_diffrn_reflns_limit_h_min       -9
_diffrn_reflns_limit_k_max       12
_diffrn_reflns_limit_k_min       -12
_diffrn_reflns_limit_l_max       14
_diffrn_reflns_limit_l_min       -14
_diffrn_reflns_number            9533
_diffrn_reflns_point_group_measured_fraction_full 1.000
_diffrn_reflns_point_group_measured_fraction_max 1.000
_diffrn_reflns_theta_full        25.242
_diffrn_reflns_theta_max         26.370
_diffrn_reflns_theta_min         1.787
_diffrn_source                   'fine-focus sealed X-ray tube'
_diffrn_source_type              'Enhance (Mo) X-ray Source'
_exptl_absorpt_coefficient_mu    1.446
_exptl_absorpt_correction_T_max  1.00000
_exptl_absorpt_correction_T_min  0.78461
_exptl_absorpt_correction_type   multi-scan
_exptl_absorpt_process_details
;
CrysAlisPro 1.171.38.43 (Rigaku Oxford Diffraction, 2015)
Empirical absorption correction using spherical harmonics,
 implemented in SCALE3 ABSPACK scaling algorithm.
;
_exptl_crystal_colour            'clear colourless'
_exptl_crystal_colour_lustre     clear
_exptl_crystal_colour_primary    colourless
_exptl_crystal_density_diffrn    1.629
_exptl_crystal_description       block
_exptl_crystal_F_000             404
_exptl_crystal_size_max          0.2
_exptl_crystal_size_mid          0.05
_exptl_crystal_size_min          0.05
_refine_diff_density_max         2.580
_refine_diff_density_min         -1.411
_refine_diff_density_rms         0.194
_refine_ls_extinction_method     none
_refine_ls_goodness_of_fit_ref   0.984
_refine_ls_hydrogen_treatment    constr
_refine_ls_matrix_type           full
_refine_ls_number_parameters     202
_refine_ls_number_reflns         3415
_refine_ls_number_restraints     24
_refine_ls_restrained_S_all      0.985
_refine_ls_R_factor_all          0.1162
_refine_ls_R_factor_gt           0.0678
_refine_ls_shift/su_max          0.000
_refine_ls_shift/su_mean         0.000
_refine_ls_structure_factor_coef Fsqd
_refine_ls_weighting_details
'w=1/[\s^2^(Fo^2^)+(0.0894P)^2^] where P=(Fo^2^+2Fc^2^)/3'
_refine_ls_weighting_scheme      calc
_refine_ls_wR_factor_gt          0.1567
_refine_ls_wR_factor_ref         0.1809
_reflns_Friedel_coverage         0.000
_reflns_number_gt                2077
_reflns_number_total             3415
_reflns_threshold_expression     'I > 2\s(I)'
_cod_data_source_file            c7fd00085e2.cif
_cod_data_source_block           c1_jh_pdg_47_2_sq
_cod_database_code               1545594
_shelx_shelxl_version_number     2014/7
_shelx_space_group_comment
;
The symmetry employed for this shelxl refinement is uniquely defined
by the following loop, which should always be used as a source of
symmetry information in preference to the above space-group names.
They are only intended as comments.
;
_reflns_odcompleteness_completeness 99.97
_reflns_odcompleteness_iscentric 1
_reflns_odcompleteness_theta     26.31
_olex2_refinement_description
;
1. Fixed Uiso
 At 1.2 times of:
  All C(H) groups, All C(H,H) groups, All N(H) groups, All O(H) groups
2. Uiso/Uaniso restraints and constraints
Uanis(O003) \\sim Ueq: with sigma of 0.002 and sigma for terminal atoms of 0.004
3. Rigid body (RIGU) restrains
 C00G, C00K, O007, O005
 with sigma for 1-2 distances of 0.004 and sigma for 1-3 distances of 0.004
4.a Secondary CH2 refined with riding coordinates:
 C00C(H00B,H00C), C00G(H00E,H00F)
4.b Aromatic/amide H refined with riding coordinates:
 O003(H003), N006(H006), N00A(H00A), C00D(H00D), C00I(H00I), C00J(H00J),
 C00M(H00M)
;
_shelx_res_file
;
    c1_jh_pdg_47_2_sq.res created by SHELXL-2014/7

TITL c1_jh_pdg_47_2_a.res in P-1
REM Old TITL C1_JH_PDG_47_2 in P1
REM SHELXT solution in P-1
REM R1 0.199, Rweak 0.012, Alpha 0.109, Orientation as input
REM Formula found by SHELXT: C14 N6 O4 In
CELL 0.71073 7.2372 10.1596 11.8645 77.815 78.748 85.773
ZERR 2 0.0004 0.0008 0.0008 0.007 0.005 0.005
LATT 1
SFAC C H In N O
UNIT 24 22 2 4 14
RIGU C00G C00K O007 O005
ISOR 0.002 0.004 O003

L.S. 5 0 39
PLAN  20
TEMP -173.15
BOND $H
list 4
ABIN
fmap 2
acta
REM <olex2.extras>
REM <HklSrc "%.\\C1_JH_PDG_47_2.hkl">
REM </olex2.extras>

WGHT    0.089400
FVAR       0.65966
IN01  3    0.000000    0.000000    1.000000    10.50000    0.00731    0.03639 =
         0.03503   -0.00722   -0.00016   -0.00053
IN02  3    0.500000    0.000000    1.000000    10.50000    0.01161    0.03453 =
         0.03240   -0.00534   -0.00536    0.00088
O003  5    0.223125   -0.020161    1.091325    11.00000    0.02142    0.03465 =
         0.02677   -0.00387   -0.00743   -0.00275
AFIX  43
H003  2    0.198427   -0.038559    1.174664    11.00000   -1.20000
AFIX   0
O004  5    0.535502    0.101323    0.639966    11.00000    0.01925    0.02333 =
         0.04242   -0.00611    0.00611   -0.00536
O005  5    1.861712    0.135146    0.112171    11.00000    0.01351    0.06578 =
         0.05743   -0.03434    0.00240   -0.00027
N006  4    1.475845    0.187683    0.342079    11.00000    0.01934    0.02355 =
         0.02907   -0.00692    0.00506   -0.00400
AFIX  43
H006  2    1.427181    0.107679    0.368433    11.00000   -1.20000
AFIX   0
O007  5    1.550275    0.116466    0.126984    11.00000    0.01431    0.04066 =
         0.03164   -0.00944    0.00171   -0.00170
O008  5    0.130984    0.159924    0.865153    11.00000    0.02468    0.05644 =
         0.04647    0.01326   -0.00708   -0.00599
O009  5    0.430986    0.181298    0.881301    11.00000    0.02544    0.03420 =
         0.03733    0.00278   -0.01374    0.00314
N00A  4    0.507767    0.321173    0.652662    11.00000    0.01747    0.01771 =
         0.03503   -0.00057    0.01054   -0.00272
AFIX  43
H00A  2    0.563280    0.398926    0.636034    11.00000   -1.20000
AFIX   0
O00B  5    1.433732    0.412550    0.335561    11.00000    0.02004    0.02624 =
         0.06720   -0.01329    0.01362   -0.00300
C00C  1    0.313357    0.311414    0.716238    11.00000    0.01757    0.02797 =
         0.03844   -0.00233    0.00289    0.00009
AFIX  23
H00B  2    0.233019    0.287178    0.665567    11.00000   -1.20000
H00C  2    0.267954    0.400587    0.733655    11.00000   -1.20000
AFIX   0
C00D  1    0.939768    0.135605    0.574263    11.00000    0.02087    0.02316 =
         0.02637    0.00087    0.00968    0.00026
AFIX  43
H00D  2    0.906113    0.053609    0.627756    11.00000   -1.20000
AFIX   0
C00E  1    0.292714    0.208837    0.828980    11.00000    0.01316    0.02159 =
         0.04104   -0.01708   -0.00194    0.00181
C00F  1    1.174132    0.271027    0.434016    11.00000    0.01811    0.02040 =
         0.03754   -0.01045    0.00679   -0.00434
C00G  1    1.665921    0.199091    0.272875    11.00000    0.01124    0.03300 =
         0.04430   -0.01499    0.00189   -0.00005
AFIX  23
H00E  2    1.754957    0.149813    0.321909    11.00000   -1.20000
H00F  2    1.698674    0.295193    0.252723    11.00000   -1.20000
AFIX   0
C00H  1    0.803950    0.237178    0.555953    11.00000    0.02276    0.02046 =
         0.02229    0.00343    0.00467   -0.00295
C00I  1    1.037368    0.374317    0.415425    11.00000    0.02454    0.01950 =
         0.03365   -0.00169    0.00687   -0.00442
AFIX  43
H00I  2    1.070623    0.456436    0.362008    11.00000   -1.20000
AFIX   0
C00J  1    0.852335    0.356200    0.475564    11.00000    0.02020    0.02388 =
         0.03615    0.00551    0.00205    0.00524
AFIX  43
H00J  2    0.758887    0.425328    0.461646    11.00000   -1.20000
AFIX   0
C00K  1    1.693437    0.145938    0.161301    11.00000    0.00864    0.02770 =
         0.04798   -0.01241    0.00338    0.00317
C00L  1    0.602255    0.213842    0.619481    11.00000    0.02610    0.02033 =
         0.02535    0.00056    0.00069   -0.00210
C00M  1    1.127062    0.152636    0.514444    11.00000    0.01700    0.02839 =
         0.03314   -0.00663    0.00464    0.00447
AFIX  43
H00M  2    1.220455    0.083656    0.529014    11.00000   -1.20000
AFIX   0
C00O  1    1.373755    0.297635    0.366244    11.00000    0.02081    0.02228 =
         0.04250   -0.01274    0.00315    0.00418
HKLF 4

REM  c1_jh_pdg_47_2_a.res in P-1
REM R1 =  0.0678 for    2077 Fo > 4sig(Fo)  and  0.1162 for all    3415 data
REM    202 parameters refined using     24 restraints

END

WGHT      0.0894      0.0000

REM Highest difference peak  2.580,  deepest hole -1.411,  1-sigma level  0.194
Q1    1   0.0305  0.0239  0.9144  11.00000  0.05    2.58
Q2    1   0.4682 -0.0227  1.0873  11.00000  0.05    2.53
Q3    1   0.4727 -0.0883  0.9867  11.00000  0.05    1.53
Q4    1   0.0303  0.0883  1.0147  11.00000  0.05    1.51
Q5    1   0.0954  0.1145  0.9261  11.00000  0.05    0.79
Q6    1   0.5517  0.1395  0.5611  11.00000  0.05    0.78
Q7    1   0.2861  0.3170  0.8122  11.00000  0.05    0.76
Q8    1   0.4664  0.0481  0.7203  11.00000  0.05    0.67
Q9    1   1.0483  0.1372  0.5561  11.00000  0.05    0.65
Q10   1   0.6208  0.1626  0.8745  11.00000  0.05    0.64
Q11   1   0.3801  0.1598  0.9443  11.00000  0.05    0.62
Q12   1   0.2156 -0.0843  1.0936  11.00000  0.05    0.62
Q13   1   1.1183  0.2025  0.4365  11.00000  0.05    0.61
Q14   1   1.3755  0.4206  0.3724  11.00000  0.05    0.59
Q15   1   0.8741  0.3005  0.5444  11.00000  0.05    0.58
Q16   1   0.5831  0.1199  0.9193  11.00000  0.05    0.58
Q17   1   1.4400  0.3446  0.4014  11.00000  0.05    0.57
Q18   1   0.4853  0.0374  0.6202  11.00000  0.05    0.57
Q19   1   0.1488  0.1885  0.7894  11.00000  0.05    0.55
Q20   1   1.4719 -0.0013  0.1940  11.00000  0.05    0.55
;
_shelx_res_checksum              99053
_shelx_hkl_file
;
  -9  -2  -3  -14.63   53.20
  -9  -2  -3    0.89   41.56
  -9  -1  -4   -9.90   31.50
  -9  -1  -4   27.93   45.26
  -9  -1  -3  -24.31   45.64
  -9  -1  -3   27.77   43.49
  -9  -1  -2   25.32   33.98
  -9  -1  -2    9.81   61.73
  -9   0  -3  -22.44   34.54
  -9   0  -3   28.27   40.45
  -9   0  -3  -16.04   53.48
  -9   0  -2   48.19   46.04
  -9   0  -2   67.65   59.57
  -8  -6  -6  512.88  118.54
  -8  -6  -5  390.44  108.22
  -8  -6  -4  375.03   99.52
  -8  -6  -3  468.11  107.61
  -8  -6  -2  391.46  102.40
  -8  -6  -1  267.18   82.72
  -8  -5  -8  183.57   78.89
  -8  -5  -7  346.95  106.93
  -8  -5  -6  250.07   85.51
  -8  -5  -5  574.74  114.86
  -8  -5  -4  541.21  114.71
  -8  -5  -3  607.99  123.37
  -8  -5  -2  497.38  108.92
  -8  -5  -1  285.23   95.42
  -8  -5  -1  222.75   63.12
  -8  -5   0  214.09   85.52
  -8  -5   0  242.87   81.37
  -8  -5   1  264.81   78.02
  -8  -5   1  390.80  111.95
  -8  -5   1  398.07  110.00
  -8  -4  -8  256.89   89.37
  -8  -4  -7  420.33  111.43
  -8  -4  -6  367.28  102.67
  -8  -4  -5  496.73  110.33
  -8  -4  -4  514.37  116.72
  -8  -4  -4  339.39   72.71
  -8  -4  -3  621.60  115.54
  -8  -4  -3  412.32   89.36
  -8  -4  -2  484.94   97.75
  -8  -4  -2  312.26   87.39
  -8  -4  -1  531.15  107.30
  -8  -4  -1  365.03   92.32
  -8  -4  -1  516.66  112.59
  -8  -4   0  319.81   97.76
  -8  -4   0  356.22   92.38
  -8  -4   0  309.22   91.78
  -8  -4   1  556.36  124.69
  -8  -4   1  558.60  137.28
  -8  -4   1  610.38  111.98
  -8  -4   2   62.32   57.34
  -8  -4   2   85.02   58.91
  -8  -4   2  150.83   61.76
  -8  -3  -9  333.15  100.87
  -8  -3  -8  194.40   80.95
  -8  -3  -7  417.61   99.98
  -8  -3  -6  432.87  106.64
  -8  -3  -5  539.50  103.64
  -8  -3  -4  741.80  125.18
  -8  -3  -4  409.59   80.30
  -8  -3  -3  322.97   80.71
  -8  -3  -3  348.45   90.55
  -8  -3  -3  434.63   89.74
  -8  -3  -2  445.51   89.69
  -8  -3  -2  629.90  112.59
  -8  -3  -2  596.89  128.30
  -8  -3  -1  386.80   76.42
  -8  -3  -1  495.68  119.15
  -8  -3  -1  634.63  108.11
  -8  -3   0  432.37   92.62
  -8  -3   0  452.74  119.21
  -8  -3   0  385.25   95.10
  -8  -3   1  336.61   87.85
  -8  -3   1  487.52  116.52
  -8  -3   1  240.47   73.43
  -8  -3   2  195.93   77.84
  -8  -3   2  206.15   84.60
  -8  -3   2  301.96   81.73
  -8  -3   3  222.57   79.23
  -8  -3   3  263.70   94.14
  -8  -3   3  271.03   95.08
  -8  -2  -9  298.24   85.35
  -8  -2  -9  282.89   96.38
  -8  -2  -8  256.69   84.97
  -8  -2  -8  286.31   86.30
  -8  -2  -7  283.30   76.12
  -8  -2  -7  353.59   86.13
  -8  -2  -7  433.95   76.61
  -8  -2  -6  277.77   86.37
  -8  -2  -6  254.65   59.13
  -8  -2  -6  343.66   87.79
  -8  -2  -5  661.01  121.85
  -8  -2  -5  758.96  123.05
  -8  -2  -5  731.03   89.81
  -8  -2  -4  706.38  113.38
  -8  -2  -4  790.44   90.47
  -8  -2  -4  524.87  100.73
  -8  -2  -3  567.92   77.13
  -8  -2  -3  435.80  100.96
  -8  -2  -3  347.71   74.71
  -8  -2  -3  493.99  101.65
  -8  -2  -2  571.80  112.62
  -8  -2  -2  605.44  100.49
  -8  -2  -2  813.07  115.93
  -8  -2  -2  972.87  102.50
  -8  -2  -1  725.60  133.21
  -8  -2  -1  528.22   92.96
  -8  -2  -1  678.81  105.73
  -8  -2   0  532.42  115.75
  -8  -2   0  501.36   93.85
  -8  -2   0  526.82  102.71
  -8  -2   1  514.09  103.36
  -8  -2   1  343.49   75.73
  -8  -2   1  481.25  120.83
  -8  -2   2  250.11   68.99
  -8  -2   2  339.09   93.08
  -8  -2   2  318.68   91.37
  -8  -2   3  299.99   83.61
  -8  -2   3  290.27   74.43
  -8  -1  -9  252.85   92.50
  -8  -1  -9  202.28   68.20
  -8  -1  -8  291.73   88.39
  -8  -1  -8  263.98   76.01
  -8  -1  -8  286.03   72.59
  -8  -1  -7  246.12   70.07
  -8  -1  -7   89.99   44.67
  -8  -1  -7  157.46   57.02
  -8  -1  -6  408.93   93.09
  -8  -1  -6  486.06  103.71
  -8  -1  -6  452.85   81.71
  -8  -1  -5  330.21   83.96
  -8  -1  -5  309.98   83.89
  -8  -1  -5  344.76   75.55
  -8  -1  -4  781.62  124.50
  -8  -1  -4  644.71  105.26
  -8  -1  -4  856.84  106.95
  -8  -1  -3 1109.20  134.31
  -8  -1  -3 1074.96  112.42
  -8  -1  -3  716.35   86.78
  -8  -1  -3  955.57  142.39
  -8  -1  -2  638.85  127.72
  -8  -1  -2  970.38  115.13
  -8  -1  -2  770.84  109.52
  -8  -1  -2  625.15   95.15
  -8  -1  -1  575.47  103.19
  -8  -1  -1  633.01  102.29
  -8  -1  -1  633.19  122.57
  -8  -1   0  448.89   87.12
  -8  -1   0  362.48   94.59
  -8  -1   0  345.99   86.33
  -8  -1   1  239.58   63.35
  -8  -1   1  395.94  111.93
  -8  -1   1  274.18   75.86
  -8  -1   2  354.91   72.01
  -8  -1   2  461.04  123.37
  -8  -1   2  505.23  109.85
  -8  -1   3  412.97  114.71
  -8  -1   3  301.38   82.76
  -8  -1   4  302.90   93.13
  -8  -1   4  348.08  109.99
  -8   0  -8  177.57   66.49
  -8   0  -8  328.58   81.28
  -8   0  -8  190.78   74.57
  -8   0  -7  174.09   60.85
  -8   0  -7  118.84   61.81
  -8   0  -7  242.93   74.52
  -8   0  -6  471.73  102.65
  -8   0  -6  395.89   91.17
  -8   0  -6  460.73   87.15
  -8   0  -5  248.77   61.91
  -8   0  -5  244.14   77.52
  -8   0  -5  305.50   76.09
  -8   0  -4  591.21   93.15
  -8   0  -4  606.96  110.36
  -8   0  -4  655.76  105.82
  -8   0  -3  951.16  149.08
  -8   0  -3 1015.21  122.74
  -8   0  -3  783.23   85.78
  -8   0  -2 1177.65  127.59
  -8   0  -2 1024.04  140.35
  -8   0  -2  926.28  101.22
  -8   0  -2 1349.42  141.86
  -8   0  -1  730.97  104.42
  -8   0  -1  879.16  137.16
  -8   0  -1  830.55  106.92
  -8   0   0  315.39   75.54
  -8   0   0  565.90  117.15
  -8   0   0  374.58   72.95
  -8   0   1  487.59  115.58
  -8   0   1  241.09   64.93
  -8   0   2  443.68   97.41
  -8   0   2  551.56  123.98
  -8   0   3  479.01  108.47
  -8   0   3  339.44   97.88
  -8   0   4  376.37  100.37
  -8   0   4  365.25  114.83
  -8   1  -8  158.91   66.33
  -8   1  -8  221.06   82.00
  -8   1  -7  334.87   90.71
  -8   1  -7  370.76   83.49
  -8   1  -7  286.14   77.32
  -8   1  -6  371.16   93.46
  -8   1  -6  447.82   99.27
  -8   1  -6  369.40   85.79
  -8   1  -5  472.11   92.87
  -8   1  -5  476.12   98.00
  -8   1  -5  570.59  104.34
  -8   1  -4  704.68  111.03
  -8   1  -4  586.82  102.38
  -8   1  -4  579.11   95.29
  -8   1  -3  799.07  117.71
  -8   1  -3  743.41  125.43
  -8   1  -3  678.90   97.63
  -8   1  -2  568.33   85.66
  -8   1  -2  501.38   94.48
  -8   1  -2  727.69  112.55
  -8   1  -2  451.48   72.74
  -8   1  -1  742.53  139.77
  -8   1  -1  703.46   87.32
  -8   1  -1  635.61   91.86
  -8   1   0  800.42  139.95
  -8   1   0  626.97  103.13
  -8   1   1  358.55   82.25
  -8   1   1  431.80  111.15
  -8   1   2  441.96  114.25
  -8   1   2  269.39   79.71
  -8   1   3  185.14   85.86
  -8   1   3  192.09   70.80
  -8   1   4  445.37  118.50
  -8   1   4  352.64   93.19
  -8   2  -7  244.83   71.84
  -8   2  -7  328.27  101.45
  -8   2  -6  355.23   84.35
  -8   2  -6  294.98   90.79
  -8   2  -6  348.03   83.33
  -8   2  -5  439.84   87.85
  -8   2  -5  445.82   92.27
  -8   2  -5  519.48  106.22
  -8   2  -4  934.77  134.95
  -8   2  -4  709.97  100.83
  -8   2  -4  763.21  116.66
  -8   2  -3  546.85  100.88
  -8   2  -3  436.61   80.05
  -8   2  -3  490.79  101.22
  -8   2  -2  469.65   72.20
  -8   2  -2  355.85   64.60
  -8   2  -2  447.65  101.83
  -8   2  -2  536.09  100.31
  -8   2  -1  556.81   87.04
  -8   2  -1  744.20  131.83
  -8   2   0  818.80  112.13
  -8   2   0  628.16  123.91
  -8   2   1  687.84  120.31
  -8   2   1  607.94  103.44
  -8   2   2  681.67  116.13
  -8   2   2  720.81  134.46
  -8   2   3   84.62   51.80
  -8   2   3  172.68   87.58
  -8   3  -6  327.13   72.95
  -8   3  -6  426.54  103.93
  -8   3  -6  459.28   88.37
  -8   3  -5  840.74  121.11
  -8   3  -5  571.42  100.52
  -8   3  -5  648.02  109.46
  -8   3  -4  242.70   89.07
  -8   3  -4  199.18   66.08
  -8   3  -4  153.87   47.66
  -8   3  -3  752.78  126.83
  -8   3  -3  574.73  105.67
  -8   3  -2  344.14   82.96
  -8   3  -2  632.54  115.74
  -8   3  -1  335.56   64.83
  -8   3  -1  353.14  101.42
  -8   3   0  551.69  114.05
  -8   3   0  538.43   88.78
  -8   3   1  480.62  114.90
  -8   3   1  519.31   95.42
  -8   3   2  378.37   87.31
  -8   3   2  375.69  104.62
  -8   3   3  623.82  136.52
  -8   3   3  536.77  109.95
  -8   4  -5  488.10   88.75
  -8   4  -5  580.81  120.25
  -8   4  -4  233.44   76.18
  -8   4  -4  154.70   68.91
  -8   4  -3  555.24  104.31
  -8   4  -3  664.15  127.19
  -8   4  -2  429.64   91.06
  -8   4  -2  591.46  114.30
  -8   4  -1  487.78  109.42
  -8   4   0  503.60  105.26
  -8   4   0  409.58   78.40
  -8   4   1  387.89   92.35
  -8   4   1  323.29   76.88
  -8   4   2  313.04   78.00
  -8   4   2  369.57   98.78
  -8   5  -2  873.66  147.49
  -8   5  -2  815.36  132.94
  -8   5  -1  426.99  101.78
  -7  -8  -7   27.44   52.60
  -7  -8  -6  -28.18   69.39
  -7  -8  -5  -59.12   59.17
  -7  -8  -4  -18.65   38.79
  -7  -8  -3   26.66   47.93
  -7  -8  -2 -162.75   85.03
  -7  -8  -1   15.67   59.52
  -7  -7  -9   -8.29   48.52
  -7  -7  -8  -34.80   55.30
  -7  -7  -7   57.71   57.89
  -7  -7  -6  -99.29   76.38
  -7  -7  -5  -13.02   40.73
  -7  -7  -4   78.13   61.22
  -7  -7  -3   48.69   49.76
  -7  -7  -2  -65.98   55.18
  -7  -7  -1   40.91   52.31
  -7  -7   0   97.34   68.19
  -7  -7   1    2.24   44.19
  -7  -6 -10   68.40   69.96
  -7  -6  -9   99.15   60.10
  -7  -6  -8  117.08   59.97
  -7  -6  -7   33.23   57.31
  -7  -6  -6   78.56   39.74
  -7  -6  -5  -40.43   41.58
  -7  -6  -4   46.30   38.19
  -7  -6  -3   22.67   45.23
  -7  -6  -2  -47.41   46.30
  -7  -6  -1  113.16   58.58
  -7  -6   0   28.29   50.28
  -7  -6   1   79.63   59.82
  -7  -6   2   51.71   41.76
  -7  -6   3  109.19   66.82
  -7  -5 -10   44.42   50.85
  -7  -5  -9   -7.61   41.00
  -7  -5  -8   76.35   63.60
  -7  -5  -7   -5.47   38.34
  -7  -5  -6  135.01   69.84
  -7  -5  -5  -23.73   40.01
  -7  -5  -4  -22.54   43.20
  -7  -5  -3   32.89   46.67
  -7  -5  -2   -8.38   40.07
  -7  -5  -1   44.33   48.91
  -7  -5   0   55.14   37.43
  -7  -5   1   67.95   47.97
  -7  -5   2   66.17   65.64
  -7  -5   2   18.03   36.05
  -7  -5   3   34.84   63.18
  -7  -5   3   44.61   50.16
  -7  -5   3   73.57   51.64
  -7  -5   4   25.58   41.34
  -7  -5   4  103.71   67.61
  -7  -5   4  158.26   92.38
  -7  -4 -11   99.35   69.97
  -7  -4 -10   -8.35   37.88
  -7  -4  -9   24.27   37.38
  -7  -4  -8   46.93   43.40
  -7  -4  -7   52.27   57.13
  -7  -4  -6  110.95   57.04
  -7  -4  -5  110.31   60.05
  -7  -4  -4   50.70   48.39
  -7  -4  -3   25.27   34.50
  -7  -4  -2  152.74   51.31
  -7  -4  -1   38.42   57.23
  -7  -4   0   81.37   51.93
  -7  -4   0  -18.85   37.04
  -7  -4   1  -52.08   46.21
  -7  -4   1   40.95   33.99
  -7  -4   2    3.27   50.39
  -7  -4   2    3.28   50.75
  -7  -4   2    1.13   39.86
  -7  -4   3   25.34   50.61
  -7  -4   3  129.82   80.58
  -7  -4   3  138.26   48.45
  -7  -4   4   36.88   55.79
  -7  -4   4   -6.84   49.84
  -7  -4   4   29.03   43.74
  -7  -4   5  101.89   52.98
  -7  -4   5   91.79   63.43
  -7  -4   5  105.22   52.13
  -7  -3 -11  119.00   80.42
  -7  -3 -11  -52.04   43.10
  -7  -3 -10   20.84   29.41
  -7  -3 -10   74.54   53.17
  -7  -3  -9   -7.04   27.83
  -7  -3  -9  -36.24   55.20
  -7  -3  -8   52.51   56.41
  -7  -3  -8  -12.12   24.15
  -7  -3  -7   60.17   52.45
  -7  -3  -7   -2.99   20.00
  -7  -3  -6  -13.01   39.89
  -7  -3  -6   14.59   24.94
  -7  -3  -6    0.37   18.42
  -7  -3  -5   47.56   29.48
  -7  -3  -5   31.30   26.75
  -7  -3  -4   89.11   47.42
  -7  -3  -4   34.21   21.94
  -7  -3  -4   59.52   29.06
  -7  -3  -3   23.06   47.81
  -7  -3  -3   46.91   40.55
  -7  -3  -3  -28.03   19.87
  -7  -3  -2    5.85   38.03
  -7  -3  -2   32.73   44.12
  -7  -3  -2   38.78   23.91
  -7  -3  -1  136.55   61.01
  -7  -3  -1  141.72   56.99
  -7  -3   0  102.16   60.23
  -7  -3   0   -4.78   44.03
  -7  -3   0   33.38   39.42
  -7  -3   1   -7.08   42.82
  -7  -3   1  -32.91   37.72
  -7  -3   1  -33.54   47.70
  -7  -3   2   69.94   51.38
  -7  -3   2   68.12   59.62
  -7  -3   2  -38.65   39.62
  -7  -3   3  101.98   75.48
  -7  -3   3   73.90   45.17
  -7  -3   3   -0.13   39.70
  -7  -3   4  -19.50   35.24
  -7  -3   4   55.79   58.56
  -7  -3   4   84.47   56.18
  -7  -3   5   -9.44   31.85
  -7  -3   5   22.80   62.75
  -7  -3   5   10.85   49.41
  -7  -2 -11  -47.42   48.63
  -7  -2 -11   54.49   41.01
  -7  -2 -10  -31.52   46.07
  -7  -2 -10   47.82   39.96
  -7  -2  -9    7.50   43.35
  -7  -2  -9   25.87   36.63
  -7  -2  -8   48.94   35.44
  -7  -2  -8   41.30   47.80
  -7  -2  -7   84.61   42.20
  -7  -2  -7   44.02   48.06
  -7  -2  -6   61.06   35.71
  -7  -2  -6    5.80   26.54
  -7  -2  -5   20.14   27.37
  -7  -2  -5   60.37   42.08
  -7  -2  -5   12.85   26.06
  -7  -2  -4  -32.92   40.89
  -7  -2  -4   -6.37   32.05
  -7  -2  -4  -35.65   31.54
  -7  -2  -3   56.40   39.59
  -7  -2  -3   33.60   29.40
  -7  -2  -3  128.46   63.73
  -7  -2  -3   68.47   34.31
  -7  -2  -2   73.21   28.72
  -7  -2  -2   20.86   37.15
  -7  -2  -2  106.52   59.23
  -7  -2  -1   31.18   44.13
  -7  -2  -1   24.56   29.94
  -7  -2  -1  -60.69   55.90
  -7  -2   0  102.67   54.00
  -7  -2   0   44.16   35.76
  -7  -2   0   46.38   33.17
  -7  -2   1   62.46   49.27
  -7  -2   1   97.60   68.50
  -7  -2   1  -55.79   45.99
  -7  -2   2   25.95   49.72
  -7  -2   2   21.38   34.86
  -7  -2   2   56.50   39.19
  -7  -2   3   61.71   62.87
  -7  -2   3  -54.66   54.05
  -7  -2   3   30.44   42.59
  -7  -2   4   71.92   62.78
  -7  -2   4  -78.97   64.59
  -7  -2   4   49.70   45.34
  -7  -2   5  -43.61   44.12
  -7  -2   5   89.20   56.35
  -7  -2   5  -60.80   49.49
  -7  -2   6   52.14   55.82
  -7  -2   6  -22.63   54.55
  -7  -2   6  -45.89   58.71
  -7  -1 -11   34.27   47.47
  -7  -1 -11   -6.11   45.10
  -7  -1 -10  -52.67   53.79
  -7  -1 -10   87.83   47.92
  -7  -1  -9   72.49   43.95
  -7  -1  -9   42.19   47.36
  -7  -1  -9  -34.00   38.69
  -7  -1  -8   38.47   36.42
  -7  -1  -8  108.37   49.65
  -7  -1  -8   62.38   35.89
  -7  -1  -7   21.49   32.13
  -7  -1  -7   -3.28   31.91
  -7  -1  -7   44.48   44.54
  -7  -1  -6  -14.85   30.45
  -7  -1  -6   58.46   37.49
  -7  -1  -6   -1.08   38.91
  -7  -1  -5   15.62   14.52
  -7  -1  -5   -9.01   44.28
  -7  -1  -5   81.81   42.54
  -7  -1  -5  -38.79   39.00
  -7  -1  -4  -17.52   29.10
  -7  -1  -4   30.51   18.81
  -7  -1  -4   17.22   28.38
  -7  -1  -4  -32.23   39.53
  -7  -1  -3   89.83   27.77
  -7  -1  -3  106.04   61.02
  -7  -1  -3  122.11   42.40
  -7  -1  -3  156.72   48.58
  -7  -1  -2  -21.23   33.14
  -7  -1  -2    5.49   23.27
  -7  -1  -2   11.78   41.14
  -7  -1  -2   -1.37   28.37
  -7  -1  -1   59.62   44.98
  -7  -1  -1   32.30   40.96
  -7  -1  -1   39.32   37.37
  -7  -1   0    5.15   38.10
  -7  -1   0   -2.21   28.61
  -7  -1   0   70.07   43.58
  -7  -1   1   77.84   56.15
  -7  -1   1   -1.52   30.39
  -7  -1   1   23.62   39.36
  -7  -1   2   -7.50   38.52
  -7  -1   2   27.37   54.01
  -7  -1   2   12.43   27.69
  -7  -1   3   16.16   33.40
  -7  -1   3   16.78   35.85
  -7  -1   3    3.41   51.71
  -7  -1   4   34.44   37.58
  -7  -1   4  105.12   64.16
  -7  -1   4   17.18   57.28
  -7  -1   5   22.94   37.43
  -7  -1   5    3.81   61.93
  -7  -1   6   53.84   60.58
  -7  -1   6   84.48   70.80
  -7   0 -11   45.14   56.68
  -7   0 -11   -6.71   36.38
  -7   0 -10  -37.17   40.14
  -7   0 -10   25.68   48.44
  -7   0  -9    4.32   45.54
  -7   0  -9   12.76   51.75
  -7   0  -8   35.08   40.88
  -7   0  -8  102.22   66.59
  -7   0  -8   40.79   33.19
  -7   0  -7   87.58   48.40
  -7   0  -7   32.04   38.05
  -7   0  -7   67.04   39.87
  -7   0  -6   -6.25   29.31
  -7   0  -6  -12.61   36.84
  -7   0  -6   82.01   43.55
  -7   0  -5  124.83   52.39
  -7   0  -5   50.67   33.65
  -7   0  -5   32.71   43.51
  -7   0  -4   40.88   41.10
  -7   0  -4   16.77   18.87
  -7   0  -4   12.25   36.46
  -7   0  -4   56.18   37.85
  -7   0  -3  189.18   47.27
  -7   0  -3  209.16   55.88
  -7   0  -3  242.33   68.98
  -7   0  -3  159.37   36.45
  -7   0  -2   47.50   56.83
  -7   0  -2   66.54   33.03
  -7   0  -2   73.99   38.64
  -7   0  -1   87.35   49.27
  -7   0  -1   51.94   33.99
  -7   0  -1   97.66   45.36
  -7   0   0  -25.61   36.26
  -7   0   0   54.31   25.23
  -7   0   0   -3.37   43.12
  -7   0   1   58.06   61.96
  -7   0   1   49.80   34.55
  -7   0   1   48.71   36.03
  -7   0   2   29.15   30.50
  -7   0   2   79.75   47.43
  -7   0   3   54.45   31.38
  -7   0   3   13.49   41.79
  -7   0   3  103.87   67.88
  -7   0   4   23.69   32.29
  -7   0   4   91.29   59.16
  -7   0   4   30.48   42.96
  -7   0   5   37.36   55.29
  -7   0   5   58.97   57.66
  -7   0   6  112.35   64.03
  -7   0   6  101.86   70.24
  -7   1 -10   11.68   53.42
  -7   1 -10   47.73   58.99
  -7   1  -9   -5.38   39.27
  -7   1  -9  -25.93   35.62
  -7   1  -8   22.66   40.92
  -7   1  -8   35.88   49.86
  -7   1  -8   11.06   30.99
  -7   1  -7   91.11   43.39
  -7   1  -7   23.97   32.54
  -7   1  -7   41.42   45.64
  -7   1  -6   29.88   37.39
  -7   1  -6   51.99   38.83
  -7   1  -6   16.08   40.56
  -7   1  -5  -25.34   40.92
  -7   1  -5   11.07   36.27
  -7   1  -5   13.39   31.32
  -7   1  -4   51.61   23.96
  -7   1  -4   -7.68   43.72
  -7   1  -4   77.95   34.87
  -7   1  -4   64.80   29.21
  -7   1  -3  -41.61   17.47
  -7   1  -3    7.57   29.38
  -7   1  -3  -32.29   37.23
  -7   1  -3   23.09   30.81
  -7   1  -2  -19.05   20.68
  -7   1  -2  -63.34   61.93
  -7   1  -2   -0.88   22.24
  -7   1  -1   30.01   31.08
  -7   1  -1   34.03   21.46
  -7   1  -1   93.42   50.50
  -7   1   0   45.06   40.32
  -7   1   0   44.86   38.22
  -7   1   0   36.52   30.99
  -7   1   1  -54.81   36.76
  -7   1   1   21.54   47.20
  -7   1   1  -15.38   22.09
  -7   1   2   39.07   42.14
  -7   1   2   52.26   50.98
  -7   1   2    9.80   23.66
  -7   1   3   10.52   35.32
  -7   1   3   12.88   42.33
  -7   1   4   71.65   50.19
  -7   1   4  -64.80   50.23
  -7   1   5  -43.49   57.71
  -7   1   5  145.33   70.97
  -7   1   6   62.06   63.97
  -7   1   6  -24.18   48.63
  -7   2 -10   67.83   58.59
  -7   2  -9   67.45   57.93
  -7   2  -8   68.04   68.67
  -7   2  -8   47.72   43.03
  -7   2  -7   60.56   53.82
  -7   2  -7   39.87   49.60
  -7   2  -7   71.53   37.33
  -7   2  -6    6.67   27.79
  -7   2  -6   25.87   46.00
  -7   2  -6  -23.18   40.98
  -7   2  -5  111.93   49.83
  -7   2  -5   22.88   31.17
  -7   2  -5   57.69   38.99
  -7   2  -4   20.98   32.46
  -7   2  -4   29.44   32.34
  -7   2  -4    5.73   33.91
  -7   2  -3  169.44   39.32
  -7   2  -3  221.37   52.62
  -7   2  -3  205.26   61.26
  -7   2  -3  268.25   76.99
  -7   2  -2   20.70   33.73
  -7   2  -2   25.89   36.98
  -7   2  -2   29.88   32.56
  -7   2  -1   46.95   29.60
  -7   2  -1   48.89   31.97
  -7   2  -1   95.01   61.48
  -7   2   0   73.42   50.62
  -7   2   0   48.49   38.68
  -7   2   0   80.34   29.31
  -7   2   1   30.26   24.03
  -7   2   1   -6.93   41.60
  -7   2   1   91.74   52.82
  -7   2   2  115.72   58.95
  -7   2   2   39.44   59.13
  -7   2   3   94.66   62.84
  -7   2   3   12.23   46.30
  -7   2   4  142.39   62.30
  -7   2   4   32.17   44.70
  -7   2   5  123.45   61.83
  -7   2   5  -79.66   75.16
  -7   2   6    8.52   59.03
  -7   2   6   19.28   51.75
  -7   3  -9  144.87   79.20
  -7   3  -8   51.12   41.11
  -7   3  -7   10.47   49.77
  -7   3  -6  -22.46   39.70
  -7   3  -6  -26.42   35.74
  -7   3  -6   31.51   35.91
  -7   3  -5   16.21   53.10
  -7   3  -5   10.04   37.40
  -7   3  -5    0.45   27.99
  -7   3  -4  193.64   52.57
  -7   3  -4  295.13   73.88
  -7   3  -4  293.92   72.31
  -7   3  -3   54.12   19.84
  -7   3  -3   46.05   39.59
  -7   3  -3   24.35   36.79
  -7   3  -3  100.45   45.73
  -7   3  -2  -37.39   38.47
  -7   3  -2    4.70   20.65
  -7   3  -2   27.33   23.88
  -7   3  -1   12.25   23.04
  -7   3  -1   10.52   24.29
  -7   3  -1  -10.25   47.35
  -7   3   0  115.77   42.31
  -7   3   0  105.01   51.75
  -7   3   1  118.82   57.70
  -7   3   1  186.93   60.59
  -7   3   2   52.75   43.73
  -7   3   2   36.22   45.98
  -7   3   3  -77.92   52.73
  -7   3   3  -50.10   53.41
  -7   3   4   41.90   45.58
  -7   3   4   58.47   54.92
  -7   3   5  -10.82   49.03
  -7   3   5    1.54   48.65
  -7   3   6  -33.27   55.17
  -7   3   6    4.68   45.24
  -7   4  -8   90.36   69.08
  -7   4  -7  -55.89   61.27
  -7   4  -6   34.49   28.94
  -7   4  -6   70.03   52.89
  -7   4  -5   10.81   27.25
  -7   4  -5  -48.87   39.55
  -7   4  -5   37.92   31.90
  -7   4  -4   11.68   50.07
  -7   4  -4   70.14   48.21
  -7   4  -4   69.15   46.49
  -7   4  -3   33.13   49.04
  -7   4  -3    8.78   23.27
  -7   4  -3   35.18   30.25
  -7   4  -2   38.87   30.45
  -7   4  -2  -10.72   26.53
  -7   4  -2  -19.89   48.41
  -7   4  -2   84.65   61.43
  -7   4  -1    1.64   24.59
  -7   4  -1   48.61   43.28
  -7   4   0  123.35   58.80
  -7   4   0   19.25   29.82
  -7   4   1    7.26   40.83
  -7   4   1  112.04   63.54
  -7   4   2  -61.84   51.94
  -7   4   2   30.24   42.92
  -7   4   3  -31.93   34.57
  -7   4   3    0.95   44.72
  -7   4   4   31.67   45.12
  -7   4   4  119.15   70.46
  -7   4   5  122.55   66.54
  -7   4   5    0.51   37.35
  -7   4   6   31.92   43.16
  -7   4   6   23.05   47.05
  -7   5  -7  -26.46   44.05
  -7   5  -6  149.80   80.10
  -7   5  -5  -37.36   37.43
  -7   5  -5   86.18   52.07
  -7   5  -4    5.63   28.53
  -7   5  -4   -7.99   48.90
  -7   5  -4   99.07   54.61
  -7   5  -3   30.53   42.35
  -7   5  -3  -37.80   46.91
  -7   5  -2   36.36   35.96
  -7   5  -2  -49.94   56.69
  -7   5  -2   56.63   46.39
  -7   5  -1   22.81   44.19
  -7   5  -1   17.21   27.84
  -7   5   0  103.55   53.68
  -7   5   0   77.86   41.36
  -7   5   1  -54.95   50.83
  -7   5   1  109.11   53.63
  -7   5   2   10.90   30.86
  -7   5   2   33.60   56.18
  -7   5   3   28.04   44.85
  -7   5   3   35.33   44.59
  -7   5   4   23.41   43.38
  -7   5   4   65.24   48.10
  -7   5   5  -33.50   39.40
  -7   5   5   53.50   58.44
  -7   6  -5   31.09   50.03
  -7   6  -4   92.35   51.69
  -7   6  -4   -8.48   49.78
  -7   6  -3   61.32   41.91
  -7   6  -3   49.85   35.26
  -7   6  -2   25.77   52.27
  -7   6  -2  -59.80   57.47
  -7   6  -1   18.46   39.87
  -7   6  -1   20.52   31.89
  -7   6   0   -3.19   57.34
  -7   6   0   70.32   44.77
  -7   6   1  -21.19   40.76
  -7   6   1   52.15   39.65
  -7   6   2  125.43   58.57
  -7   6   2   91.92   61.49
  -7   6   3   46.62   44.09
  -7   6   3   23.77   53.64
  -7   6   4   72.27   73.55
  -7   6   4    4.56   47.65
  -7   7  -2  -13.79   45.05
  -7   7  -2   30.20   44.33
  -7   7  -1   40.69   58.73
  -7   7  -1   34.81   47.37
  -7   7  -1  -20.70   33.39
  -7   7   0   94.93   59.08
  -7   7   0  -29.68   43.19
  -7   7   1   23.97   37.98
  -7   7   1    7.77   42.77
  -6 -10  -5  415.02  102.84
  -6 -10  -4  326.17  105.48
  -6 -10  -3  416.22  110.26
  -6  -9  -8  340.82   99.20
  -6  -9  -7   84.37   52.62
  -6  -9  -6  385.99  103.49
  -6  -9  -5  122.71   64.32
  -6  -9  -4  232.73   82.99
  -6  -9  -3  287.69   97.72
  -6  -9  -2  157.80   77.48
  -6  -9  -1  130.07   61.96
  -6  -9   0  184.81   77.47
  -6  -9   1  139.47   72.81
  -6  -8 -10  142.78   88.06
  -6  -8  -9  545.01  126.47
  -6  -8  -8  589.74  122.61
  -6  -8  -7  358.84  102.78
  -6  -8  -6  597.00  124.77
  -6  -8  -5  141.31   54.29
  -6  -8  -4  481.88  101.29
  -6  -8  -3  136.13   71.05
  -6  -8  -2  568.64  123.01
  -6  -8  -1  248.16   74.46
  -6  -8   0  295.47   92.39
  -6  -8   1  332.71   92.92
  -6  -8   2  374.57  103.56
  -6  -8   3  249.50   98.98
  -6  -7 -11  250.14   94.98
  -6  -7 -10  259.07   88.59
  -6  -7  -9  106.87   72.64
  -6  -7  -8  515.79  122.11
  -6  -7  -7  635.13  121.50
  -6  -7  -6  541.25  115.23
  -6  -7  -5  659.04  129.82
  -6  -7  -4  122.07   62.09
  -6  -7  -3  239.16   76.26
  -6  -7  -2  173.75   64.55
  -6  -7  -1  437.72  100.00
  -6  -7   0  511.31  104.77
  -6  -7   1  570.55  107.91
  -6  -7   2  315.11   82.75
  -6  -7   3  164.45   66.96
  -6  -7   4  107.28   50.07
  -6  -6 -11  185.48   77.48
  -6  -6 -10  172.40   74.44
  -6  -6  -9  188.88   87.50
  -6  -6  -8  584.30  126.16
  -6  -6  -7  591.47  118.73
  -6  -6  -6 1164.44  159.16
  -6  -6  -5  725.18  116.29
  -6  -6  -4  114.99   60.22
  -6  -6  -3  824.22  125.83
  -6  -6  -2  244.95   72.99
  -6  -6  -1  361.10   84.51
  -6  -6   0 1324.62  160.10
  -6  -6   1 1047.83  142.58
  -6  -6   2  239.69   76.93
  -6  -6   3  434.04   96.01
  -6  -6   4  171.22   76.81
  -6  -6   5  105.90   67.04
  -6  -6   5  229.26   88.21
  -6  -5 -12  200.13   88.70
  -6  -5 -11  248.87   92.04
  -6  -5 -10  381.39  106.84
  -6  -5 -10  227.12   52.28
  -6  -5  -9  197.22   41.08
  -6  -5  -9  506.75  109.77
  -6  -5  -8  228.28   77.56
  -6  -5  -8  147.24   32.62
  -6  -5  -7  310.18   35.08
  -6  -5  -7  647.58  119.96
  -6  -5  -6  274.75   76.64
  -6  -5  -5  718.24  118.97
  -6  -5  -4  947.67  127.47
  -6  -5  -3  550.53   98.24
  -6  -5  -2  766.00  120.47
  -6  -5  -1  760.83  111.86
  -6  -5   0  505.63   95.50
  -6  -5   1  557.43  104.55
  -6  -5   2  488.15   92.05
  -6  -5   3  335.25   86.89
  -6  -5   4  315.22   85.56
  -6  -5   4  360.92  102.55
  -6  -5   5  351.02   89.10
  -6  -5   5  296.78   92.93
  -6  -5   5  296.34   95.23
  -6  -5   6  326.24  112.34
  -6  -5   6  149.62   65.91
  -6  -5   6  352.17  107.30
  -6  -4 -12  184.67   64.00
  -6  -4 -12  159.89   74.82
  -6  -4 -11  154.06   56.35
  -6  -4 -11  459.08  114.90
  -6  -4 -10  226.44   61.22
  -6  -4 -10  472.30  117.30
  -6  -4  -9  315.93   58.07
  -6  -4  -9  610.33  124.34
  -6  -4  -8  453.02   97.71
  -6  -4  -8  310.64   52.07
  -6  -4  -7  709.89  120.49
  -6  -4  -7  470.67   55.07
  -6  -4  -6  141.24   61.63
  -6  -4  -6   77.35   21.22
  -6  -4  -5  423.21   39.15
  -6  -4  -5  665.48  113.52
  -6  -4  -4  851.02   48.86
  -6  -4  -4  981.21   48.69
  -6  -4  -3  794.54   38.35
  -6  -4  -3  713.01   36.35
  -6  -4  -2 1120.57   45.19
  -6  -4  -2  904.62   43.39
  -6  -4  -1 1145.66   63.20
  -6  -4  -1 1138.77   56.74
  -6  -4   0  330.08   78.15
  -6  -4   1  476.11   81.61
  -6  -4   2  381.12   82.03
  -6  -4   3  369.72   76.04
  -6  -4   3  470.49  104.46
  -6  -4   3  560.86  111.46
  -6  -4   4  674.53  108.78
  -6  -4   4  993.80  157.24
  -6  -4   4  923.48  158.02
  -6  -4   5  482.23  114.85
  -6  -4   5  434.85  119.27
  -6  -4   5  418.60   97.52
  -6  -4   6  328.21  101.52
  -6  -4   6  307.58  111.59
  -6  -4   6  220.43   65.20
  -6  -4   7  681.95  146.31
  -6  -4   7  458.76   99.83
  -6  -4   7  696.56  147.82
  -6  -3 -12  134.16   72.50
  -6  -3 -12   75.16   42.10
  -6  -3 -11  137.85   57.07
  -6  -3 -11  298.71   99.40
  -6  -3 -10  466.65  106.06
  -6  -3 -10  336.17   72.08
  -6  -3  -9  724.46  124.91
  -6  -3  -9  433.82   68.58
  -6  -3  -8  517.55   69.98
  -6  -3  -8  641.96  122.07
  -6  -3  -7  369.75   55.46
  -6  -3  -7  509.04   98.54
  -6  -3  -6  344.24   52.25
  -6  -3  -6  424.98   94.37
  -6  -3  -6  262.54   36.24
  -6  -3  -5  278.17   46.06
  -6  -3  -5  385.75   80.83
  -6  -3  -5  368.23   48.17
  -6  -3  -4  745.21   64.15
  -6  -3  -4  884.58  115.83
  -6  -3  -4  559.68   65.54
  -6  -3  -3 1578.35   90.45
  -6  -3  -3 1384.59   84.78
  -6  -3  -3 1507.67  145.62
  -6  -3  -2 1656.11   93.99
  -6  -3  -2 1545.77   87.04
  -6  -3  -2 1766.91  158.90
  -6  -3  -1  947.44   72.39
  -6  -3  -1 1155.56  128.16
  -6  -3   0  514.83   57.23
  -6  -3   0  712.35  105.34
  -6  -3   1  402.59   78.31
  -6  -3   1  361.19   79.04
  -6  -3   1  209.04   42.77
  -6  -3   2  521.96  105.25
  -6  -3   2  470.33  100.59
  -6  -3   2  475.93   92.54
  -6  -3   3  552.74  113.54
  -6  -3   3  415.87  104.29
  -6  -3   3  472.26   84.63
  -6  -3   4  727.18  140.39
  -6  -3   4  593.67   96.85
  -6  -3   4  688.83  129.11
  -6  -3   5  417.11   89.60
  -6  -3   5  664.05  131.27
  -6  -3   5  634.62  129.43
  -6  -3   6  406.58  107.54
  -6  -3   6  281.83   78.20
  -6  -3   6  459.08  115.38
  -6  -3   7  321.11   99.71
  -6  -3   7  179.43   57.25
  -6  -3   7  221.89   86.96
  -6  -2 -12   60.35   59.92
  -6  -2 -12  262.45   88.68
  -6  -2 -11   82.94   36.89
  -6  -2 -11  180.58   77.66
  -6  -2 -10  279.55   70.21
  -6  -2 -10  310.36   88.58
  -6  -2  -9  478.03   81.45
  -6  -2  -9  403.11  108.66
  -6  -2  -8  626.97   83.69
  -6  -2  -8  855.74  132.78
  -6  -2  -7  865.98  127.06
  -6  -2  -7  635.68   80.21
  -6  -2  -6  804.45  120.59
  -6  -2  -6  464.04   46.76
  -6  -2  -6  801.39   83.76
  -6  -2  -5  975.97   68.47
  -6  -2  -5 1023.27   82.60
  -6  -2  -5 1217.62   99.94
  -6  -2  -5 1174.44  134.95
  -6  -2  -4  641.63   69.15
  -6  -2  -4  433.42   65.83
  -6  -2  -4  367.08   47.91
  -6  -2  -4  619.94   93.39
  -6  -2  -3 1140.65   87.99
  -6  -2  -3  915.27   99.59
  -6  -2  -3 1154.17  120.49
  -6  -2  -2 1635.15  105.18
  -6  -2  -2 1433.09  131.39
  -6  -2  -2 1724.54  147.30
  -6  -2  -2 1787.25  115.24
  -6  -2  -1  605.89   65.00
  -6  -2  -1  585.49   96.12
  -6  -2  -1  804.90  101.78
  -6  -2   0  607.08  101.72
  -6  -2   0  506.59   61.20
  -6  -2   0  603.50   86.36
  -6  -2   0  508.40   96.75
  -6  -2   1  728.17  110.28
  -6  -2   1  848.63  104.41
  -6  -2   1  884.66  133.29
  -6  -2   2 1396.73  133.67
  -6  -2   2 1260.85  153.13
  -6  -2   2 1467.74  163.82
  -6  -2   3  524.58   79.49
  -6  -2   3  581.16  110.68
  -6  -2   3  650.80  115.79
  -6  -2   4 1366.54  178.00
  -6  -2   4 1193.39  160.44
  -6  -2   4 1018.12  119.55
  -6  -2   5  778.51  130.12
  -6  -2   5  622.13   98.84
  -6  -2   5  768.36  134.36
  -6  -2   6  491.94  113.07
  -6  -2   6  517.99  115.28
  -6  -2   6  361.53   79.85
  -6  -2   7  264.65   99.78
  -6  -2   7  245.09   68.84
  -6  -2   7  218.57   75.51
  -6  -2   8  113.57   44.34
  -6  -2   8  250.65   91.46
  -6  -2   8  351.39  109.37
  -6  -1 -12  147.78   69.90
  -6  -1 -12  330.36  102.62
  -6  -1 -11  166.32   66.50
  -6  -1 -11  196.55   77.69
  -6  -1 -10  297.44   89.44
  -6  -1 -10  166.51   59.44
  -6  -1  -9  310.30   70.27
  -6  -1  -9  321.14   91.39
  -6  -1  -9  409.69   71.34
  -6  -1  -8  368.44   73.72
  -6  -1  -8  337.62   90.98
  -6  -1  -8  468.79   83.06
  -6  -1  -7  951.46  103.42
  -6  -1  -7 1015.78  143.20
  -6  -1  -6 1662.60  163.95
  -6  -1  -6 1718.63  131.66
  -6  -1  -5  557.44   41.86
  -6  -1  -5  932.14   95.61
  -6  -1  -5  894.33  118.98
  -6  -1  -5  587.17   50.33
  -6  -1  -4 1505.66  146.56
  -6  -1  -4 1082.35   72.52
  -6  -1  -4 1352.70  132.93
  -6  -1  -4 1552.66  120.86
  -6  -1  -4 1163.56   84.39
  -6  -1  -3  489.17   85.44
  -6  -1  -3  522.91   73.70
  -6  -1  -3  380.87   54.59
  -6  -1  -3  466.28   75.21
  -6  -1  -2  239.34   73.94
  -6  -1  -2  235.13   55.43
  -6  -1  -2  230.11   56.39
  -6  -1  -1  590.03   84.90
  -6  -1  -1  613.94  102.19
  -6  -1  -1  653.78   85.19
  -6  -1   0 1417.76  151.69
  -6  -1   0 1186.98  126.00
  -6  -1   0 1340.88  122.81
  -6  -1   1 1461.41  129.34
  -6  -1   1 1326.19  141.32
  -6  -1   1 1453.33  163.12
  -6  -1   2 1320.79  122.35
  -6  -1   2 1221.11  149.04
  -6  -1   2 1555.40  173.07
  -6  -1   3 1007.79  107.41
  -6  -1   3 1120.82  156.39
  -6  -1   3 1183.53  155.41
  -6  -1   4  677.09  121.85
  -6  -1   4  376.58   68.88
  -6  -1   4  545.69  107.78
  -6  -1   5  657.13  124.53
  -6  -1   5  355.94   68.45
  -6  -1   5  437.96  109.58
  -6  -1   6  394.82   98.12
  -6  -1   6  198.77   59.96
  -6  -1   6  306.71   94.39
  -6  -1   7  376.39  106.23
  -6  -1   7  294.08  101.57
  -6  -1   7  167.68   56.24
  -6  -1   8  242.40   85.16
  -6  -1   8  221.00   74.35
  -6  -1   8  179.89   57.41
  -6   0 -12  120.86   65.88
  -6   0 -11  117.50   66.61
  -6   0 -10  225.13   73.15
  -6   0  -9  294.17   59.88
  -6   0  -9  260.13   69.69
  -6   0  -8  307.53   74.99
  -6   0  -8  327.33   63.32
  -6   0  -8  343.06   91.57
  -6   0  -7 1025.65  112.91
  -6   0  -7  940.22  137.17
  -6   0  -7  936.05  112.90
  -6   0  -6 1875.73  150.62
  -6   0  -6 1818.95  150.22
  -6   0  -6 1783.89  174.29
  -6   0  -5 1154.77  128.69
  -6   0  -5 1199.99  120.99
  -6   0  -5 1081.79  123.27
  -6   0  -4 2420.65  174.10
  -6   0  -4 1896.87   91.65
  -6   0  -4 2499.94  161.68
  -6   0  -4 2278.03  175.96
  -6   0  -3  400.18   66.47
  -6   0  -3  443.81   80.78
  -6   0  -3  352.30   51.27
  -6   0  -3  504.00   76.70
  -6   0  -2  199.80   48.59
  -6   0  -2  304.17   57.68
  -6   0  -2  242.04   64.80
  -6   0  -1  136.14   60.67
  -6   0  -1  232.72   52.80
  -6   0  -1  187.86   49.71
  -6   0   0 1405.17  154.70
  -6   0   0 1517.45  119.54
  -6   0   0 1446.56  131.19
  -6   0   1 1647.96  150.12
  -6   0   1 1836.59  173.90
  -6   0   1 1649.50  124.20
  -6   0   2 1586.95  155.68
  -6   0   2 1626.64  121.52
  -6   0   2 2032.67  194.41
  -6   0   3 1661.68  168.83
  -6   0   3 1528.16  117.61
  -6   0   3 1563.67  167.15
  -6   0   4  652.81  124.07
  -6   0   4  495.11   98.74
  -6   0   4  516.01   72.58
  -6   0   5  725.33  127.94
  -6   0   5  823.71  132.36
  -6   0   5  532.76   74.04
  -6   0   6  201.72   74.20
  -6   0   6  184.47   46.18
  -6   0   6  337.61   92.69
  -6   0   7  136.38   43.73
  -6   0   7  384.22  101.43
  -6   0   7  305.75   83.84
  -6   0   8  416.25  103.17
  -6   0   8  363.79  101.23
  -6   1 -12  138.38   63.16
  -6   1 -11  146.47   67.44
  -6   1 -10  166.53   69.53
  -6   1  -9  404.21   94.11
  -6   1  -8  547.67   69.65
  -6   1  -8  716.79  110.52
  -6   1  -7  554.56   94.51
  -6   1  -7  435.55   70.24
  -6   1  -6 1025.26  113.82
  -6   1  -6  868.36  122.32
  -6   1  -6  982.46  118.98
  -6   1  -5 1186.85  121.94
  -6   1  -5 1068.68  126.69
  -6   1  -5 1387.37  136.13
  -6   1  -4  648.88   94.10
  -6   1  -4  471.17   79.81
  -6   1  -4  554.00   85.67
  -6   1  -4  422.03   40.10
  -6   1  -3 1210.71  113.77
  -6   1  -3 1357.76  131.99
  -6   1  -3 1013.30   77.85
  -6   1  -3 1303.07  131.52
  -6   1  -2  487.25   62.55
  -6   1  -2  533.21   94.17
  -6   1  -2  484.18   67.57
  -6   1  -1 1153.57  101.03
  -6   1  -1 1158.19  102.66
  -6   1  -1 1254.98  132.67
  -6   1   0  935.69  121.41
  -6   1   0  739.84   93.16
  -6   1   0  850.15   84.82
  -6   1   1 1139.74  139.82
  -6   1   1 1079.27   91.98
  -6   1   1 1112.44  123.61
  -6   1   2 1284.77  153.25
  -6   1   2 1157.08   93.05
  -6   1   2 1250.49  138.98
  -6   1   3  866.12   77.08
  -6   1   3  971.85  132.76
  -6   1   3 1107.71  150.45
  -6   1   4  758.50  126.75
  -6   1   4  589.56  108.44
  -6   1   4  530.75   60.14
  -6   1   5  556.38  114.80
  -6   1   5  389.85  100.39
  -6   1   5  216.61   41.37
  -6   1   6  500.42  111.30
  -6   1   6  261.83   85.57
  -6   1   7  330.24  100.43
  -6   1   7  441.87  112.10
  -6   1   8  397.78  102.07
  -6   1   8  424.74  106.48
  -6   2 -11  239.02   86.20
  -6   2 -10  256.41   85.32
  -6   2  -9  440.08   98.11
  -6   2  -8  976.57  132.89
  -6   2  -8  814.67   78.55
  -6   2  -7  671.22  109.33
  -6   2  -7  661.83   77.93
  -6   2  -6  702.00   88.93
  -6   2  -6  730.96  107.38
  -6   2  -5  639.98   83.16
  -6   2  -5  528.77   88.19
  -6   2  -5  709.14  105.04
  -6   2  -4  425.56   39.90
  -6   2  -4  561.10   84.19
  -6   2  -4  779.62   99.24
  -6   2  -4  825.76  110.76
  -6   2  -3 1153.03  109.63
  -6   2  -3 1314.55  127.09
  -6   2  -3 1048.63   77.88
  -6   2  -2  709.44   73.72
  -6   2  -2  810.67   87.92
  -6   2  -2  771.73   99.32
  -6   2  -1 3352.94  161.06
  -6   2  -1 3430.89  217.14
  -6   2  -1 3203.11  172.29
  -6   2   0  445.59   59.13
  -6   2   0  409.34   71.35
  -6   2   0  532.14   99.62
  -6   2   1  713.16   63.34
  -6   2   1  841.62  118.20
  -6   2   1  741.33  100.85
  -6   2   2  815.56  107.80
  -6   2   2  958.90  126.35
  -6   2   2  752.71   58.38
  -6   2   3  470.09   42.22
  -6   2   3  741.49  114.24
  -6   2   3  642.21  107.03
  -6   2   4  691.89  113.48
  -6   2   4  725.96  122.69
  -6   2   5 1018.74  146.37
  -6   2   5  869.15  133.28
  -6   2   6  735.14  125.27
  -6   2   6  587.20  119.51
  -6   2   7  414.79  101.19
  -6   2   7  388.16  102.64
  -6   2   8  414.78  101.88
  -6   2   8  424.45  102.38
  -6   3 -10  328.41   85.81
  -6   3  -9  369.08   96.03
  -6   3  -8  539.92  109.09
  -6   3  -7  553.77   68.97
  -6   3  -7  675.97  122.05
  -6   3  -6  307.17   58.76
  -6   3  -6  472.57   99.10
  -6   3  -5  530.29   78.06
  -6   3  -5  666.79  112.72
  -6   3  -4  185.91   66.18
  -6   3  -4  250.92   60.30
  -6   3  -4  174.72   28.34
  -6   3  -3  766.69  100.80
  -6   3  -3  850.46  119.08
  -6   3  -3  573.82   80.71
  -6   3  -3  593.50   59.96
  -6   3  -2 1805.28  151.67
  -6   3  -2 1560.69  109.12
  -6   3  -2 1652.74  116.86
  -6   3  -1  567.67   64.26
  -6   3  -1  584.34   73.93
  -6   3  -1  530.14   89.52
  -6   3   0 1570.92  130.03
  -6   3   0 1611.69  159.47
  -6   3   0 1562.46   91.63
  -6   3   1  759.05  113.04
  -6   3   1  561.56   47.14
  -6   3   1  624.92   94.60
  -6   3   2  285.47   67.22
  -6   3   2  338.22   91.72
  -6   3   3  451.82   99.28
  -6   3   3  392.18   82.38
  -6   3   4  597.09  107.45
  -6   3   4  565.03  112.36
  -6   3   5  655.86  120.70
  -6   3   5  608.84  116.64
  -6   3   6  560.15  108.43
  -6   3   6  670.87  121.33
  -6   3   7  402.70   96.66
  -6   3   7  504.02  110.64
  -6   3   8  262.96   81.42
  -6   3   8  373.85   93.64
  -6   4 -10  204.14   77.70
  -6   4  -9  536.42  120.29
  -6   4  -8  479.61  105.68
  -6   4  -7  646.36  120.71
  -6   4  -6  427.06   64.47
  -6   4  -6  433.90   99.35
  -6   4  -5  763.73   90.88
  -6   4  -5  851.36  128.61
  -6   4  -4  224.68   56.50
  -6   4  -4  319.04   86.10
  -6   4  -4  167.76   32.19
  -6   4  -3 1219.38  150.78
  -6   4  -3  827.66   72.91
  -6   4  -3 1089.07  116.01
  -6   4  -2 1208.01  102.77
  -6   4  -2 1125.59   97.69
  -6   4  -2 1414.04  139.33
  -6   4  -1  293.10   71.46
  -6   4  -1  260.49   41.43
  -6   4  -1  257.26   53.90
  -6   4   0 1095.51   68.41
  -6   4   0 1329.28  121.75
  -6   4   0 1412.35  149.98
  -6   4   1  699.61  107.65
  -6   4   1  548.47   87.51
  -6   4   2  419.44   85.02
  -6   4   2  435.74   81.65
  -6   4   3  524.28   99.08
  -6   4   3  438.75   83.75
  -6   4   4  662.28  116.12
  -6   4   4  724.18  114.68
  -6   4   5  486.22   99.85
  -6   4   5  542.80  107.46
  -6   4   6  950.54  144.99
  -6   4   6 1028.42  145.80
  -6   4   7  246.01   80.36
  -6   4   7  483.62  106.77
  -6   4   8  213.79   76.86
  -6   4   8  320.76   94.70
  -6   5  -9  221.34   84.21
  -6   5  -8  373.05  107.14
  -6   5  -7  341.71   97.91
  -6   5  -6  460.38  106.40
  -6   5  -6  350.25   52.96
  -6   5  -5  354.30   64.19
  -6   5  -5  441.32  105.53
  -6   5  -4 1154.75  150.04
  -6   5  -4  683.45   63.73
  -6   5  -4 1002.37  115.34
  -6   5  -3  235.01   44.23
  -6   5  -3  272.51   70.27
  -6   5  -2  421.53   77.69
  -6   5  -2  273.21   50.42
  -6   5  -2  299.76   52.52
  -6   5  -2  504.42  102.95
  -6   5  -1  451.65   85.24
  -6   5  -1  383.13   49.32
  -6   5  -1  482.62   72.66
  -6   5   0  227.05   58.70
  -6   5   0  211.56   48.10
  -6   5   1  419.19   73.35
  -6   5   1  517.28   83.84
  -6   5   2  459.06   89.96
  -6   5   2  584.36  105.90
  -6   5   3  505.13  100.22
  -6   5   3  574.99  112.07
  -6   5   4  435.88   87.87
  -6   5   4  572.87  106.94
  -6   5   5  399.57   94.77
  -6   5   5  371.19   93.66
  -6   5   6  335.65   92.28
  -6   5   6  219.63   75.53
  -6   5   7  226.41   76.03
  -6   5   7  254.77   78.98
  -6   6  -8  240.74   78.28
  -6   6  -7  183.16   74.28
  -6   6  -6  603.74  115.46
  -6   6  -5  265.36   53.17
  -6   6  -5  498.63  100.89
  -6   6  -4  978.73  108.50
  -6   6  -4 1301.60  160.71
  -6   6  -3  454.60   79.26
  -6   6  -3  359.92   59.02
  -6   6  -2  312.09   74.98
  -6   6  -2  198.35   48.43
  -6   6  -2  371.32   90.35
  -6   6  -1  241.55   54.60
  -6   6  -1  162.62   58.51
  -6   6   0  277.64   70.94
  -6   6   0  280.29   60.17
  -6   6   1  266.17   78.62
  -6   6   1  274.06   65.71
  -6   6   2  631.89  109.72
  -6   6   2  527.31   85.12
  -6   6   3  641.06  108.78
  -6   6   3  702.36  121.79
  -6   6   4  787.21  126.24
  -6   6   4  566.17  107.99
  -6   6   5  224.90   66.92
  -6   6   5  288.99   74.64
  -6   6   6  223.89   80.89
  -6   6   6  400.29  109.25
  -6   6   7  330.88   88.76
  -6   6   7  327.69   96.48
  -6   7  -6  278.79   99.70
  -6   7  -5  398.82  107.40
  -6   7  -4  194.35   48.01
  -6   7  -4  325.68   95.05
  -6   7  -3  305.41  100.02
  -6   7  -3  250.44   59.66
  -6   7  -3  200.86   42.58
  -6   7  -2  468.85  114.21
  -6   7  -2  252.41   60.68
  -6   7  -2  308.92   71.10
  -6   7  -1  175.27   47.82
  -6   7  -1  183.89   73.39
  -6   7   0  134.60   52.82
  -6   7   0  144.17   67.55
  -6   7   1  351.53   81.27
  -6   7   1  386.45   96.94
  -6   7   2  357.58   90.67
  -6   7   2  361.59   87.85
  -6   7   3  225.78   70.21
  -6   7   3  298.72   68.64
  -6   7   4  232.56   79.04
  -6   7   4  196.08   61.76
  -6   7   5  367.09   90.83
  -6   7   5  227.82   73.74
  -6   7   6  137.77   62.24
  -6   7   6  123.61   58.19
  -6   8  -4  226.32   82.97
  -6   8  -3  120.65   58.26
  -6   8  -3  224.08   84.71
  -6   8  -2  403.92  116.93
  -6   8  -2  226.76   64.91
  -6   8  -2  260.72   55.78
  -6   8  -1  265.59   71.73
  -6   8  -1  224.55   62.88
  -6   8   0  165.58   58.86
  -6   8   0  179.91   71.89
  -6   8   1  348.50   76.97
  -6   8   1  211.88   79.66
  -6   8   2  180.19   79.05
  -6   8   2  299.39   79.58
  -6   8   3  188.67   67.58
  -6   8   3  211.32   75.42
  -6   8   4  144.55   76.94
  -6   8   4  277.42   81.57
  -5 -11  -5   51.64   49.36
  -5 -11  -4  -98.64   69.12
  -5 -11  -3  -66.00   75.64
  -5 -10  -9   15.11   49.37
  -5 -10  -8 -105.83   68.69
  -5 -10  -7   71.54   57.68
  -5 -10  -6   56.85   56.00
  -5 -10  -5   42.86   60.82
  -5 -10  -4  115.28   64.36
  -5 -10  -3   49.40   51.80
  -5 -10  -2  -32.56   49.61
  -5 -10  -1   45.56   62.82
  -5 -10   0   35.52   39.43
  -5 -10   1    7.40   45.20
  -5  -9 -10   49.07   51.97
  -5  -9  -9   43.34   43.54
  -5  -9  -8  -69.35   53.56
  -5  -9  -7   56.46   53.17
  -5  -9  -6    4.87   50.72
  -5  -9  -5   18.49   45.02
  -5  -9  -4    2.43   46.60
  -5  -9  -3   90.15   73.03
  -5  -9  -2   85.28   46.92
  -5  -9  -1  -15.93   38.01
  -5  -9   0   -9.26   49.06
  -5  -9   1  -41.91   50.79
  -5  -9   2  -23.74   44.51
  -5  -9   3    4.01   40.25
  -5  -8 -11   -4.42   43.73
  -5  -8 -10  -92.49   72.69
  -5  -8  -9    6.27   37.75
  -5  -8  -8    2.29   43.36
  -5  -8  -7  -15.71   37.37
  -5  -8  -6   13.35   45.86
  -5  -8  -5   28.70   42.27
  -5  -8  -4   82.60   52.52
  -5  -8  -3   72.95   55.37
  -5  -8  -2   31.46   44.76
  -5  -8  -1   32.68   53.06
  -5  -8   0  -73.67   56.30
  -5  -8   1    4.83   40.58
  -5  -8   2  -28.50   35.51
  -5  -8   3   -8.81   38.80
  -5  -8   4   50.87   54.31
  -5  -8   5   99.93   65.85
  -5  -7 -12  128.71   69.83
  -5  -7 -11   -6.51   39.05
  -5  -7 -10   -8.01   45.61
  -5  -7  -9  -73.85   53.85
  -5  -7  -8   12.64   37.71
  -5  -7  -7   17.71   52.94
  -5  -7  -6   -6.77   36.03
  -5  -7  -5  -48.68   48.53
  -5  -7  -4   42.68   42.43
  -5  -7  -3   48.03   51.87
  -5  -7  -2   81.93   45.75
  -5  -7  -1   36.14   42.03
  -5  -7   0  -34.17   46.87
  -5  -7   1   22.47   56.94
  -5  -7   2  -13.04   34.51
  -5  -7   3   93.40   68.55
  -5  -7   4  -26.06   58.76
  -5  -7   5  108.74   64.36
  -5  -7   6   24.56   65.63
  -5  -6 -13  -36.18   51.50
  -5  -6 -12  -13.24   44.81
  -5  -6 -12   -4.28   32.50
  -5  -6 -11   56.10   41.11
  -5  -6 -11   40.56   37.96
  -5  -6 -10   91.37   56.21
  -5  -6 -10  -54.59   25.67
  -5  -6  -9   29.20   26.54
  -5  -6  -9   36.97   35.87
  -5  -6  -8  -24.15   40.15
  -5  -6  -8   -4.51   18.47
  -5  -6  -7   21.40   36.82
  -5  -6  -7   53.43   15.74
  -5  -6  -6   69.71   37.61
  -5  -6  -5   77.37   48.70
  -5  -6  -4  113.45   50.49
  -5  -6  -3  -37.86   40.13
  -5  -6  -2  156.53   59.61
  -5  -6  -1  376.81   78.03
  -5  -6   0  380.17   84.78
  -5  -6   1  159.69   65.48
  -5  -6   2   94.92   51.35
  -5  -6   3    3.97   38.77
  -5  -6   4   47.39   43.80
  -5  -6   5  -10.77   37.09
  -5  -6   6    4.43   42.75
  -5  -6   6   80.15   64.41
  -5  -6   7  -26.30   38.83
  -5  -6   7   61.70   56.35
  -5  -6   7  -40.15   64.96
  -5  -5 -13  -20.10   49.99
  -5  -5 -13   -1.38   33.90
  -5  -5 -12   16.37   31.35
  -5  -5 -12  -23.57   45.72
  -5  -5 -11   89.71   64.66
  -5  -5 -11   52.82   43.29
  -5  -5 -10    4.84   28.69
  -5  -5 -10   96.77   55.68
  -5  -5  -9   -9.47   34.42
  -5  -5  -9    7.42   22.07
  -5  -5  -8   37.07   45.83
  -5  -5  -8   15.54   24.18
  -5  -5  -7   14.50   22.11
  -5  -5  -7   81.96   48.83
  -5  -5  -6    8.80   13.17
  -5  -5  -6    2.01   36.97
  -5  -5  -5   19.72   40.22
  -5  -5  -4   72.01   38.93
  -5  -5  -3   18.20   40.71
  -5  -5  -2    1.55   46.07
  -5  -5  -1  -29.33   35.58
  -5  -5   0   14.18   37.56
  -5  -5   1   -5.77   14.72
  -5  -5   1   65.83   31.22
  -5  -5   2   -6.55   18.43
  -5  -5   2   63.43   47.29
  -5  -5   3    3.20   34.61
  -5  -5   4  131.28   51.40
  -5  -5   5   27.68   38.40
  -5  -5   6   90.26   64.34
  -5  -5   6   47.45   61.61
  -5  -5   6   51.02   42.67
  -5  -5   7    1.85   47.61
  -5  -5   7    5.58   46.68
  -5  -5   7    6.30   37.34
  -5  -5   8  -42.64   55.77
  -5  -5   8   -0.53   45.10
  -5  -5   8  123.80   65.50
  -5  -4 -13  -11.42   34.55
  -5  -4 -13  -49.91   58.99
  -5  -4 -12  -24.53   32.88
  -5  -4 -12   17.25   49.52
  -5  -4 -11   19.87   34.89
  -5  -4 -11  -25.62   45.17
  -5  -4 -10   -9.34   41.97
  -5  -4 -10   11.50   24.60
  -5  -4  -9   10.23   34.51
  -5  -4  -9   36.89   32.50
  -5  -4  -8   27.92   21.63
  -5  -4  -8   57.13   24.91
  -5  -4  -8   23.97   35.72
  -5  -4  -7  -13.59   18.33
  -5  -4  -7    1.20   19.39
  -5  -4  -7  -30.84   42.78
  -5  -4  -6   14.95   16.28
  -5  -4  -6   -7.23   16.32
  -5  -4  -5   13.38   16.36
  -5  -4  -5   13.94   14.54
  -5  -4  -5  -13.87   32.65
  -5  -4  -4  692.20  101.89
  -5  -4  -4  383.30   24.89
  -5  -4  -3  116.86   47.67
  -5  -4  -2   53.93   45.07
  -5  -4  -1   16.19    7.28
  -5  -4  -1   -3.79   28.78
  -5  -4  -1   -4.70    6.89
  -5  -4   0  309.47   31.09
  -5  -4   0  517.03   85.39
  -5  -4   1   17.21   38.84
  -5  -4   1   16.17   13.91
  -5  -4   2   13.07   31.77
  -5  -4   2    5.59   22.85
  -5  -4   3  -24.17   37.58
  -5  -4   4   55.09   41.64
  -5  -4   5   93.44   58.50
  -5  -4   5  -16.82   47.69
  -5  -4   5   30.34   56.31
  -5  -4   6  -17.17   41.63
  -5  -4   6   44.61   47.38
  -5  -4   7   14.73   36.74
  -5  -4   7   37.09   49.18
  -5  -4   8  -43.85   54.59
  -5  -4   8  -14.41   49.31
  -5  -4   8  103.73   63.98
  -5  -3 -13  -12.57   33.51
  -5  -3 -13  -19.03   57.03
  -5  -3 -12   64.00   50.04
  -5  -3 -12   -9.25   40.96
  -5  -3 -11  -31.94   44.64
  -5  -3 -11    3.48   30.51
  -5  -3 -10  -48.65   59.04
  -5  -3 -10  -17.41   27.20
  -5  -3  -9   16.98   32.83
  -5  -3  -9   -8.99   33.31
  -5  -3  -8  -15.82   25.21
  -5  -3  -8  -46.70   41.58
  -5  -3  -8    1.76   11.27
  -5  -3  -7    9.01   30.66
  -5  -3  -7   15.65   15.50
  -5  -3  -7  -19.40   29.58
  -5  -3  -6   54.61   47.48
  -5  -3  -6   17.60   16.83
  -5  -3  -6   -8.65   18.44
  -5  -3  -5   -5.50   14.83
  -5  -3  -5   19.46   32.16
  -5  -3  -5    8.34   14.18
  -5  -3  -4   50.20   39.33
  -5  -3  -4   90.39   24.20
  -5  -3  -4   48.50   20.35
  -5  -3  -3   82.32   27.55
  -5  -3  -3   88.05   42.94
  -5  -3  -3  139.40   25.72
  -5  -3  -2   30.63   14.86
  -5  -3  -2    9.67   12.74
  -5  -3  -2   24.58   26.39
  -5  -3  -1  166.62   47.00
  -5  -3  -1   85.33   19.92
  -5  -3   0  163.56   51.93
  -5  -3   0   85.17   22.55
  -5  -3   1    7.39   16.36
  -5  -3   1    5.49   29.97
  -5  -3   2   14.77   26.85
  -5  -3   2   30.69   17.88
  -5  -3   3    9.11   35.20
  -5  -3   4   27.68   37.97
  -5  -3   4   49.13   43.58
  -5  -3   4  -24.93   44.10
  -5  -3   5   15.52   40.06
  -5  -3   5    4.06   44.49
  -5  -3   5   18.63   37.45
  -5  -3   6  -51.09   54.14
  -5  -3   6  -92.97   67.94
  -5  -3   6   96.71   52.22
  -5  -3   7    9.78   42.86
  -5  -3   7   55.83   60.16
  -5  -3   7   -2.27   39.82
  -5  -3   8   35.90   52.77
  -5  -3   8  -47.46   37.76
  -5  -3   8   44.16   40.06
  -5  -3   9   40.19   52.98
  -5  -3   9   20.29   40.15
  -5  -3   9  -40.46   62.62
  -5  -2 -13  -36.77   46.84
  -5  -2 -12  -54.02   36.11
  -5  -2 -11    5.19   36.22
  -5  -2 -11   38.34   46.01
  -5  -2 -10  -36.79   30.67
  -5  -2 -10   21.22   47.17
  -5  -2  -9   16.58   37.70
  -5  -2  -9  -27.57   28.72
  -5  -2  -8  -37.44   39.02
  -5  -2  -8   -0.04   29.73
  -5  -2  -7  -31.33   24.03
  -5  -2  -7   -4.77   29.01
  -5  -2  -7    8.05    5.63
  -5  -2  -6   -7.23    8.25
  -5  -2  -6   23.52   43.60
  -5  -2  -6  -28.27   26.69
  -5  -2  -5   35.17   30.80
  -5  -2  -5   50.54   19.46
  -5  -2  -5   74.20   26.48
  -5  -2  -4   41.97   29.29
  -5  -2  -4   36.86   24.77
  -5  -2  -4   25.93   15.87
  -5  -2  -3    3.41   25.08
  -5  -2  -3   82.08   27.80
  -5  -2  -2   65.77   35.09
  -5  -2  -2   37.83   18.47
  -5  -2  -1   22.86   31.59
  -5  -2  -1   48.14   22.14
  -5  -2   0  233.35   48.35
  -5  -2   0  180.79   33.69
  -5  -2   1   42.52   24.71
  -5  -2   1   90.68   42.42
  -5  -2   2   92.06   41.86
  -5  -2   2   -7.59   39.89
  -5  -2   2    7.69   30.94
  -5  -2   2    1.49   19.76
  -5  -2   3   37.90   34.47
  -5  -2   3   44.43   43.08
  -5  -2   3   86.60   43.72
  -5  -2   4  -30.59   36.84
  -5  -2   4   45.13   39.13
  -5  -2   4   -4.07   47.69
  -5  -2   5   32.75   27.77
  -5  -2   5  -22.23   44.34
  -5  -2   5   12.52   37.93
  -5  -2   6   74.89   59.24
  -5  -2   6  127.34   43.66
  -5  -2   6   78.51   39.10
  -5  -2   7   72.37   45.21
  -5  -2   7    4.59   32.43
  -5  -2   7   82.37   64.42
  -5  -2   8   82.46   53.77
  -5  -2   8  -39.18   30.31
  -5  -2   8   70.30   50.57
  -5  -2   9   -3.29   41.54
  -5  -2   9   48.33   68.60
  -5  -2   9   45.48   49.73
  -5  -1 -13  -43.77   41.30
  -5  -1 -12  -78.54   34.63
  -5  -1 -11   19.63   37.83
  -5  -1 -10   42.30   41.93
  -5  -1  -9   57.81   41.01
  -5  -1  -8   -0.66   32.82
  -5  -1  -8    0.18   16.56
  -5  -1  -7   54.98   40.76
  -5  -1  -7   39.24   30.46
  -5  -1  -7    5.32   15.85
  -5  -1  -6   88.22   29.52
  -5  -1  -6   68.63   33.31
  -5  -1  -5   -7.14   19.03
  -5  -1  -5   19.59   31.90
  -5  -1  -5    7.27    7.16
  -5  -1  -5   13.12    8.30
  -5  -1  -4   12.70   21.39
  -5  -1  -4    1.67   13.94
  -5  -1  -4   28.34   36.22
  -5  -1  -4    0.69   10.00
  -5  -1  -3  -29.96   40.61
  -5  -1  -3   33.61   23.79
  -5  -1  -3   -4.36   19.14
  -5  -1  -2   73.94   35.92
  -5  -1  -2   44.08   31.19
  -5  -1  -1    5.39   16.49
  -5  -1  -1  -15.32   30.74
  -5  -1  -1   20.91   28.22
  -5  -1   0   -2.06   25.31
  -5  -1   0   31.18   32.86
  -5  -1   0   53.35   32.86
  -5  -1   0  -12.94   20.66
  -5  -1   1   22.41   22.13
  -5  -1   1   26.12   34.76
  -5  -1   1   42.45   34.32
  -5  -1   1   39.95   31.25
  -5  -1   2  -18.83   38.32
  -5  -1   2  -18.16   32.93
  -5  -1   2    0.37   23.33
  -5  -1   3   40.78   32.70
  -5  -1   3  -30.20   49.23
  -5  -1   3   12.53   51.29
  -5  -1   4   21.52   40.79
  -5  -1   4    1.63   47.40
  -5  -1   4    4.98   28.84
  -5  -1   5   93.18   67.30
  -5  -1   5  -12.85   30.02
  -5  -1   5  147.44   67.01
  -5  -1   6   61.88   54.31
  -5  -1   6   80.86   61.69
  -5  -1   6   31.02   39.18
  -5  -1   7   50.84   48.52
  -5  -1   7  -18.79   37.90
  -5  -1   7   -5.25   28.82
  -5  -1   8   32.27   44.56
  -5  -1   8   35.50   40.98
  -5  -1   8   54.55   60.34
  -5  -1   9   27.14   56.67
  -5  -1   9   39.86   58.81
  -5  -1  10   93.87   61.95
  -5  -1  10   12.15   48.54
  -5   0 -13   -7.98   53.27
  -5   0 -12   39.43   41.18
  -5   0 -11  -36.90   38.71
  -5   0 -10  -57.12   50.20
  -5   0  -9   -0.57   35.50
  -5   0  -9   -3.41   20.97
  -5   0  -8   24.58   16.88
  -5   0  -8   41.65   27.32
  -5   0  -8    6.83   35.09
  -5   0  -7   -3.58   27.19
  -5   0  -7   36.94   32.02
  -5   0  -7   10.57   19.36
  -5   0  -6   65.48   28.42
  -5   0  -6   53.78   29.10
  -5   0  -5   53.46   40.10
  -5   0  -5  -23.92   29.76
  -5   0  -5   63.37   37.58
  -5   0  -4   93.85   31.10
  -5   0  -4   76.92   15.26
  -5   0  -4   76.94   38.49
  -5   0  -4  131.18   48.66
  -5   0  -3   46.59   33.19
  -5   0  -3   14.37   19.86
  -5   0  -3   47.48   30.23
  -5   0  -3   68.14   34.65
  -5   0  -2  332.72   49.60
  -5   0  -2  444.40   71.50
  -5   0  -2  336.77   52.41
  -5   0  -1  182.58   42.99
  -5   0  -1  138.35   50.79
  -5   0  -1  156.69   38.06
  -5   0   0    0.77   29.69
  -5   0   0   -0.30   17.74
  -5   0   0   18.40   28.13
  -5   0   0   16.28   36.20
  -5   0   1  152.38   46.98
  -5   0   1  128.37   33.38
  -5   0   1  159.70   57.07
  -5   0   2   18.11   41.37
  -5   0   2  -16.71   37.53
  -5   0   2  -29.88   30.61
  -5   0   3  112.53   54.93
  -5   0   3  108.70   38.55
  -5   0   3   70.41   43.73
  -5   0   4   34.79   48.43
  -5   0   4   58.25   23.89
  -5   0   4   59.65   44.95
  -5   0   5   77.31   52.51
  -5   0   5   82.52   49.58
  -5   0   5   59.90   33.27
  -5   0   6   20.65   38.31
  -5   0   6   92.03   57.91
  -5   0   6   33.71   28.98
  -5   0   7    8.41   36.87
  -5   0   7   30.79   32.72
  -5   0   7   33.14   58.23
  -5   0   8   63.04   48.96
  -5   0   8  -47.87   59.33
  -5   0   9  -31.37   41.64
  -5   0   9   67.03   56.12
  -5   0  10   92.57   60.62
  -5   0  10   -5.53   52.75
  -5   1 -12    3.57   40.38
  -5   1 -11  -25.63   54.99
  -5   1 -10  -63.56   40.62
  -5   1  -9   59.52   56.86
  -5   1  -8   80.16   49.37
  -5   1  -8  -30.30   18.62
  -5   1  -7    8.67   23.80
  -5   1  -7   37.89   42.49
  -5   1  -6   20.14   28.65
  -5   1  -6   96.11   48.04
  -5   1  -5  101.52   44.75
  -5   1  -5   69.00   37.54
  -5   1  -4   19.38   10.32
  -5   1  -4   -3.86   21.19
  -5   1  -4    0.27   31.49
  -5   1  -4   14.13   31.28
  -5   1  -3  -29.60   29.64
  -5   1  -3  -12.96   29.66
  -5   1  -3    5.85   12.80
  -5   1  -3   23.95   25.33
  -5   1  -2   36.07   20.51
  -5   1  -2   35.76   23.31
  -5   1  -2   44.97   33.65
  -5   1  -1   30.65   18.23
  -5   1  -1   74.99   39.82
  -5   1  -1   25.57   21.39
  -5   1   0   -6.59   16.61
  -5   1   0   13.80   28.20
  -5   1   0   12.43   31.95
  -5   1   1  -27.63   37.22
  -5   1   1   47.27   48.54
  -5   1   1   29.01   20.25
  -5   1   2   24.03   45.31
  -5   1   2   44.98   20.07
  -5   1   2   34.83   35.53
  -5   1   3   56.42   25.91
  -5   1   3   26.12   41.93
  -5   1   3   88.23   37.14
  -5   1   4   41.60   33.67
  -5   1   4   10.81   20.10
  -5   1   4    6.09   35.58
  -5   1   5   27.26   58.39
  -5   1   5  -11.92   18.60
  -5   1   5   30.27   37.83
  -5   1   6   46.84   49.22
  -5   1   6   69.90   61.30
  -5   1   7   37.91   53.17
  -5   1   7   39.67   49.33
  -5   1   8  -50.64   54.14
  -5   1   8  -53.48   59.72
  -5   1   9   50.04   62.34
  -5   1   9    0.12   44.77
  -5   1  10   42.56   57.77
  -5   1  10   -6.17   41.55
  -5   2 -12  -57.90   55.39
  -5   2 -11  -16.25   40.95
  -5   2 -10   56.63   49.34
  -5   2  -9  -70.47   41.48
  -5   2  -8   18.84   10.53
  -5   2  -8   20.81   36.05
  -5   2  -7   10.26   24.56
  -5   2  -7   26.90   35.54
  -5   2  -6   57.19   37.77
  -5   2  -6    6.68   22.05
  -5   2  -5    3.99   24.41
  -5   2  -5   48.37   32.90
  -5   2  -4   21.14   10.52
  -5   2  -4   27.90   35.51
  -5   2  -4    5.63   26.40
  -5   2  -3   79.12   34.08
  -5   2  -3   38.62   27.72
  -5   2  -3   -5.96   30.21
  -5   2  -3   14.29   13.95
  -5   2  -2  120.83   46.87
  -5   2  -2   64.69   27.94
  -5   2  -2   66.33   20.00
  -5   2  -1   -4.76   19.13
  -5   2  -1   42.73   37.28
  -5   2  -1    5.50   25.41
  -5   2   0   41.51   25.82
  -5   2   0   40.93   19.82
  -5   2   0  -20.90   42.47
  -5   2   1  586.68   82.30
  -5   2   1  539.50   92.50
  -5   2   1  592.92   51.56
  -5   2   2  120.05   23.46
  -5   2   2  206.15   61.13
  -5   2   2  179.41   59.66
  -5   2   3  163.00   46.28
  -5   2   3  145.30   22.71
  -5   2   3  191.09   57.69
  -5   2   4   83.40   54.83
  -5   2   4  103.06   46.73
  -5   2   4   40.64   13.42
  -5   2   5  136.27   51.74
  -5   2   5    6.95   38.72
  -5   2   6   -8.48   41.66
  -5   2   6  136.92   68.03
  -5   2   7   12.32   38.41
  -5   2   7   16.72   41.83
  -5   2   8   66.52   48.66
  -5   2   8   27.99   39.79
  -5   2   9   94.32   52.30
  -5   2   9   41.19   56.89
  -5   2  10  -12.24   67.32
  -5   2  10  -42.62   53.71
  -5   3 -11  119.07   76.75
  -5   3 -10   25.78   58.93
  -5   3  -9  -23.35   42.48
  -5   3  -8   12.45   53.74
  -5   3  -7   14.36   17.74
  -5   3  -7   13.93   34.26
  -5   3  -6   22.25   24.00
  -5   3  -6   37.34   49.29
  -5   3  -5    0.05   25.70
  -5   3  -5  -83.51   41.68
  -5   3  -4   21.51   12.08
  -5   3  -4    4.12   43.55
  -5   3  -4   13.95   26.37
  -5   3  -3   23.34   41.06
  -5   3  -3   22.46   14.01
  -5   3  -3   74.14   31.71
  -5   3  -2  117.61   33.68
  -5   3  -2  128.51   41.17
  -5   3  -1   21.50   20.74
  -5   3  -1    5.02   21.98
  -5   3  -1   -9.16   33.42
  -5   3   0  156.70   49.61
  -5   3   0   77.16   23.64
  -5   3   0  106.73   33.50
  -5   3   1   -4.71   25.25
  -5   3   1   23.74   11.47
  -5   3   1   20.25   11.94
  -5   3   1  -28.15   42.97
  -5   3   2  228.69   59.17
  -5   3   2  261.81   67.47
  -5   3   3   56.16   34.75
  -5   3   3   55.55   37.48
  -5   3   4   70.10   37.12
  -5   3   4  -14.18   32.16
  -5   3   5  -10.03   39.24
  -5   3   5    3.95   37.37
  -5   3   6   79.53   66.14
  -5   3   6    9.17   41.82
  -5   3   7   19.84   41.01
  -5   3   7   63.47   51.56
  -5   3   8   72.05   62.62
  -5   3   8   60.16   46.38
  -5   3   9   14.45   39.71
  -5   3   9   67.72   53.59
  -5   3  10   57.18   52.02
  -5   3  10  159.34   74.25
  -5   4 -11   87.97   68.51
  -5   4 -10  -73.18   62.33
  -5   4  -9  -24.24   51.60
  -5   4  -8   -5.44   45.41
  -5   4  -7  -12.52   13.83
  -5   4  -7   47.31   38.09
  -5   4  -6   39.14   25.67
  -5   4  -6  -29.32   42.90
  -5   4  -5   -1.20   19.80
  -5   4  -5  -34.18   38.29
  -5   4  -4    7.18   14.20
  -5   4  -4  -22.85   36.51
  -5   4  -4   40.93   26.01
  -5   4  -3  -30.27   26.32
  -5   4  -3   41.57   47.98
  -5   4  -3    3.22   19.69
  -5   4  -2   56.58   29.34
  -5   4  -2   40.35   25.56
  -5   4  -2   77.90   25.71
  -5   4  -1   66.97   20.26
  -5   4  -1    3.64   29.55
  -5   4  -1   77.36   27.88
  -5   4  -1   50.93   18.44
  -5   4   0   48.10   32.11
  -5   4   0    1.55   13.53
  -5   4   0  -17.11   36.71
  -5   4   0    8.69   14.36
  -5   4   1  190.84   47.19
  -5   4   1  228.83   60.18
  -5   4   2  853.08  106.40
  -5   4   2  712.17  103.34
  -5   4   3  288.31   70.25
  -5   4   3  324.56   70.34
  -5   4   4   74.92   45.61
  -5   4   4    5.05   31.57
  -5   4   5   62.51   33.95
  -5   4   5   89.75   53.95
  -5   4   6   14.53   57.37
  -5   4   6   64.34   43.24
  -5   4   7   56.20   36.66
  -5   4   7   41.80   54.77
  -5   4   8   44.38   47.66
  -5   4   8  119.17   67.81
  -5   4   9   -9.05   43.30
  -5   4   9   73.93   51.18
  -5   4  10   69.45   54.35
  -5   4  10   12.23   41.22
  -5   5 -10   72.67   73.38
  -5   5  -9  -36.73   47.37
  -5   5  -8   36.67   54.95
  -5   5  -7   -0.12   45.12
  -5   5  -6   27.01   20.92
  -5   5  -6   51.33   45.13
  -5   5  -5   24.63   25.02
  -5   5  -5   -4.17   42.08
  -5   5  -4   54.19   41.48
  -5   5  -4   13.44   24.74
  -5   5  -4   53.40   26.06
  -5   5  -3  -15.30   25.27
  -5   5  -3  -11.02   38.94
  -5   5  -3   -2.73   18.96
  -5   5  -2   36.99   31.30
  -5   5  -2   47.37   27.61
  -5   5  -2   -9.37   44.43
  -5   5  -2   34.00   23.81
  -5   5  -1   19.98   27.82
  -5   5  -1    4.87   15.49
  -5   5  -1   38.15   36.17
  -5   5   0    7.64   11.47
  -5   5   0   37.36   28.47
  -5   5   0    1.96   35.44
  -5   5   0    0.21   13.31
  -5   5   1   15.36   33.45
  -5   5   1  -20.19   32.95
  -5   5   2   48.04   44.94
  -5   5   2   43.18   43.67
  -5   5   3   92.86   46.18
  -5   5   3  132.39   45.59
  -5   5   4    8.81   45.83
  -5   5   4    8.46   42.83
  -5   5   5    9.60   37.04
  -5   5   5  -12.43   34.27
  -5   5   6    6.68   42.33
  -5   5   6  -56.45   55.11
  -5   5   7   34.83   52.52
  -5   5   7   17.20   40.93
  -5   5   8  -41.05   41.17
  -5   5   8   30.25   44.11
  -5   5   9   82.19   61.39
  -5   5   9   79.89   57.47
  -5   6  -9  -63.22   67.81
  -5   6  -8  -13.62   52.41
  -5   6  -7  -58.00   58.94
  -5   6  -6    2.06   20.37
  -5   6  -6   77.43   61.61
  -5   6  -5   17.96   26.24
  -5   6  -5   46.49   51.10
  -5   6  -4   35.19   34.31
  -5   6  -4  -13.61   22.67
  -5   6  -4    3.20   36.87
  -5   6  -3  -14.84   53.29
  -5   6  -3   59.46   22.46
  -5   6  -3   88.82   36.02
  -5   6  -2   52.55   65.95
  -5   6  -2   54.10   33.11
  -5   6  -2   49.75   35.57
  -5   6  -1   50.90   31.93
  -5   6  -1   59.34   31.88
  -5   6   0    8.73   24.95
  -5   6   0   45.80   53.51
  -5   6   1   -6.74   25.56
  -5   6   1   -7.79   37.97
  -5   6   2  -41.74   43.68
  -5   6   2   -7.30   38.62
  -5   6   3   61.00   54.92
  -5   6   3   41.65   39.85
  -5   6   4   30.76   39.33
  -5   6   4  -43.88   43.39
  -5   6   5   -3.81   50.83
  -5   6   5   49.83   48.99
  -5   6   6  101.90   49.96
  -5   6   6   71.29   52.51
  -5   6   7   12.79   42.80
  -5   6   7  -77.77   51.28
  -5   6   8   35.01   40.26
  -5   6   8   77.23   53.86
  -5   6   9   99.55   69.67
  -5   6   9  -58.13   54.45
  -5   7  -8   58.25   46.99
  -5   7  -7   28.34   47.92
  -5   7  -6  -59.88   60.63
  -5   7  -5    9.47   26.08
  -5   7  -5  -81.25   59.80
  -5   7  -4  -18.20   34.66
  -5   7  -4   69.25   35.50
  -5   7  -4   70.62   49.00
  -5   7  -3  -16.77   31.50
  -5   7  -3   46.72   52.72
  -5   7  -3   15.43   33.79
  -5   7  -2   33.37   37.97
  -5   7  -2  115.22   64.19
  -5   7  -2   41.67   25.20
  -5   7  -1   -5.66   25.51
  -5   7  -1   -5.45   30.57
  -5   7   0   -2.89   27.26
  -5   7   0   43.96   36.80
  -5   7   1   -9.05   28.30
  -5   7   1   40.82   47.25
  -5   7   2   -0.54   32.67
  -5   7   2  -23.34   51.60
  -5   7   3   72.68   51.47
  -5   7   3   17.39   53.35
  -5   7   4  -17.59   46.16
  -5   7   4   38.28   36.62
  -5   7   5    2.20   42.12
  -5   7   5  -90.96   60.96
  -5   7   6  -33.95   43.66
  -5   7   6    0.49   45.18
  -5   7   7   50.96   57.89
  -5   7   7  -27.35   53.10
  -5   7   8   67.87   42.55
  -5   7   8   44.89   41.15
  -5   8  -6   63.33   52.57
  -5   8  -5  -44.22   51.65
  -5   8  -4  -24.48   50.79
  -5   8  -4    2.71   25.95
  -5   8  -3   12.95   37.79
  -5   8  -3   51.30   38.80
  -5   8  -3   -7.91   57.93
  -5   8  -2  104.10   50.28
  -5   8  -2  122.60   66.09
  -5   8  -2   60.58   46.51
  -5   8  -1   32.17   45.70
  -5   8  -1   41.06   54.67
  -5   8  -1  -30.29   35.02
  -5   8   0   76.86   52.68
  -5   8   0  -31.43   27.98
  -5   8   1   59.06   41.42
  -5   8   1  -45.82   49.27
  -5   8   2   -0.07   45.88
  -5   8   2    1.29   41.34
  -5   8   3  135.74   59.84
  -5   8   3    7.07   47.74
  -5   8   4   31.32   40.81
  -5   8   4  -35.16   46.33
  -5   8   5  -18.40   43.61
  -5   8   5   16.24   45.58
  -5   8   6 -100.16   67.04
  -5   8   6  156.29   77.79
  -5   8   7    7.68   41.06
  -5   8   7   67.19   53.85
  -5   9  -4   45.74   51.89
  -5   9  -3   -1.98   28.22
  -5   9  -3   52.99   46.87
  -5   9  -3  -28.20   31.35
  -5   9  -2  -15.33   39.09
  -5   9  -2   34.11   55.00
  -5   9  -2  -38.78   38.44
  -5   9  -1    4.19   54.70
  -5   9  -1   17.33   35.15
  -5   9  -1  -32.21   48.97
  -5   9   0    0.63   36.64
  -5   9   0   53.97   48.84
  -5   9   1   26.30   40.64
  -5   9   1  102.75   64.57
  -5   9   2   61.50   44.70
  -5   9   2  -85.56   56.75
  -5   9   3   -5.13   37.29
  -5   9   3  -16.15   42.03
  -5   9   4   64.76   60.41
  -5   9   4    2.16   38.36
  -5   9   5  -20.03   39.32
  -5   9   5  -48.01   70.96
  -5  10   0   -1.28   50.54
  -5  10   0   60.95   68.58
  -5  10   0   -5.09   38.88
  -5  10   1  -80.95   56.50
  -5  10   1  102.12   53.66
  -4 -11  -8  -28.71   59.68
  -4 -11  -7  165.20   64.35
  -4 -11  -6  223.06   72.93
  -4 -11  -5  277.35   85.84
  -4 -11  -4  300.54   94.03
  -4 -11  -3  269.22   88.37
  -4 -11  -2  215.56   72.26
  -4 -11  -1   89.38   62.26
  -4 -11   0    3.56   39.63
  -4 -10 -10   89.40   50.73
  -4 -10  -9  264.67   91.66
  -4 -10  -8  108.73   54.60
  -4 -10  -7  147.58   76.13
  -4 -10  -6  477.31  109.29
  -4 -10  -5   54.26   46.44
  -4 -10  -4  563.76  111.54
  -4 -10  -3  386.91   89.73
  -4 -10  -2  255.15   81.45
  -4 -10  -1  422.92  101.80
  -4 -10   0  100.46   43.01
  -4 -10   1  -19.54   40.73
  -4 -10   2  374.56  101.66
  -4 -10   3  131.66   73.48
  -4  -9 -11  362.31  100.45
  -4  -9 -10   68.55   55.78
  -4  -9  -9   72.35   49.24
  -4  -9  -8  252.10   77.20
  -4  -9  -7  269.18   84.96
  -4  -9  -6  530.14  108.16
  -4  -9  -5  596.29  113.08
  -4  -9  -4  386.17   95.38
  -4  -9  -3  382.80   94.72
  -4  -9  -2  360.01   95.62
  -4  -9  -1  430.24   96.97
  -4  -9   0  351.06   89.29
  -4  -9   1  277.09   87.25
  -4  -9   2  115.56   62.48
  -4  -9   3   97.92   69.25
  -4  -9   4   88.56   58.69
  -4  -9   5  129.99   63.04
  -4  -8 -12  230.27   94.97
  -4  -8 -11  171.12   74.38
  -4  -8 -10  288.27   98.57
  -4  -8  -9  119.77   46.81
  -4  -8  -8  195.24   78.38
  -4  -8  -7  364.15   84.67
  -4  -8  -6  606.18  111.89
  -4  -8  -5  931.52  132.97
  -4  -8  -4  422.53   90.41
  -4  -8  -3  699.77  113.09
  -4  -8  -2  799.84  123.79
  -4  -8  -1  200.82   66.37
  -4  -8   0 1062.80  136.38
  -4  -8   1  529.53  102.72
  -4  -8   2  230.63   61.26
  -4  -8   3  109.43   45.72
  -4  -8   4  138.75   67.95
  -4  -8   5  209.72   78.39
  -4  -8   6   38.94   44.51
  -4  -7 -13  227.12   83.56
  -4  -7 -13   98.48   50.74
  -4  -7 -12   61.61   45.34
  -4  -7 -12   67.67   58.08
  -4  -7 -11  147.71   52.17
  -4  -7 -11  199.03   76.90
  -4  -7 -10  225.25   70.93
  -4  -7 -10  164.23   49.34
  -4  -7  -9  182.21   44.94
  -4  -7  -9  282.39   87.11
  -4  -7  -8  825.03  124.05
  -4  -7  -7  723.67  119.58
  -4  -7  -6  544.04  103.81
  -4  -7  -5  892.61  131.42
  -4  -7  -4  757.39  118.06
  -4  -7  -3  558.00   96.33
  -4  -7  -2  555.20   97.00
  -4  -7  -1  646.25  107.39
  -4  -7   0  550.50   97.20
  -4  -7   1  491.12   92.86
  -4  -7   2  350.45   87.38
  -4  -7   3  347.76   84.99
  -4  -7   4  139.98   59.29
  -4  -7   5  216.18   69.66
  -4  -7   6  147.05   64.69
  -4  -7   7  251.85   88.81
  -4  -6 -13  179.89   72.52
  -4  -6 -13   51.06   51.27
  -4  -6 -12  105.14   75.15
  -4  -6 -12   51.29   37.61
  -4  -6 -11  414.27  106.59
  -4  -6 -11  189.05   54.32
  -4  -6 -10  170.54   74.77
  -4  -6 -10  112.01   43.16
  -4  -6  -9  277.14   55.63
  -4  -6  -9  489.00  104.99
  -4  -6  -8 1058.92  141.46
  -4  -6  -8  579.45   70.43
  -4  -6  -7  290.20   44.04
  -4  -6  -7  665.09  109.41
  -4  -6  -6  526.94  100.24
  -4  -6  -5  898.65  122.60
  -4  -6  -4  611.60   99.69
  -4  -6  -3 1237.32  137.94
  -4  -6  -2 1664.75  156.06
  -4  -6  -1 1068.97  125.97
  -4  -6   0  745.41  106.72
  -4  -6   1 1413.63  148.98
  -4  -6   2    8.48   15.19
  -4  -6   2   74.57   44.45
  -4  -6   3 1790.14  172.50
  -4  -6   4  369.20   82.54
  -4  -6   5   17.03   40.93
  -4  -6   6  474.69  101.53
  -4  -6   7  157.37   74.92
  -4  -6   7   69.48   52.92
  -4  -6   8   61.58   48.90
  -4  -6   8  130.63   54.98
  -4  -6   8  229.03  105.40
  -4  -5 -14   76.06   51.96
  -4  -5 -14  101.07   76.31
  -4  -5 -13  228.40   85.55
  -4  -5 -13   36.21   34.73
  -4  -5 -12  114.16   58.38
  -4  -5 -12  262.64   82.31
  -4  -5 -11  330.26   92.90
  -4  -5 -11  114.97   35.99
  -4  -5 -10  478.18  112.23
  -4  -5 -10  336.51   60.42
  -4  -5  -9  517.81  102.98
  -4  -5  -9  391.93   62.78
  -4  -5  -8  386.60   55.23
  -4  -5  -8  531.81  102.62
  -4  -5  -7  837.69  120.26
  -4  -5  -7  589.52   62.60
  -4  -5  -6  687.19  112.05
  -4  -5  -6  396.16   43.10
  -4  -5  -5  705.68  107.77
  -4  -5  -5  315.16   26.29
  -4  -5  -4 1162.73  133.58
  -4  -5  -3 1545.57  148.58
  -4  -5  -2 1558.92  146.86
  -4  -5  -1 1496.15  138.92
  -4  -5   0  853.90  107.96
  -4  -5   1  278.12   35.08
  -4  -5   1  508.28   84.97
  -4  -5   2  490.40   88.98
  -4  -5   2  282.15   42.66
  -4  -5   3  503.62   88.67
  -4  -5   3  285.89   48.86
  -4  -5   4  499.00   92.69
  -4  -5   5  533.80   97.22
  -4  -5   6  333.53   82.19
  -4  -5   7  253.88   77.51
  -4  -5   7  184.87   72.23
  -4  -5   8  137.05   67.85
  -4  -5   8  229.22  100.24
  -4  -5   8  227.41   82.30
  -4  -5   9   80.81   84.22
  -4  -5   9  148.01   67.34
  -4  -5   9  104.18   70.31
  -4  -4 -14   58.54   58.03
  -4  -4 -14  128.87   70.70
  -4  -4 -13  192.32   80.00
  -4  -4 -13  170.82   69.14
  -4  -4 -12  301.24   76.66
  -4  -4 -12  363.63  107.37
  -4  -4 -11  231.93   58.19
  -4  -4 -11  409.26  101.58
  -4  -4 -10  776.73  131.04
  -4  -4 -10  588.53   85.90
  -4  -4  -9  443.61   64.42
  -4  -4  -9  426.24   61.31
  -4  -4  -8  207.03   42.30
  -4  -4  -8  236.49   48.03
  -4  -4  -8  227.44   70.83
  -4  -4  -7  504.03  101.63
  -4  -4  -7  392.21   53.67
  -4  -4  -7  392.53   54.60
  -4  -4  -6  297.23   39.35
  -4  -4  -6  336.64   76.35
  -4  -4  -6  251.45   40.95
  -4  -4  -5  759.26   70.88
  -4  -4  -5  639.19   48.76
  -4  -4  -4 1160.75   89.58
  -4  -4  -4 1493.66  134.94
  -4  -4  -3 2442.41  171.49
  -4  -4  -3 1995.09  122.40
  -4  -4  -2 2830.44  181.88
  -4  -4  -1 3552.86  199.23
  -4  -4   0  367.72   30.72
  -4  -4   0  686.46   91.65
  -4  -4   1  758.55   98.93
  -4  -4   1  564.85   45.64
  -4  -4   2 1778.26   96.22
  -4  -4   2 2225.32  164.98
  -4  -4   3   17.99   37.79
  -4  -4   3   -2.39   18.32
  -4  -4   4 1312.08  136.08
  -4  -4   5  508.86   99.20
  -4  -4   6  682.19  107.76
  -4  -4   6  698.17  114.20
  -4  -4   7  597.22  111.98
  -4  -4   7  438.69   93.34
  -4  -4   7  630.00  132.72
  -4  -4   8  296.85   76.27
  -4  -4   8  390.61  110.24
  -4  -4   8  593.24  116.33
  -4  -4   9  170.87   67.27
  -4  -4   9  199.42   80.28
  -4  -4   9  271.00  108.34
  -4  -4  10  276.10   75.54
  -4  -4  10  434.36  125.12
  -4  -3 -14   48.32   62.39
  -4  -3 -13  112.76   67.60
  -4  -3 -12  343.35   79.55
  -4  -3 -11  469.32   79.34
  -4  -3 -11  469.47  109.96
  -4  -3 -10  642.70   94.26
  -4  -3 -10  638.48  125.08
  -4  -3  -9  333.39   60.94
  -4  -3  -9  254.86   42.31
  -4  -3  -8  393.21   86.92
  -4  -3  -8  255.64   41.69
  -4  -3  -8  295.07   54.78
  -4  -3  -7  284.81   49.94
  -4  -3  -7  355.82   83.41
  -4  -3  -7  300.52   40.98
  -4  -3  -6  509.79   50.28
  -4  -3  -6  560.42   56.02
  -4  -3  -5  915.05  115.31
  -4  -3  -5  830.80   63.39
  -4  -3  -5  769.83   62.89
  -4  -3  -4 1885.61   79.30
  -4  -3  -4 1980.46  103.66
  -4  -3  -4 2100.54  156.99
  -4  -3  -3 2005.98  110.18
  -4  -3  -3 2254.53  156.71
  -4  -3  -3 2023.33   70.13
  -4  -3  -2 1879.16   67.00
  -4  -3  -2 1982.11   64.73
  -4  -3  -1 2145.39  151.45
  -4  -3  -1 2017.57   67.76
  -4  -3   0 1831.11   75.16
  -4  -3   0 1950.15  141.51
  -4  -3   1 1125.00  111.82
  -4  -3   1  924.70   63.27
  -4  -3   2  541.51   81.22
  -4  -3   2  434.43   50.25
  -4  -3   3  405.35   74.46
  -4  -3   3  274.04   45.44
  -4  -3   4  386.06   78.26
  -4  -3   5  530.03  116.58
  -4  -3   5  552.44   89.04
  -4  -3   5  603.41  105.63
  -4  -3   6  677.84  105.24
  -4  -3   6  769.74  136.90
  -4  -3   6  883.81  129.27
  -4  -3   7  800.25  129.15
  -4  -3   7  656.30  132.08
  -4  -3   7  707.88  101.99
  -4  -3   8  457.59   94.16
  -4  -3   8  481.54  120.91
  -4  -3   8  283.76   74.38
  -4  -3   9  279.76   86.96
  -4  -3   9  115.54   48.53
  -4  -3   9  327.92  100.33
  -4  -3  10  107.10   74.83
  -4  -3  10  186.89   68.39
  -4  -2 -14  160.03   70.67
  -4  -2 -13  151.58   66.59
  -4  -2 -12  236.67   69.61
  -4  -2 -11  526.40   94.24
  -4  -2 -10  636.02   92.70
  -4  -2  -9  186.88   52.49
  -4  -2  -9  170.59   39.68
  -4  -2  -8  517.80   59.70
  -4  -2  -8  428.80   42.32
  -4  -2  -8  607.10   79.55
  -4  -2  -7  545.60   66.80
  -4  -2  -7  507.19   94.89
  -4  -2  -7  583.50   65.80
  -4  -2  -7  423.55   39.26
  -4  -2  -6  597.67   67.30
  -4  -2  -6  704.76   70.41
  -4  -2  -6  523.51   40.63
  -4  -2  -5 1401.78  101.59
  -4  -2  -5 1550.45  142.55
  -4  -2  -5 1547.70   93.73
  -4  -2  -5 1334.32   66.66
  -4  -2  -4 3001.17  180.79
  -4  -2  -4 2656.08  102.09
  -4  -2  -4 2759.50  114.41
  -4  -2  -3 1375.30  116.50
  -4  -2  -3 1338.61   78.81
  -4  -2  -3 1435.88   76.15
  -4  -2  -2 4225.73  196.16
  -4  -2  -2 4196.18  126.53
  -4  -2  -1 1104.02   98.68
  -4  -2  -1 1139.84   64.71
  -4  -2   0 3860.35  182.05
  -4  -2   0 3873.99  125.39
  -4  -2   1 2945.59  162.04
  -4  -2   1 2903.97  119.01
  -4  -2   2 1095.98  100.12
  -4  -2   2  903.83   73.93
  -4  -2   3  695.06  108.82
  -4  -2   3  703.81  107.20
  -4  -2   3  621.80   77.31
  -4  -2   3  525.38   63.95
  -4  -2   4  673.81   89.73
  -4  -2   4  689.27  109.23
  -4  -2   4  845.80  118.35
  -4  -2   5  604.54   86.52
  -4  -2   5  763.41  113.21
  -4  -2   5  718.43  125.42
  -4  -2   6  332.41   83.64
  -4  -2   6  265.66   65.44
  -4  -2   6  355.87   93.28
  -4  -2   7 1406.17  177.06
  -4  -2   7 1095.72  124.28
  -4  -2   7 1337.83  151.16
  -4  -2   8  567.92  119.02
  -4  -2   8  529.90   90.75
  -4  -2   8  735.34  120.74
  -4  -2   9  388.67   83.22
  -4  -2   9  443.41   95.58
  -4  -2   9  530.16  122.26
  -4  -2  10  384.22  112.48
  -4  -2  10  359.55   85.85
  -4  -2  11  288.16  102.94
  -4  -2  11  371.16   94.60
  -4  -1 -14  146.03   67.24
  -4  -1 -13  185.85   65.78
  -4  -1 -12  434.96   89.45
  -4  -1 -11  218.89   73.71
  -4  -1 -10  116.36   51.46
  -4  -1  -9  515.19   82.57
  -4  -1  -9  459.31   45.36
  -4  -1  -8  290.85   40.44
  -4  -1  -8  326.00   60.11
  -4  -1  -7  803.38   67.91
  -4  -1  -7  789.25   89.18
  -4  -1  -6 1742.50  120.70
  -4  -1  -6 1617.84   99.85
  -4  -1  -5 1575.16  107.78
  -4  -1  -5 1526.62  138.63
  -4  -1  -4 1547.54   99.13
  -4  -1  -4 1363.82   57.91
  -4  -1  -4 1517.39  132.43
  -4  -1  -3 2362.91  148.62
  -4  -1  -3 2297.81  117.52
  -4  -1  -2 1242.21  101.56
  -4  -1  -1 2129.12  128.99
  -4  -1  -1 2228.44  134.46
  -4  -1   0 1582.45  127.50
  -4  -1   0 1615.54   96.29
  -4  -1   0 1709.86  115.42
  -4  -1   1 1434.71   92.62
  -4  -1   1 1489.04  132.73
  -4  -1   1 1502.33  138.34
  -4  -1   1 1491.34  107.73
  -4  -1   2 1695.61  153.09
  -4  -1   2 1730.28  151.73
  -4  -1   2 1601.39  115.75
  -4  -1   2 1659.96  104.73
  -4  -1   3 1257.81  103.07
  -4  -1   3 1459.24  110.88
  -4  -1   3 1595.31  156.64
  -4  -1   3 1718.98  155.29
  -4  -1   4  885.03  119.31
  -4  -1   4  877.24  123.36
  -4  -1   4  916.08   94.30
  -4  -1   5  515.09   96.92
  -4  -1   5  648.48  106.18
  -4  -1   5  567.40   79.30
  -4  -1   6  349.68   80.09
  -4  -1   6  386.77   71.94
  -4  -1   6  399.93   91.41
  -4  -1   7  412.34   91.63
  -4  -1   7  373.47  102.28
  -4  -1   7  298.72   61.27
  -4  -1   8  368.57   75.64
  -4  -1   8  465.99  107.48
  -4  -1   8  582.52  104.04
  -4  -1   9  465.09   91.86
  -4  -1   9  464.68  106.95
  -4  -1  10  443.39   95.15
  -4  -1  10  450.22  115.76
  -4  -1  11  345.47   87.76
  -4  -1  11  164.34   83.07
  -4   0 -13  296.73   85.05
  -4   0 -12  612.61  108.87
  -4   0 -11  264.48   69.72
  -4   0 -10  149.01   48.46
  -4   0  -9  396.75   34.63
  -4   0  -9  405.55   30.63
  -4   0  -8  384.11   43.97
  -4   0  -8  399.76   73.55
  -4   0  -8  352.94   35.93
  -4   0  -7 1379.28   79.44
  -4   0  -7 1564.44  130.18
  -4   0  -6 1902.75  133.61
  -4   0  -6 1802.42   97.42
  -4   0  -5 1704.54  121.77
  -4   0  -4 1837.14  121.53
  -4   0  -3 2603.73  136.86
  -4   0  -3 2565.25  148.65
  -4   0  -3 2456.30  147.61
  -4   0  -3 2435.23   90.89
  -4   0  -2  943.41   82.38
  -4   0  -2  823.00   64.36
  -4   0  -2  863.37   89.70
  -4   0  -1 4991.34  176.27
  -4   0  -1 5554.57  223.75
  -4   0  -1 5146.65  181.12
  -4   0   0 2073.01  111.80
  -4   0   0 1999.21  110.70
  -4   0   0 1939.58  125.96
  -4   0   0 1936.14  143.78
  -4   0   1  661.21   70.15
  -4   0   1  755.03   94.13
  -4   0   1  693.55   65.56
  -4   0   1  681.46   84.23
  -4   0   2 2503.43  136.03
  -4   0   2 2411.13  170.81
  -4   0   2 2718.05  173.45
  -4   0   2 2627.84  127.08
  -4   0   3 3491.22  215.52
  -4   0   3 3291.17  145.49
  -4   0   3 3503.78  211.70
  -4   0   4  858.39   80.36
  -4   0   4  977.91  119.33
  -4   0   4  768.27  111.01
  -4   0   5 1762.09  160.71
  -4   0   5 1427.99  107.07
  -4   0   5 1691.75  162.04
  -4   0   6  670.92  111.66
  -4   0   6  504.20   68.73
  -4   0   6  719.23  112.03
  -4   0   7  299.59   75.05
  -4   0   7  273.27   76.84
  -4   0   7  209.39   48.86
  -4   0   8  359.54   89.13
  -4   0   8  391.66   97.38
  -4   0   9  756.77  134.62
  -4   0   9  737.25  120.45
  -4   0  10  687.57  118.00
  -4   0  10  597.58  132.22
  -4   0  11  651.04  111.80
  -4   0  11  640.46  133.37
  -4   1 -13  248.02   85.31
  -4   1 -12   82.45   62.63
  -4   1 -11  477.31   97.98
  -4   1 -10  343.66   79.27
  -4   1  -9  415.42   84.16
  -4   1  -8  323.16   22.99
  -4   1  -8  347.74   23.32
  -4   1  -7  414.91   39.11
  -4   1  -7  419.00   44.25
  -4   1  -7  485.83   83.09
  -4   1  -6 1248.43  121.05
  -4   1  -6 1198.71   83.72
  -4   1  -5 1353.99   97.65
  -4   1  -5 1493.47  123.52
  -4   1  -4 1234.24  108.40
  -4   1  -4 1276.57   97.96
  -4   1  -3 2031.87  127.02
  -4   1  -3 2121.29  138.68
  -4   1  -2 2013.37   91.91
  -4   1  -2 2266.49  137.86
  -4   1  -2 2058.32  122.98
  -4   1  -1 1179.14  101.38
  -4   1  -1 1112.12   80.38
  -4   1  -1 1070.38   79.90
  -4   1   0 1869.56   98.01
  -4   1   0 1781.18  115.39
  -4   1   0 1875.54  137.13
  -4   1   1 2104.03  130.93
  -4   1   1 2096.05  152.47
  -4   1   1 1955.13  134.82
  -4   1   1 2017.80   97.67
  -4   1   2 1666.36  137.29
  -4   1   2 1490.34   81.31
  -4   1   2 1532.34  137.86
  -4   1   3 1402.44  133.90
  -4   1   3 1314.56   79.56
  -4   1   3 1538.91  143.43
  -4   1   4 1246.33  135.48
  -4   1   4 1013.79   73.97
  -4   1   4 1305.13  136.86
  -4   1   5  846.79  121.24
  -4   1   5  842.87  113.84
  -4   1   5  648.80   65.19
  -4   1   6  519.64  101.28
  -4   1   6  595.48  100.69
  -4   1   7  432.32   82.46
  -4   1   7  497.51  103.70
  -4   1   8  372.90  104.26
  -4   1   8  324.07   74.88
  -4   1   9  416.35   93.29
  -4   1   9  249.28   83.48
  -4   1  10  468.61   92.84
  -4   1  10  372.20  108.78
  -4   1  11  486.09  102.98
  -4   1  11  377.91  108.07
  -4   2 -13  225.50   80.79
  -4   2 -12   33.83   39.65
  -4   2 -11  411.05   92.11
  -4   2 -10  616.74  111.57
  -4   2  -9  989.33  130.76
  -4   2  -8  641.31   99.93
  -4   2  -7  306.86   28.36
  -4   2  -7  367.96   32.06
  -4   2  -6  672.29   91.89
  -4   2  -6  631.99   53.60
  -4   2  -5  434.56   52.39
  -4   2  -5  437.17   74.52
  -4   2  -4 1504.82  100.23
  -4   2  -4 1560.82  125.37
  -4   2  -3 2806.13  172.36
  -4   2  -3 2418.27   87.64
  -4   2  -3 2625.04  139.14
  -4   2  -2 2773.35  151.89
  -4   2  -2 3025.96  114.28
  -4   2  -1 2653.95  119.82
  -4   2  -1 2401.53  117.29
  -4   2  -1 2740.44  151.48
  -4   2   0 2624.44  161.84
  -4   2   0 2706.30  104.50
  -4   2   0 2593.74  135.77
  -4   2   1 2843.95   96.51
  -4   2   1 2745.84  151.32
  -4   2   1 2845.21  174.93
  -4   2   2 1668.82   63.03
  -4   2   2 1912.58  137.63
  -4   2   2 1981.66  150.63
  -4   2   3  894.60   44.37
  -4   2   3 1203.91  124.04
  -4   2   3 1249.85  122.58
  -4   2   4  468.39   80.98
  -4   2   4  410.88   72.83
  -4   2   5 1541.94  152.12
  -4   2   5 1533.10  146.00
  -4   2   6  714.63  103.09
  -4   2   6  797.07  116.15
  -4   2   7  429.61   81.01
  -4   2   7  468.74  100.41
  -4   2   8 1561.62  178.28
  -4   2   8 1467.21  156.34
  -4   2   9  247.54   74.01
  -4   2   9  390.68  100.34
  -4   2  10  443.12   94.04
  -4   2  10  416.18  102.42
  -4   2  11  321.15   88.88
  -4   2  11  265.35   81.30
  -4   3 -12  131.58   68.30
  -4   3 -11  208.08   70.88
  -4   3 -10  631.70  123.48
  -4   3  -9  438.54   91.17
  -4   3  -8 1022.24  134.78
  -4   3  -7  636.28  101.38
  -4   3  -7  268.76   19.84
  -4   3  -6  159.59   64.81
  -4   3  -6  174.17   28.86
  -4   3  -5  604.24   96.69
  -4   3  -5  548.17   55.35
  -4   3  -4  397.43   39.21
  -4   3  -4  553.73   61.29
  -4   3  -4  497.28   84.09
  -4   3  -3  806.00   82.36
  -4   3  -3 1022.65   86.42
  -4   3  -3 1104.06  117.51
  -4   3  -3  858.04   60.87
  -4   3  -2 2280.81  138.10
  -4   3  -2 2252.30  109.70
  -4   3  -2 2155.82  117.95
  -4   3  -1 2296.83  109.01
  -4   3  -1 2645.22  149.91
  -4   3  -1 2453.31  125.33
  -4   3   0 2657.01  140.40
  -4   3   0 2593.91   99.37
  -4   3   0 2498.03   93.61
  -4   3   0 2707.85  163.44
  -4   3   1 1769.94   57.89
  -4   3   1 2042.49  139.12
  -4   3   1 1967.20  144.91
  -4   3   2  820.90   94.66
  -4   3   2  884.15  105.32
  -4   3   3  511.70   81.95
  -4   3   3  494.23   76.32
  -4   3   4  555.24   85.27
  -4   3   4  574.38   92.31
  -4   3   5  239.02   64.26
  -4   3   5  359.21   79.33
  -4   3   6  507.31   92.35
  -4   3   6  607.85   99.71
  -4   3   7  789.10  112.21
  -4   3   7  712.87  111.41
  -4   3   8  690.14  115.94
  -4   3   8  819.80  126.96
  -4   3   9  568.31  107.52
  -4   3   9  706.52  126.76
  -4   3  10  262.96   80.38
  -4   3  10  186.55   72.69
  -4   3  11  132.41   74.36
  -4   3  11  214.32   72.99
  -4   4 -12  125.19   49.19
  -4   4 -11  251.69   85.27
  -4   4 -10  411.69   96.79
  -4   4  -9  242.25   74.43
  -4   4  -8  919.37  126.53
  -4   4  -7  418.50   90.90
  -4   4  -7  188.49   17.13
  -4   4  -6  470.86   90.19
  -4   4  -6  314.47   35.63
  -4   4  -5  794.08  113.24
  -4   4  -5  828.02   67.42
  -4   4  -4  494.48   58.00
  -4   4  -4  541.35   88.92
  -4   4  -4  384.20   44.27
  -4   4  -3  970.71   85.24
  -4   4  -3  732.04   81.35
  -4   4  -3 1112.95  124.85
  -4   4  -3  838.67   68.70
  -4   4  -2 1961.76  128.28
  -4   4  -2 1724.91  107.68
  -4   4  -2 1822.32  108.98
  -4   4  -1 1633.29   92.47
  -4   4  -1 1739.04  110.30
  -4   4   0 3255.82  181.12
  -4   4   0 3280.83  159.98
  -4   4   0 3020.12  103.84
  -4   4   1 2546.17  155.15
  -4   4   1 2547.77  164.06
  -4   4   2  520.49   78.15
  -4   4   2  489.78   72.83
  -4   4   3  653.47   95.41
  -4   4   3  560.22   88.48
  -4   4   4 1806.23  156.02
  -4   4   4 1686.46  153.40
  -4   4   5   35.34   35.64
  -4   4   5    1.07   39.22
  -4   4   6 1803.47  175.25
  -4   4   6 1676.31  159.91
  -4   4   7  673.81  118.44
  -4   4   7  730.14  110.97
  -4   4   8  440.16  101.41
  -4   4   8  324.61   82.68
  -4   4   9  895.07  142.33
  -4   4   9  918.29  132.76
  -4   4  10  167.87   66.18
  -4   4  10  318.34   91.82
  -4   4  11  250.90   80.16
  -4   4  11  290.31   85.19
  -4   5 -11  164.24   66.82
  -4   5 -10  169.78   76.20
  -4   5  -9  358.23   98.59
  -4   5  -8  144.72   63.62
  -4   5  -7  573.22  111.51
  -4   5  -6  543.09  104.14
  -4   5  -6  354.76   38.50
  -4   5  -5  525.74   57.86
  -4   5  -5  616.53  104.67
  -4   5  -4  568.26   66.02
  -4   5  -4  612.68   99.56
  -4   5  -4  657.74   70.09
  -4   5  -3  568.41   69.84
  -4   5  -3  480.14   59.95
  -4   5  -3  538.05   98.33
  -4   5  -2  736.53   76.68
  -4   5  -2  567.71   66.42
  -4   5  -2  929.29   92.61
  -4   5  -2 1016.53  131.44
  -4   5  -1  942.17   74.02
  -4   5  -1 1103.83   99.39
  -4   5   0  719.81   55.26
  -4   5   0  851.56   87.58
  -4   5   0  928.57  100.30
  -4   5   1  902.14   96.26
  -4   5   1 1015.08  106.55
  -4   5   2  942.64  106.83
  -4   5   2 1078.49  111.11
  -4   5   3  615.88   93.37
  -4   5   3  525.28   84.95
  -4   5   4  406.97   80.15
  -4   5   4  353.24   76.00
  -4   5   5  700.63  108.22
  -4   5   5  720.23  111.36
  -4   5   6  311.14   75.71
  -4   5   6  417.99   87.95
  -4   5   7  418.74   80.98
  -4   5   7  374.98   90.51
  -4   5   8  319.67   84.56
  -4   5   8  218.43   71.65
  -4   5   9  296.26   86.51
  -4   5   9  343.63   89.44
  -4   5  10  192.52   68.96
  -4   5  10   82.61   59.19
  -4   5  11  108.57   65.46
  -4   5  11  224.49   76.67
  -4   6 -10  182.81   78.18
  -4   6  -9  179.01   68.97
  -4   6  -8   36.63   55.07
  -4   6  -7  256.18   72.67
  -4   6  -6  513.31   54.40
  -4   6  -6  710.96  120.54
  -4   6  -5  844.40  132.89
  -4   6  -5  544.95   60.84
  -4   6  -4  597.66   70.08
  -4   6  -4  506.17   66.65
  -4   6  -3  529.09   74.99
  -4   6  -3  590.45   74.50
  -4   6  -2  812.51  116.64
  -4   6  -2  725.80   87.07
  -4   6  -2  607.44   79.78
  -4   6  -1  492.49   59.93
  -4   6  -1  677.71   84.49
  -4   6  -1  773.59   96.06
  -4   6   0  538.42   56.23
  -4   6   0  687.99   87.83
  -4   6   0  772.03   94.07
  -4   6   1  524.24   85.66
  -4   6   1  366.12   34.22
  -4   6   1  625.26   80.80
  -4   6   2 1251.20  122.46
  -4   6   2 1148.88  122.89
  -4   6   3  922.10  106.45
  -4   6   3  785.64  112.01
  -4   6   4  434.08   89.79
  -4   6   4  389.16   80.49
  -4   6   5 1634.35  161.94
  -4   6   5 1527.04  158.97
  -4   6   6  273.74   78.97
  -4   6   6  217.46   70.70
  -4   6   7  606.30  110.10
  -4   6   7  722.33  120.86
  -4   6   8   64.08   47.88
  -4   6   8  103.71   58.90
  -4   6   9  331.92   98.81
  -4   6   9  217.24   77.00
  -4   6  10  356.99  105.42
  -4   6  10   47.72   48.71
  -4   7  -9  121.19   57.17
  -4   7  -8   42.24   57.19
  -4   7  -7  345.94  102.04
  -4   7  -6  157.52   61.51
  -4   7  -5  414.71   89.22
  -4   7  -5  246.78   46.83
  -4   7  -4  661.97  120.34
  -4   7  -4  573.35   72.65
  -4   7  -3  488.64   77.26
  -4   7  -3  450.61   63.43
  -4   7  -2  504.50  107.21
  -4   7  -2  302.81   64.43
  -4   7  -2  341.64   62.87
  -4   7  -1  365.35   67.73
  -4   7  -1  358.69   72.14
  -4   7   0  186.71   56.19
  -4   7   0  229.53   57.92
  -4   7   0  153.11   33.57
  -4   7   1  483.72   89.06
  -4   7   1  388.70   79.45
  -4   7   2  337.47   71.62
  -4   7   2  453.81   80.32
  -4   7   3  644.39   99.49
  -4   7   3  525.06   97.63
  -4   7   4  659.70  103.36
  -4   7   4  710.07  114.20
  -4   7   5  489.66   99.72
  -4   7   5  474.38   91.12
  -4   7   6  305.62   82.92
  -4   7   6  296.39   78.00
  -4   7   7  141.27   52.48
  -4   7   7  215.77   77.59
  -4   7   8   36.12   47.03
  -4   7   8  265.60   82.13
  -4   7   9   91.52   55.79
  -4   7   9   93.25   58.85
  -4   7  10  191.11   72.87
  -4   7  10   69.40   47.10
  -4   8  -7  246.94   90.95
  -4   8  -6   25.78   48.30
  -4   8  -5  161.39   46.15
  -4   8  -5  193.00   79.63
  -4   8  -4  221.64   52.90
  -4   8  -4  350.46   87.47
  -4   8  -3  365.42   70.37
  -4   8  -3  387.81   68.98
  -4   8  -3  456.18  104.67
  -4   8  -2  503.68  103.49
  -4   8  -2  406.94   70.64
  -4   8  -2  471.67   79.30
  -4   8  -1  427.70   76.11
  -4   8  -1  411.91   80.01
  -4   8   0  185.92   52.21
  -4   8   0  166.25   49.69
  -4   8   1  787.85  103.26
  -4   8   1  716.04   95.09
  -4   8   2  286.04   72.15
  -4   8   2  314.95   71.83
  -4   8   3  517.82   91.94
  -4   8   3  504.12   97.87
  -4   8   4  680.82  107.80
  -4   8   4  668.10  112.32
  -4   8   5  260.88   78.82
  -4   8   5  273.90   78.24
  -4   8   6   89.23   42.27
  -4   8   6  105.52   60.03
  -4   8   7  210.94   80.42
  -4   8   7  101.66   61.85
  -4   8   8  236.69   80.72
  -4   8   8  433.27  101.06
  -4   8   9  -20.22   45.38
  -4   8   9   63.58   45.32
  -4   9  -6  215.93   84.92
  -4   9  -5  119.17   59.60
  -4   9  -4  343.08   91.26
  -4   9  -4  137.39   52.82
  -4   9  -3  133.18   49.08
  -4   9  -3  164.21   51.13
  -4   9  -3  283.29   89.68
  -4   9  -2  179.99   58.83
  -4   9  -2  267.70   82.11
  -4   9  -2  145.38   46.86
  -4   9  -1  226.87   65.18
  -4   9  -1  245.86   65.74
  -4   9  -1  433.15  108.85
  -4   9   0  375.87   79.75
  -4   9   0  462.21   86.37
  -4   9   1  127.08   54.48
  -4   9   1   44.43   41.16
  -4   9   2  294.73   87.54
  -4   9   2  395.21   83.67
  -4   9   3  175.39   48.74
  -4   9   3  232.30   57.65
  -4   9   4  186.35   63.94
  -4   9   4  108.07   49.14
  -4   9   5  110.05   44.59
  -4   9   5  130.04   57.91
  -4   9   6   46.26   36.57
  -4   9   6  219.44   71.51
  -4   9   7   24.35   46.38
  -4   9   7   53.17   43.24
  -4   9   8   98.41   57.49
  -4   9   8  -12.96   44.85
  -4  10  -3   39.61   33.90
  -4  10  -3   57.65   56.18
  -4  10  -2   -6.31   42.50
  -4  10  -2  156.68   65.95
  -4  10  -1  311.72   84.09
  -4  10  -1  356.11  102.75
  -4  10  -1  178.33   63.94
  -4  10   0  280.97   79.09
  -4  10   0  468.15   90.21
  -4  10   1  276.40   82.61
  -4  10   1  190.99   65.52
  -4  10   2  332.37   73.93
  -4  10   2  347.52   88.06
  -4  10   3  159.04   59.21
  -4  10   3   91.49   59.02
  -4  10   4  142.16   73.89
  -4  10   4  192.61   77.45
  -4  10   5   92.04   59.75
  -4  10   5    3.19   41.67
  -4  10   6  154.93   65.43
  -4  10   6  122.10   52.05
  -3 -12  -6  -28.61   45.68
  -3 -12  -5   35.28   45.73
  -3 -12  -4  113.52   67.27
  -3 -12  -3   92.14   57.66
  -3 -12  -2   -8.29   44.66
  -3 -12  -1  -64.57   56.53
  -3 -11  -9  -91.05   65.45
  -3 -11  -8   98.82   65.18
  -3 -11  -7  151.55   68.22
  -3 -11  -6  -69.19   48.34
  -3 -11  -5  -41.83   37.96
  -3 -11  -4   98.55   59.09
  -3 -11  -3   21.20   34.66
  -3 -11  -2   98.76   49.54
  -3 -11  -1    4.09   40.85
  -3 -11   0  -75.00   62.41
  -3 -11   1   11.90   36.42
  -3 -11   2  -42.00   51.05
  -3 -10 -11  -80.64   50.87
  -3 -10 -10   11.63   50.71
  -3 -10  -9   12.34   54.82
  -3 -10  -8  159.77   72.13
  -3 -10  -7  -24.13   60.62
  -3 -10  -6  131.44   70.76
  -3 -10  -5  -19.02   42.34
  -3 -10  -4  -52.29   37.92
  -3 -10  -3   29.25   37.18
  -3 -10  -2  131.68   66.70
  -3 -10  -1   57.23   45.62
  -3 -10   0   -5.60   31.95
  -3 -10   1   19.07   47.06
  -3 -10   2   13.79   43.70
  -3 -10   3   -8.45   47.32
  -3 -10   4  -72.30   62.01
  -3  -9 -12  -51.51   61.89
  -3  -9 -11   61.23   57.46
  -3  -9 -10   -5.30   38.39
  -3  -9  -9   26.86   39.89
  -3  -9  -8    9.76   39.99
  -3  -9  -7   73.91   48.01
  -3  -9  -6  -35.10   43.28
  -3  -9  -5   17.22   37.32
  -3  -9  -4   14.26   35.47
  -3  -9  -3   71.92   47.84
  -3  -9  -2  -82.57   54.61
  -3  -9  -1  -30.02   35.74
  -3  -9   0   58.30   46.57
  -3  -9   1   54.00   48.97
  -3  -9   2   17.23   40.98
  -3  -9   3   36.14   46.92
  -3  -9   4  -47.58   49.99
  -3  -9   5   72.50   41.55
  -3  -9   6   75.78   67.70
  -3  -8 -13   49.68   37.19
  -3  -8 -13   20.40   46.79
  -3  -8 -12  136.10   69.09
  -3  -8 -12   30.45   31.23
  -3  -8 -11   24.62   27.13
  -3  -8 -11   75.57   53.90
  -3  -8 -10  -68.39   62.87
  -3  -8  -9   54.92   64.79
  -3  -8  -8  178.28   69.72
  -3  -8  -7  -12.96   42.79
  -3  -8  -6  -10.54   37.42
  -3  -8  -5   37.50   37.77
  -3  -8  -4  119.62   60.20
  -3  -8  -3   77.99   47.63
  -3  -8  -2   29.76   36.07
  -3  -8  -1   14.46   37.83
  -3  -8   0  270.42   76.70
  -3  -8   1   21.51   29.39
  -3  -8   2   24.30   37.41
  -3  -8   3   90.68   55.13
  -3  -8   4  -13.05   36.01
  -3  -8   5   60.39   38.65
  -3  -8   6   16.04   38.58
  -3  -8   7  -52.76   59.57
  -3  -7 -13   85.39   57.82
  -3  -7 -13  -27.85   52.02
  -3  -7 -12  -34.82   35.43
  -3  -7 -12   30.12   37.03
  -3  -7 -11   41.99   56.20
  -3  -7 -11   38.41   43.25
  -3  -7 -10   41.46   33.46
  -3  -7 -10   70.71   55.45
  -3  -7  -9    3.42   39.02
  -3  -7  -9   56.72   34.04
  -3  -7  -8   53.20   44.29
  -3  -7  -7   32.94   37.19
  -3  -7  -6   39.35   41.83
  -3  -7  -5   79.23   42.89
  -3  -7  -4  147.92   59.73
  -3  -7  -3   87.39   41.72
  -3  -7  -2  -42.25   35.25
  -3  -7  -1   63.79   42.88
  -3  -7   0   26.34   38.17
  -3  -7   1   61.28   46.14
  -3  -7   2  -15.28   37.91
  -3  -7   3   77.04   45.18
  -3  -7   4   80.53   52.79
  -3  -7   5   16.23   39.27
  -3  -7   6   40.16   45.08
  -3  -7   7   39.11   49.38
  -3  -7   8  -23.60   36.30
  -3  -7   8   48.85   45.30
  -3  -6 -14   82.22   68.96
  -3  -6 -14  110.04   60.11
  -3  -6 -13   44.77   54.72
  -3  -6 -13  -49.28   47.66
  -3  -6 -12   22.78   50.15
  -3  -6 -12   47.86   44.89
  -3  -6 -11  -11.16   46.59
  -3  -6 -11  -19.25   29.59
  -3  -6 -10   50.40   34.47
  -3  -6 -10   94.90   57.71
  -3  -6  -9   51.43   40.39
  -3  -6  -9   44.46   35.19
  -3  -6  -8  151.07   42.18
  -3  -6  -8  187.50   61.70
  -3  -6  -7   56.70   25.20
  -3  -6  -7   27.58   32.71
  -3  -6  -6  195.63   56.05
  -3  -6  -5   73.50   43.18
  -3  -6  -4  218.58   63.16
  -3  -6  -3   49.15   36.11
  -3  -6  -2   -6.19   26.87
  -3  -6  -1   58.61   39.32
  -3  -6   0   77.44   36.74
  -3  -6   1  169.64   52.12
  -3  -6   2   18.60   21.49
  -3  -6   2   37.30   37.83
  -3  -6   3   -5.69   21.78
  -3  -6   3   19.29   29.60
  -3  -6   4   26.96   48.95
  -3  -6   5  324.21   83.36
  -3  -6   6  -34.47   55.04
  -3  -6   7   41.92   58.14
  -3  -6   8   60.98   50.46
  -3  -6   8   67.00   65.55
  -3  -6   9  162.27   61.19
  -3  -6   9  266.23  100.24
  -3  -6   9  155.54   73.90
  -3  -5 -14  -74.13   50.50
  -3  -5 -14   13.40   45.87
  -3  -5 -13   31.88   45.71
  -3  -5 -13   41.11   45.42
  -3  -5 -12   60.25   58.87
  -3  -5 -12   -1.50   43.55
  -3  -5 -11   19.19   30.06
  -3  -5 -11   94.26   52.61
  -3  -5 -10   15.61   30.32
  -3  -5 -10  -72.66   46.88
  -3  -5  -9   39.87   44.41
  -3  -5  -9   98.59   43.97
  -3  -5  -8  102.71   50.64
  -3  -5  -8    1.80   24.53
  -3  -5  -7  -10.79   26.87
  -3  -5  -7   12.95   34.61
  -3  -5  -6  133.15   52.07
  -3  -5  -6   17.08   17.51
  -3  -5  -5   57.73   41.75
  -3  -5  -5  -10.97   16.36
  -3  -5  -4  180.85   51.51
  -3  -5  -3  -26.18   38.94
  -3  -5  -2   15.21   30.10
  -3  -5  -1   -6.42   31.57
  -3  -5   0  -27.00   26.86
  -3  -5   1  -11.69   13.27
  -3  -5   1   13.99   28.60
  -3  -5   2   18.22   20.21
  -3  -5   2   46.15   38.10
  -3  -5   3   38.85   27.98
  -3  -5   3  -12.11   19.99
  -3  -5   4    2.84   32.31
  -3  -5   5   79.06   51.55
  -3  -5   6  -12.90   32.26
  -3  -5   7  113.75   53.36
  -3  -5   7  -30.20   40.12
  -3  -5   8   46.93   49.86
  -3  -5   8   41.15   39.95
  -3  -5   9   60.75   64.40
  -3  -5   9  156.03   59.98
  -3  -5   9   26.82   44.50
  -3  -5  10   14.53   37.29
  -3  -5  10   36.48   37.19
  -3  -4 -14   20.18   37.76
  -3  -4 -14  -16.31   50.25
  -3  -4 -13  -43.55   37.12
  -3  -4 -13   30.80   51.85
  -3  -4 -12   12.21   31.47
  -3  -4 -12   78.55   58.03
  -3  -4 -11   26.13   32.56
  -3  -4 -11  -38.22   40.74
  -3  -4 -10   15.12   33.53
  -3  -4 -10   55.02   40.13
  -3  -4  -9  -29.81   28.46
  -3  -4  -9   -0.53   41.11
  -3  -4  -8  499.73  100.86
  -3  -4  -8  450.39   65.58
  -3  -4  -8  325.13   55.31
  -3  -4  -7   97.07   30.46
  -3  -4  -7   68.24   44.28
  -3  -4  -7   92.49   31.64
  -3  -4  -6   10.39   18.83
  -3  -4  -6  -30.75   29.59
  -3  -4  -6   39.79   24.67
  -3  -4  -5   34.63   23.79
  -3  -4  -5    6.01   15.53
  -3  -4  -5   21.76   37.92
  -3  -4  -4  229.96   54.02
  -3  -4  -4  160.15   22.10
  -3  -4  -4  214.84   41.61
  -3  -4  -3   -9.40   17.74
  -3  -4  -3   67.40   46.09
  -3  -4  -2   38.89   37.23
  -3  -4  -2   23.69   17.20
  -3  -4  -1   38.19   23.36
  -3  -4  -1   20.45   29.78
  -3  -4   0  545.13   73.27
  -3  -4   0  319.76   25.62
  -3  -4   1   26.41   28.21
  -3  -4   1   17.82   12.98
  -3  -4   2   12.93   29.68
  -3  -4   2  -17.27   15.12
  -3  -4   3   14.43   17.75
  -3  -4   3   62.50   49.32
  -3  -4   4   18.00   36.37
  -3  -4   5  640.55  101.66
  -3  -4   6  342.00   74.39
  -3  -4   6  567.49   94.33
  -3  -4   7  -35.33   43.78
  -3  -4   7   52.24   44.23
  -3  -4   8   34.49   33.88
  -3  -4   8   50.97   45.59
  -3  -4   8    6.13   48.45
  -3  -4   9  129.62   47.04
  -3  -4   9   91.31   52.74
  -3  -4   9   49.29   61.26
  -3  -4  10   78.83   40.81
  -3  -4  10   16.76   49.88
  -3  -4  10   32.10   66.28
  -3  -3 -14   33.85   52.04
  -3  -3 -13  -36.47   48.23
  -3  -3 -12  -29.37   42.59
  -3  -3 -11   21.89   31.38
  -3  -3 -10   60.77   27.62
  -3  -3 -10    3.53   32.10
  -3  -3 -10   -0.93   21.53
  -3  -3  -9   45.50   30.44
  -3  -3  -9   12.21   26.45
  -3  -3  -8   57.91   47.97
  -3  -3  -8   53.69   25.18
  -3  -3  -8    1.20   29.34
  -3  -3  -8   57.83   26.94
  -3  -3  -7   52.44   28.84
  -3  -3  -7   34.93   23.48
  -3  -3  -7   18.99   33.71
  -3  -3  -7   40.13   22.96
  -3  -3  -6  -10.37   33.59
  -3  -3  -6   20.39   19.14
  -3  -3  -6    9.20   20.92
  -3  -3  -6  -24.97   18.00
  -3  -3  -5  -15.08   31.77
  -3  -3  -5  -27.00   21.54
  -3  -3  -5  -41.82   25.08
  -3  -3  -5    1.20   14.99
  -3  -3  -4   50.66   30.13
  -3  -3  -4   59.28   21.47
  -3  -3  -4   44.73   16.06
  -3  -3  -4   63.27   27.74
  -3  -3  -3   72.07   25.97
  -3  -3  -3   91.76   39.79
  -3  -3  -3   50.33   22.39
  -3  -3  -3   58.02   12.35
  -3  -3  -2   30.81   33.05
  -3  -3  -2   20.60   16.13
  -3  -3  -1    4.64   24.39
  -3  -3   0    7.15   24.50
  -3  -3   0   20.60    9.12
  -3  -3   1   64.05   41.06
  -3  -3   1   54.29   18.19
  -3  -3   2   76.81   26.51
  -3  -3   2   58.74   38.05
  -3  -3   3   -7.09   20.56
  -3  -3   3  -26.93   31.97
  -3  -3   4   31.98   18.24
  -3  -3   4   24.00   28.90
  -3  -3   5  141.46   55.68
  -3  -3   5   79.59   37.85
  -3  -3   6   71.07   44.72
  -3  -3   6    2.82   52.24
  -3  -3   6   12.67   33.76
  -3  -3   7   35.38   49.48
  -3  -3   7  -21.81   38.07
  -3  -3   7   13.25   34.10
  -3  -3   8  107.60   51.61
  -3  -3   8  183.50   62.80
  -3  -3   8   21.18   51.89
  -3  -3   9  -26.87   36.96
  -3  -3   9   61.72   55.61
  -3  -3  10   59.23   65.89
  -3  -3  10   63.17   44.29
  -3  -3  11    6.87   34.09
  -3  -3  11  -93.69   67.98
  -3  -2 -14   43.46   47.12
  -3  -2 -13  -31.47   41.53
  -3  -2 -12  -64.38   44.76
  -3  -2 -11   96.95   59.55
  -3  -2 -10  -30.55   18.23
  -3  -2 -10   38.99   38.61
  -3  -2  -9   21.56   21.96
  -3  -2  -9   49.44   34.70
  -3  -2  -9   14.52   20.79
  -3  -2  -8   43.83   23.91
  -3  -2  -8    4.37   15.06
  -3  -2  -8   50.88   34.18
  -3  -2  -7   64.35   28.39
  -3  -2  -7   59.81   22.86
  -3  -2  -7   50.92   25.50
  -3  -2  -6  173.15   39.50
  -3  -2  -6  144.91   31.30
  -3  -2  -6  151.30   27.44
  -3  -2  -5    2.61   12.47
  -3  -2  -5   -3.20   18.52
  -3  -2  -5  -15.60   37.10
  -3  -2  -5   44.54   17.17
  -3  -2  -4  108.75   22.22
  -3  -2  -4  136.11   49.11
  -3  -2  -4   82.46   25.09
  -3  -2  -4  114.51   23.32
  -3  -2  -3  100.90   39.36
  -3  -2  -3  127.43   26.27
  -3  -2  -3  109.71   22.67
  -3  -2  -2  131.95   25.89
  -3  -2  -2  198.96   45.17
  -3  -2  -2  168.03   22.37
  -3  -2  -1   89.52   37.91
  -3  -2  -1   60.79   13.32
  -3  -2   0  221.96   25.23
  -3  -2   0  244.30   45.57
  -3  -2   1  346.90   36.15
  -3  -2   1  365.47   56.68
  -3  -2   2   74.51   31.14
  -3  -2   2   29.60   18.02
  -3  -2   3   39.27   25.36
  -3  -2   3   48.40   25.59
  -3  -2   4  153.50   56.07
  -3  -2   4  126.37   32.92
  -3  -2   4  183.49   46.87
  -3  -2   5  188.97   51.86
  -3  -2   5  231.68   56.91
  -3  -2   5  258.12   72.30
  -3  -2   6  134.14   48.97
  -3  -2   6  136.99   53.15
  -3  -2   6  149.68   61.52
  -3  -2   7   86.22   60.22
  -3  -2   7   56.82   36.83
  -3  -2   7   58.66   42.46
  -3  -2   8   64.43   56.84
  -3  -2   8   34.67   36.12
  -3  -2   8   32.00   35.25
  -3  -2   9  281.59   73.34
  -3  -2   9  298.31   97.49
  -3  -2  10   39.29   29.99
  -3  -2  10   75.12   60.18
  -3  -2  11  -34.64   36.34
  -3  -2  11  -68.03   58.07
  -3  -1 -14    8.44   56.01
  -3  -1 -13  -28.36   40.57
  -3  -1 -12    0.86   39.98
  -3  -1 -11  129.88   63.13
  -3  -1 -10  -10.20   10.91
  -3  -1 -10   27.74   35.96
  -3  -1  -9  105.21   50.96
  -3  -1  -9   56.73   15.58
  -3  -1  -8   99.66   41.11
  -3  -1  -8   97.88   23.13
  -3  -1  -7    5.87   27.31
  -3  -1  -7   58.88   19.56
  -3  -1  -6  130.78   26.17
  -3  -1  -6  103.48   33.18
  -3  -1  -6  105.57   17.36
  -3  -1  -5  170.95   29.20
  -3  -1  -5  118.27   16.12
  -3  -1  -5  194.15   40.31
  -3  -1  -4  504.18   53.89
  -3  -1  -4  428.95   27.94
  -3  -1  -3  167.82   22.18
  -3  -1  -3  184.27   47.50
  -3  -1  -3  171.91   31.67
  -3  -1  -2  187.44   44.00
  -3  -1  -2  174.74   32.41
  -3  -1  -1   17.60   25.28
  -3  -1   0  455.48   43.38
  -3  -1   0  462.22   54.90
  -3  -1   1  174.88   34.68
  -3  -1   1  141.28   30.48
  -3  -1   2  233.38   40.66
  -3  -1   2  243.73   46.56
  -3  -1   2  239.81   63.10
  -3  -1   2  195.79   53.89
  -3  -1   3   43.82   26.74
  -3  -1   3   -3.21   31.48
  -3  -1   3   21.27   31.07
  -3  -1   3   18.38   24.41
  -3  -1   4   49.64   44.10
  -3  -1   4   54.25   41.57
  -3  -1   4   35.92   29.96
  -3  -1   4   14.64   23.27
  -3  -1   5   95.67   45.81
  -3  -1   5   77.97   37.45
  -3  -1   5   84.34   35.84
  -3  -1   6   87.22   47.11
  -3  -1   6  108.58   40.38
  -3  -1   6   95.69   51.14
  -3  -1   7  -36.17   45.84
  -3  -1   7   76.35   50.53
  -3  -1   7   18.47   24.54
  -3  -1   8   37.99   34.64
  -3  -1   8   13.47   42.12
  -3  -1   9   81.36   40.98
  -3  -1   9   -3.00   41.48
  -3  -1  10   -6.95   32.09
  -3  -1  10   32.01   52.40
  -3  -1  11   71.17   37.47
  -3  -1  11   12.73   42.27
  -3  -1  12   45.32   43.43
  -3  -1  12  -83.28   67.17
  -3   0 -14   11.79   50.85
  -3   0 -13  -41.06   38.05
  -3   0 -12  -19.62   42.70
  -3   0 -11   26.64   42.45
  -3   0 -10   71.45   51.98
  -3   0  -9  176.87   57.82
  -3   0  -8  127.54   51.64
  -3   0  -8   45.14   10.70
  -3   0  -7   18.78   38.19
  -3   0  -7  -14.52   11.41
  -3   0  -6  948.04   56.40
  -3   0  -6 1043.42  101.42
  -3   0  -5  348.61   55.72
  -3   0  -4  313.50   47.83
  -3   0  -3  548.07   56.99
  -3   0  -3  424.39   27.02
  -3   0  -2 1693.40   95.36
  -3   0  -2 1647.43   99.63
  -3   0  -2 1543.10   69.28
  -3   0  -1   28.40   16.68
  -3   0  -1   14.22   30.63
  -3   0  -1   30.86   25.71
  -3   0   0 1597.87   84.43
  -3   0   0 1453.03   95.66
  -3   0   0 1539.22  111.30
  -3   0   1  264.17   54.65
  -3   0   1  235.39   36.99
  -3   0   1  269.17   41.96
  -3   0   1  321.50   60.93
  -3   0   2 4005.52  154.90
  -3   0   2 4037.22  192.52
  -3   0   2 4088.33  195.03
  -3   0   2 4108.82  138.13
  -3   0   3    9.29   31.64
  -3   0   3   41.73   25.95
  -3   0   3   11.00   30.53
  -3   0   3   -5.48   18.71
  -3   0   4  300.49   58.81
  -3   0   4  350.17   69.87
  -3   0   4  235.91   41.64
  -3   0   5    0.88   30.43
  -3   0   5    2.95   17.95
  -3   0   5   27.61   39.99
  -3   0   6   72.56   40.88
  -3   0   6  114.63   34.96
  -3   0   7  372.10   74.61
  -3   0   7  324.85   79.11
  -3   0   8  -18.77   38.23
  -3   0   8   66.88   54.80
  -3   0   9  200.79   80.17
  -3   0   9  178.50   60.77
  -3   0  10   62.05   44.01
  -3   0  10  -45.31   43.70
  -3   0  11   51.75   40.89
  -3   0  11   63.42   53.59
  -3   0  12   18.64   42.88
  -3   0  12  133.41   54.53
  -3   1 -14   69.16   60.41
  -3   1 -13  -10.69   41.15
  -3   1 -12   32.79   51.78
  -3   1 -11  -17.34   49.88
  -3   1 -10   55.58   45.60
  -3   1  -9   36.15   42.83
  -3   1  -8   12.87   39.33
  -3   1  -7  103.20   46.47
  -3   1  -6   -2.41    8.35
  -3   1  -6    3.47    8.19
  -3   1  -5   31.07   18.18
  -3   1  -5   15.04   25.06
  -3   1  -4  270.63   39.46
  -3   1  -4  308.47   52.49
  -3   1  -3   30.87    7.88
  -3   1  -3   41.45   21.63
  -3   1  -2   38.82   13.94
  -3   1  -2   53.74   27.31
  -3   1  -1  119.07   34.14
  -3   1  -1  117.63   27.75
  -3   1  -1   73.64   21.05
  -3   1   0   87.95   35.97
  -3   1   0   81.70   22.85
  -3   1   0   49.80   26.11
  -3   1   1  290.23   31.51
  -3   1   1  332.50   47.57
  -3   1   1  251.96   47.19
  -3   1   1  307.28   57.22
  -3   1   2   23.87   36.51
  -3   1   2   69.76   34.43
  -3   1   2   38.04   16.66
  -3   1   2   50.55   23.96
  -3   1   3   48.61   30.67
  -3   1   3    2.74   33.85
  -3   1   3   49.06   18.60
  -3   1   3   39.67   27.06
  -3   1   4   39.38   34.86
  -3   1   4   40.93   36.01
  -3   1   4    7.12   15.43
  -3   1   5   72.99   39.77
  -3   1   5  138.50   41.61
  -3   1   5   82.42   27.57
  -3   1   6  125.33   46.39
  -3   1   6  130.24   54.43
  -3   1   7  -48.60   34.26
  -3   1   7   58.69   43.80
  -3   1   8  -49.11   38.67
  -3   1   8   -7.35   38.05
  -3   1   9  -12.17   32.40
  -3   1   9  108.21   56.03
  -3   1  10   18.35   35.93
  -3   1  10  150.38   64.06
  -3   1  11  -17.08   31.92
  -3   1  11  -24.75   48.69
  -3   1  12  -16.78   39.59
  -3   1  12   -1.50   41.44
  -3   2 -13   21.92   61.34
  -3   2 -12  -28.44   42.12
  -3   2 -11   18.93   38.91
  -3   2 -10  262.36   63.30
  -3   2  -9  -18.43   35.85
  -3   2  -8   48.55   45.74
  -3   2  -7   79.11   44.52
  -3   2  -6   52.97   33.33
  -3   2  -5   40.22   15.06
  -3   2  -5   37.78   35.48
  -3   2  -4  129.62   25.93
  -3   2  -4  136.89   42.92
  -3   2  -3  444.93   51.62
  -3   2  -3  502.70   70.61
  -3   2  -3  377.29   32.21
  -3   2  -2  151.94   26.19
  -3   2  -2  132.00   29.33
  -3   2  -1    9.99   16.56
  -3   2  -1   25.97   20.43
  -3   2   0   38.53   23.80
  -3   2   0  116.57   43.29
  -3   2   0   70.24   20.06
  -3   2   1   31.09   28.62
  -3   2   1   21.02   10.28
  -3   2   1   46.39   30.73
  -3   2   2   75.75   32.21
  -3   2   2   84.56   34.97
  -3   2   2   79.07   31.47
  -3   2   3  135.86   46.86
  -3   2   3   71.59   31.38
  -3   2   4   10.76   29.51
  -3   2   4  113.67   46.07
  -3   2   5   44.30   29.48
  -3   2   5  130.05   51.20
  -3   2   6   44.91   28.03
  -3   2   6  168.50   54.38
  -3   2   7   67.89   46.25
  -3   2   7   21.67   38.54
  -3   2   8   12.94   45.76
  -3   2   8   34.79   38.50
  -3   2   9   -9.32   40.10
  -3   2   9  103.80   59.20
  -3   2  10  101.50   45.73
  -3   2  10   46.12   39.11
  -3   2  11   -1.67   35.33
  -3   2  11   12.73   39.12
  -3   2  12   34.08   38.35
  -3   2  12   23.99   42.83
  -3   3 -13  -69.14   54.96
  -3   3 -12  -20.10   48.40
  -3   3 -11   95.79   54.84
  -3   3 -10  -34.59   41.16
  -3   3  -9   -2.57   41.03
  -3   3  -8  -27.61   35.00
  -3   3  -7   27.80   32.59
  -3   3  -6  170.38   47.14
  -3   3  -5   21.90    9.04
  -3   3  -5   34.29   36.85
  -3   3  -4  128.52   45.96
  -3   3  -4   89.50   21.99
  -3   3  -3    4.00   13.77
  -3   3  -3   25.36   21.95
  -3   3  -3   13.15   32.60
  -3   3  -3   27.44   19.72
  -3   3  -2  240.07   55.94
  -3   3  -2  218.98   38.46
  -3   3  -2  162.12   33.74
  -3   3  -2  183.64   32.12
  -3   3  -1   -0.14   21.20
  -3   3  -1   -7.32   13.76
  -3   3  -1    8.03   19.35
  -3   3   0   35.15   20.95
  -3   3   0  -19.56   34.60
  -3   3   0   23.33   11.59
  -3   3   1   13.24    6.35
  -3   3   1   -2.89   23.18
  -3   3   1    1.23    4.30
  -3   3   1   13.52   25.57
  -3   3   2  110.21   41.41
  -3   3   2  109.45   36.76
  -3   3   3   76.24   39.16
  -3   3   3   29.38   31.87
  -3   3   4   21.69   27.68
  -3   3   4    4.21   29.65
  -3   3   5   30.15   26.32
  -3   3   5   21.82   37.31
  -3   3   6  101.02   53.13
  -3   3   6   71.89   49.56
  -3   3   7   72.59   37.94
  -3   3   7   26.76   42.58
  -3   3   8   34.27   37.34
  -3   3   8  -66.13   44.45
  -3   3   9   67.92   43.50
  -3   3   9  102.47   51.59
  -3   3  10  126.15   62.25
  -3   3  10   71.19   46.82
  -3   3  11   98.25   65.75
  -3   3  11  -23.84   35.35
  -3   3  12   16.81   50.02
  -3   3  12   27.94   39.31
  -3   4 -12   36.69   61.53
  -3   4 -11   63.95   56.86
  -3   4 -10   -2.74   50.58
  -3   4  -9  151.59   63.57
  -3   4  -8  -34.50   39.60
  -3   4  -7   56.15   43.35
  -3   4  -6  151.30   17.04
  -3   4  -6  366.21   78.81
  -3   4  -5   72.48   20.15
  -3   4  -5   98.75   41.70
  -3   4  -4   39.76   21.29
  -3   4  -4  -60.02   43.36
  -3   4  -3   24.67   16.12
  -3   4  -3  -14.03   15.95
  -3   4  -3   -0.64   37.04
  -3   4  -3   -0.10   18.44
  -3   4  -2  515.84   59.05
  -3   4  -2  506.59   57.82
  -3   4  -2  642.76   67.51
  -3   4  -1  147.24   34.09
  -3   4  -1   84.60   30.89
  -3   4  -1  129.01   28.35
  -3   4   0   22.13   23.04
  -3   4   0    9.70   25.12
  -3   4   0   16.24   15.59
  -3   4   1   -9.71   24.35
  -3   4   1   -3.57    7.42
  -3   4   1  -25.20   30.99
  -3   4   2  368.29   64.33
  -3   4   2  360.08   66.09
  -3   4   3   86.87   35.52
  -3   4   3   76.75   35.86
  -3   4   4   37.98   37.51
  -3   4   4   33.47   30.28
  -3   4   5   23.13   29.52
  -3   4   5   47.53   36.93
  -3   4   6  210.62   56.59
  -3   4   6  241.52   67.59
  -3   4   7  130.06   46.67
  -3   4   7   85.34   36.79
  -3   4   8  255.03   60.04
  -3   4   8  407.53   90.78
  -3   4   9  -23.38   43.61
  -3   4   9   13.09   42.11
  -3   4  10    0.26   33.89
  -3   4  10  -12.75   37.95
  -3   4  11  121.51   56.88
  -3   4  11  121.33   56.62
  -3   4  12   87.17   54.96
  -3   4  12   -2.47   41.72
  -3   5 -11  -50.11   54.90
  -3   5 -10   20.61   55.23
  -3   5  -9 -142.67   67.45
  -3   5  -8   47.14   53.70
  -3   5  -7   35.34   52.32
  -3   5  -6   53.80   15.66
  -3   5  -6   63.72   36.15
  -3   5  -5   72.28   21.54
  -3   5  -5  135.78   45.27
  -3   5  -4   31.70   25.34
  -3   5  -4   16.47   40.29
  -3   5  -3   36.94   26.99
  -3   5  -3   55.60   35.44
  -3   5  -3  -11.93   18.36
  -3   5  -2   12.82   19.92
  -3   5  -2  -34.00   25.28
  -3   5  -2   37.56   45.47
  -3   5  -2   -3.21   21.76
  -3   5  -1  100.90   32.63
  -3   5  -1   36.38   18.30
  -3   5  -1   31.63   24.35
  -3   5   0   -0.07   23.99
  -3   5   0  -26.76   29.90
  -3   5   0    8.13   14.96
  -3   5   1   62.80   37.83
  -3   5   1   -0.86   28.27
  -3   5   1   26.20   14.32
  -3   5   2  -14.31   24.45
  -3   5   2   34.66   31.84
  -3   5   3   -6.66   29.01
  -3   5   3   -8.47   33.83
  -3   5   4  119.63   42.68
  -3   5   4   -6.32   29.59
  -3   5   5  113.57   52.27
  -3   5   5   49.31   37.61
  -3   5   6    4.73   31.32
  -3   5   6   43.88   41.60
  -3   5   7  154.92   60.87
  -3   5   7   53.71   34.72
  -3   5   8   -8.19   35.73
  -3   5   8  -20.25   46.32
  -3   5   9   17.03   44.48
  -3   5   9   -0.75   43.49
  -3   5  10   -3.48   33.78
  -3   5  10   28.18   42.51
  -3   5  11   75.91   57.94
  -3   5  11  -43.77   39.20
  -3   5  12   42.69   55.25
  -3   5  12   45.87   52.32
  -3   6 -10   89.88   61.59
  -3   6  -9   55.60   52.63
  -3   6  -8   -5.29   52.73
  -3   6  -7   81.56   66.62
  -3   6  -6  255.69   35.37
  -3   6  -6  383.87   86.37
  -3   6  -5   14.51   22.97
  -3   6  -5   15.65   39.35
  -3   6  -4   -4.19   21.39
  -3   6  -4  -38.53   46.60
  -3   6  -3   60.73   31.23
  -3   6  -3   -4.63   41.08
  -3   6  -3   57.86   36.03
  -3   6  -2  108.50   40.15
  -3   6  -2   69.46   30.05
  -3   6  -2   78.94   39.22
  -3   6  -1   44.36   24.24
  -3   6  -1   22.55   25.34
  -3   6  -1   32.77   21.03
  -3   6   0   16.05   29.39
  -3   6   0   53.53   25.69
  -3   6   0    6.24   20.81
  -3   6   1   16.52   35.39
  -3   6   1   28.39   33.10
  -3   6   1   34.58   14.11
  -3   6   2   79.41   35.21
  -3   6   2   22.90   37.09
  -3   6   2   46.05   12.50
  -3   6   3   23.57   25.49
  -3   6   3   11.83   32.20
  -3   6   4   38.44   37.40
  -3   6   4  153.00   60.64
  -3   6   5   57.03   39.66
  -3   6   5   73.07   40.39
  -3   6   6    8.86   33.14
  -3   6   6  -40.04   42.91
  -3   6   7  338.53   73.26
  -3   6   7  364.24   86.46
  -3   6   8   25.34   37.24
  -3   6   8    2.19   44.85
  -3   6   9   47.29   38.43
  -3   6   9   30.71   42.45
  -3   6  10   98.82   65.55
  -3   6  10   53.45   38.36
  -3   6  11  -12.19   35.06
  -3   6  11  -13.88   44.25
  -3   7  -9   12.17   61.78
  -3   7  -8  -77.85   61.10
  -3   7  -7  -11.60   40.34
  -3   7  -6  -21.92   24.77
  -3   7  -6   73.10   53.97
  -3   7  -5   24.47   28.18
  -3   7  -5    4.42   38.24
  -3   7  -4   41.30   30.49
  -3   7  -4   98.17   52.64
  -3   7  -3   -5.39   30.97
  -3   7  -3   52.94   31.17
  -3   7  -3  -18.49   35.53
  -3   7  -2   87.11   41.63
  -3   7  -2   64.04   40.24
  -3   7  -2  105.89   56.28
  -3   7  -1   19.11   45.26
  -3   7  -1  -19.16   33.89
  -3   7  -1   37.17   36.91
  -3   7   0   32.06   26.96
  -3   7   0   47.53   18.30
  -3   7   0   -9.19   28.12
  -3   7   1   -2.07   35.75
  -3   7   1  -15.61   22.01
  -3   7   2   28.06   31.92
  -3   7   2   52.84   17.98
  -3   7   3  -22.10   42.47
  -3   7   3   26.17   13.51
  -3   7   3   78.95   40.32
  -3   7   4   52.14   31.24
  -3   7   4    7.21   34.00
  -3   7   5   54.38   47.42
  -3   7   5   60.40   38.28
  -3   7   6   71.12   47.15
  -3   7   6  -88.52   49.84
  -3   7   7   20.36   42.72
  -3   7   7  -44.95   42.55
  -3   7   8  -52.04   40.10
  -3   7   8   33.92   51.25
  -3   7   9   81.73   60.34
  -3   7   9  -24.79   42.95
  -3   7  10   50.57   51.19
  -3   7  10   14.08   40.95
  -3   7  11  -46.30   37.01
  -3   7  11   43.66   55.78
  -3   8  -8  -11.10   44.70
  -3   8  -7   71.72   54.75
  -3   8  -6  -69.64   47.88
  -3   8  -5   10.22   29.23
  -3   8  -5   61.11   61.31
  -3   8  -4   34.12   30.77
  -3   8  -4  120.81   69.27
  -3   8  -3  -36.87   32.63
  -3   8  -3   -2.23   27.29
  -3   8  -3   41.15   45.73
  -3   8  -2   28.21   26.57
  -3   8  -2  -37.17   45.19
  -3   8  -2   38.12   33.68
  -3   8  -1  -28.28   26.37
  -3   8  -1   40.16   50.12
  -3   8  -1    8.38   27.59
  -3   8   0   26.50   28.75
  -3   8   0   39.84   28.21
  -3   8   1   -1.77   31.09
  -3   8   1   43.86   28.08
  -3   8   1   10.75   36.64
  -3   8   2  -14.73   41.11
  -3   8   2  118.06   56.97
  -3   8   3   46.19   43.96
  -3   8   3  -30.44   38.94
  -3   8   4   25.04   43.69
  -3   8   4  113.02   56.20
  -3   8   5   69.54   34.83
  -3   8   5   51.68   38.33
  -3   8   6   97.36   53.69
  -3   8   6   69.48   44.43
  -3   8   7   82.17   49.45
  -3   8   7    2.19   34.37
  -3   8   8   36.18   45.18
  -3   8   8  -21.07   44.77
  -3   8   9  -49.65   46.93
  -3   8   9   -7.73   43.01
  -3   8  10   16.59   35.95
  -3   8  10  -21.48   50.73
  -3   9  -7  127.27   75.43
  -3   9  -6   76.32   68.42
  -3   9  -5    3.58   49.66
  -3   9  -4   28.64   40.67
  -3   9  -4  -10.17   43.60
  -3   9  -3   55.62   50.81
  -3   9  -3   65.66   41.67
  -3   9  -2   -1.23   37.71
  -3   9  -2   15.89   52.51
  -3   9  -2    5.52   29.39
  -3   9  -1   39.86   42.69
  -3   9  -1   84.34   57.94
  -3   9  -1   14.22   35.33
  -3   9   0  -11.59   41.70
  -3   9   0   23.40   46.62
  -3   9   0    1.48   31.37
  -3   9   1   -2.60   35.23
  -3   9   1   11.25   42.02
  -3   9   2   50.05   48.11
  -3   9   2  -29.79   30.77
  -3   9   3   46.65   42.13
  -3   9   3  -30.65   38.02
  -3   9   4  133.06   60.92
  -3   9   4   57.58   45.90
  -3   9   5   46.33   47.57
  -3   9   5   16.60   34.21
  -3   9   6   81.51   54.39
  -3   9   6   42.37   34.78
  -3   9   7  114.65   59.87
  -3   9   7   73.00   57.20
  -3   9   8  -63.12   49.44
  -3   9   8  -65.30   40.49
  -3   9   9   37.29   36.26
  -3   9   9  -93.73   62.53
  -3  10  -5  -37.48   48.23
  -3  10  -4   -7.52   62.02
  -3  10  -4   -9.32   30.42
  -3  10  -3   85.41   56.03
  -3  10  -3   -4.58   30.09
  -3  10  -2  -44.53   41.22
  -3  10  -2    5.27   44.50
  -3  10  -2   -8.90   37.88
  -3  10  -1   54.88   44.29
  -3  10  -1  -54.13   63.34
  -3  10  -1   35.75   38.85
  -3  10   0  -32.73   31.99
  -3  10   0  -46.24   52.86
  -3  10   0   26.97   32.67
  -3  10   1   44.82   46.19
  -3  10   1   -1.48   37.52
  -3  10   2    4.22   42.33
  -3  10   2    3.48   38.61
  -3  10   3    7.04   43.89
  -3  10   3   11.99   34.68
  -3  10   4   21.94   39.10
  -3  10   4   -1.17   36.28
  -3  10   5   35.53   44.46
  -3  10   5   13.86   34.53
  -3  10   6    1.57   42.95
  -3  10   6 -101.50   67.63
  -3  10   7   28.53   37.21
  -3  10   7   64.37   60.00
  -3  10   8   42.98   48.23
  -3  10   8  102.48   79.22
  -3  11  -2  -70.50   44.21
  -3  11  -2   49.03   45.20
  -3  11  -1   15.15   37.50
  -3  11  -1    1.52   49.51
  -3  11  -1  -19.00   35.45
  -3  11   0   45.23   47.91
  -3  11   0  147.11   83.80
  -3  11   0   58.19   48.05
  -3  11   1  -44.32   43.58
  -3  11   1  -12.00   43.39
  -3  11   1   -4.04   36.79
  -3  11   2  -50.85   44.39
  -3  11   2   47.33   46.43
  -3  11   3  -15.14   40.49
  -3  11   3  -27.94   52.16
  -3  11   4  -22.13   36.17
  -3  11   4   32.40   60.87
  -3  11   5  122.24   63.84
  -3  11   5  -91.51   59.26
  -2 -12  -7   72.96   47.35
  -2 -12  -6  183.77   65.28
  -2 -12  -5   86.93   54.75
  -2 -12  -4   40.90   41.29
  -2 -12  -3  191.91   78.07
  -2 -12  -2  178.07   65.45
  -2 -12  -1  253.93   79.20
  -2 -12   0  101.85   63.60
  -2 -11  -9   68.22   51.47
  -2 -11  -8  222.45   77.15
  -2 -11  -7  338.04   85.92
  -2 -11  -6  394.96   94.75
  -2 -11  -5  421.74   95.50
  -2 -11  -4   59.05   38.32
  -2 -11  -3  -20.69   46.08
  -2 -11  -2   95.14   44.26
  -2 -11  -1  127.07   48.31
  -2 -11   0  187.83   61.50
  -2 -11   1  202.54   74.36
  -2 -11   2  233.86   76.56
  -2 -11   3  134.61   61.56
  -2 -10 -11   32.04   38.61
  -2 -10 -10  181.63   78.44
  -2 -10  -9  549.24  116.42
  -2 -10  -8  226.26   82.58
  -2 -10  -7  440.38   91.35
  -2 -10  -6 1050.05  134.83
  -2 -10  -5  124.89   34.64
  -2 -10  -4  201.95   66.84
  -2 -10  -3  444.89   92.76
  -2 -10  -2   49.36   46.81
  -2 -10  -1   72.64   50.06
  -2 -10   0  535.21   96.91
  -2 -10   1  121.06   54.11
  -2 -10   2  704.99  127.04
  -2 -10   3  209.42   85.89
  -2 -10   4  108.21   60.19
  -2 -10   5  202.02   66.45
  -2  -9 -12   78.83   61.14
  -2  -9 -11  104.49   49.74
  -2  -9 -10   40.22   50.00
  -2  -9  -9  262.51   72.40
  -2  -9  -8  517.68  102.89
  -2  -9  -7  464.96  100.11
  -2  -9  -6  306.34   75.96
  -2  -9  -5  391.10   79.14
  -2  -9  -4  358.97   83.33
  -2  -9  -3  568.74   93.16
  -2  -9  -2  397.83   83.62
  -2  -9  -1  406.03   82.35
  -2  -9   0  358.91   74.38
  -2  -9   1  224.70   64.89
  -2  -9   2  488.97  100.83
  -2  -9   3  320.10   82.77
  -2  -9   4  173.69   60.81
  -2  -9   5  141.76   71.61
  -2  -9   6   41.55   48.13
  -2  -9   7   27.49   47.98
  -2  -8 -13   73.05   61.78
  -2  -8 -13   36.74   53.62
  -2  -8 -12   38.46   38.14
  -2  -8 -12   30.33   45.29
  -2  -8 -11  251.59   65.00
  -2  -8 -11  385.42   95.79
  -2  -8 -10  522.96  108.20
  -2  -8  -9  253.21   68.84
  -2  -8  -8  928.79  129.22
  -2  -8  -7  566.97   98.72
  -2  -8  -6   77.44   46.29
  -2  -8  -5 1204.73  131.26
  -2  -8  -4  379.83   76.02
  -2  -8  -3  986.38  113.59
  -2  -8  -2 1094.11  128.89
  -2  -8  -1  575.27   92.74
  -2  -8   0  434.10   78.51
  -2  -8   1  371.92   77.32
  -2  -8   2  105.16   51.17
  -2  -8   3  820.33  119.85
  -2  -8   4  328.92   75.90
  -2  -8   5  249.93   84.58
  -2  -8   6  244.89   85.43
  -2  -8   7  154.08   75.94
  -2  -8   8   93.55   57.80
  -2  -7 -13  116.99   65.05
  -2  -7 -13   85.90   60.55
  -2  -7 -12  153.87   69.04
  -2  -7 -12  179.21   72.95
  -2  -7 -11  283.49   70.40
  -2  -7 -11  311.94   89.25
  -2  -7 -10  459.44   94.39
  -2  -7 -10  430.06   77.45
  -2  -7  -9  429.56   79.83
  -2  -7  -9  472.77   95.93
  -2  -7  -8  450.89   85.87
  -2  -7  -7  510.27   87.31
  -2  -7  -6  464.20   86.83
  -2  -7  -5  584.13   89.70
  -2  -7  -4  841.94  105.58
  -2  -7  -3  789.28   99.60
  -2  -7  -2 1235.59  124.95
  -2  -7  -1 1116.67  119.70
  -2  -7   0  863.10  107.11
  -2  -7   1  552.24   87.30
  -2  -7   2  266.27   69.53
  -2  -7   3  409.40   84.04
  -2  -7   4  249.38   71.04
  -2  -7   5  484.54   97.41
  -2  -7   6  250.99   74.32
  -2  -7   7  217.95   82.42
  -2  -7   8  165.77   71.81
  -2  -7   9  163.24   84.10
  -2  -6 -14   77.91   54.02
  -2  -6 -14   88.60   66.75
  -2  -6 -13   69.88   58.79
  -2  -6 -13   96.34   65.28
  -2  -6 -12  153.23   57.58
  -2  -6 -12  208.10   61.82
  -2  -6 -11  338.20   92.20
  -2  -6 -11  433.12   81.07
  -2  -6 -10  283.35   67.12
  -2  -6 -10  282.52   78.38
  -2  -6  -9 1458.86  156.25
  -2  -6  -9 1305.89  126.57
  -2  -6  -8  592.34   99.06
  -2  -6  -8  574.37   82.29
  -2  -6  -7  809.08  109.94
  -2  -6  -7  767.47   78.35
  -2  -6  -6  835.39  111.55
  -2  -6  -5 1433.92  135.18
  -2  -6  -4 1330.95  122.81
  -2  -6  -3  446.34   77.96
  -2  -6  -2 3373.20  186.15
  -2  -6  -1  432.63   71.97
  -2  -6   0 1044.98  109.33
  -2  -6   1 1415.70  126.71
  -2  -6   2  758.97   99.49
  -2  -6   2  540.17   66.63
  -2  -6   3  553.80   95.77
  -2  -6   3  335.20   55.60
  -2  -6   4  858.55  115.31
  -2  -6   5  366.63   82.13
  -2  -6   6  953.72  130.35
  -2  -6   7  554.14  110.98
  -2  -6   8  268.99   71.77
  -2  -6   8  257.90   83.48
  -2  -6   9  244.13   78.56
  -2  -6   9  211.68   60.57
  -2  -6  10  303.18   94.31
  -2  -6  10   31.15   38.22
  -2  -5 -14  176.34   81.00
  -2  -5 -14    6.32   43.27
  -2  -5 -13  149.35   71.50
  -2  -5 -13   90.03   44.43
  -2  -5 -12  234.93   81.17
  -2  -5 -12  220.50   62.65
  -2  -5 -11  211.12   74.03
  -2  -5 -11  101.38   42.99
  -2  -5 -10  456.69   96.64
  -2  -5 -10  352.01   74.32
  -2  -5  -9  407.35   89.67
  -2  -5  -9  309.31   62.95
  -2  -5  -8  787.57  111.87
  -2  -5  -8  683.84   83.97
  -2  -5  -7 1122.16  122.82
  -2  -5  -7 1020.78   89.79
  -2  -5  -6 1509.99  138.51
  -2  -5  -6 1424.52   98.34
  -2  -5  -5 1253.15  119.31
  -2  -5  -5 1060.21   76.96
  -2  -5  -4 1436.09  126.93
  -2  -5  -4 1296.51  102.75
  -2  -5  -3  939.83   85.59
  -2  -5  -3 1055.53  102.88
  -2  -5  -2  583.57   71.94
  -2  -5  -2  788.27   87.94
  -2  -5  -1  904.27   95.06
  -2  -5   0 1113.40  108.17
  -2  -5   1  986.24   76.06
  -2  -5   1 1311.58  118.24
  -2  -5   2 1222.98  121.73
  -2  -5   2  950.85   76.75
  -2  -5   3 1131.14  119.17
  -2  -5   3  910.27   85.03
  -2  -5   4  905.49  115.93
  -2  -5   5  531.15   95.59
  -2  -5   6  520.04   91.83
  -2  -5   7  342.18   85.46
  -2  -5   8  151.04   52.82
  -2  -5   8  111.64   57.09
  -2  -5   9  269.36   62.33
  -2  -5   9  220.41   69.87
  -2  -5   9  198.40   77.48
  -2  -5  10  178.02   54.43
  -2  -5  10  262.51  103.04
  -2  -5  11  127.31   78.64
  -2  -4 -14  130.43   72.27
  -2  -4 -13  246.23   74.96
  -2  -4 -12  169.82   63.55
  -2  -4 -11  228.07   61.88
  -2  -4 -10  790.38  128.88
  -2  -4 -10  753.81  104.73
  -2  -4  -9  305.62   79.71
  -2  -4  -9  157.78   49.93
  -2  -4  -8 1517.63  150.81
  -2  -4  -8 1234.96  105.35
  -2  -4  -7 1222.61  130.62
  -2  -4  -7  996.07   96.59
  -2  -4  -7 1079.58   91.86
  -2  -4  -6 3706.44  206.93
  -2  -4  -6 3273.90  156.52
  -2  -4  -6 3429.99  147.63
  -2  -4  -6 3359.63  161.32
  -2  -4  -5  606.17   81.73
  -2  -4  -5  667.49   57.93
  -2  -4  -5  696.26   69.99
  -2  -4  -5  588.34   69.37
  -2  -4  -4 3740.56  158.72
  -2  -4  -4 4218.70  194.53
  -2  -4  -4 3981.89  120.12
  -2  -4  -4 3916.75  157.10
  -2  -4  -3 1222.81   91.43
  -2  -4  -3 1399.54  113.85
  -2  -4  -3 1252.86   87.85
  -2  -4  -2  296.69   49.18
  -2  -4  -2  271.91   54.11
  -2  -4  -2  255.87   46.53
  -2  -4  -1 2450.71  127.05
  -2  -4  -1 2514.92  142.94
  -2  -4  -1 2246.71  122.53
  -2  -4   0  630.88   71.10
  -2  -4   0  696.61   77.52
  -2  -4   0  705.67   72.43
  -2  -4   1 2283.83  127.26
  -2  -4   1 2382.01  142.32
  -2  -4   1 1998.60   85.55
  -2  -4   2 2385.77  149.68
  -2  -4   2 2071.28  102.54
  -2  -4   3 1078.38  109.67
  -2  -4   3  967.74   81.19
  -2  -4   4 1751.73  120.22
  -2  -4   4 2091.42  157.50
  -2  -4   5 1555.28  142.17
  -2  -4   6  452.52   83.88
  -2  -4   7  452.68   83.96
  -2  -4   7  423.55   78.30
  -2  -4   8  701.26  114.94
  -2  -4   8  720.58  131.98
  -2  -4   8  808.34  104.21
  -2  -4   9   72.09   39.35
  -2  -4   9   92.49   42.08
  -2  -4   9  117.02   74.84
  -2  -4  10  403.24  108.61
  -2  -4  10  264.25   65.40
  -2  -4  11  353.22  105.28
  -2  -3 -14  110.67   54.07
  -2  -3 -13  119.34   50.29
  -2  -3 -12  428.81   87.66
  -2  -3 -11  156.18   54.56
  -2  -3 -10  128.52   32.17
  -2  -3 -10  249.40   69.07
  -2  -3  -9  431.27   70.90
  -2  -3  -9  394.88   67.09
  -2  -3  -9  368.53   53.85
  -2  -3  -8  334.95   48.87
  -2  -3  -8  459.38   66.58
  -2  -3  -8  423.29   66.38
  -2  -3  -7 1520.34  108.01
  -2  -3  -7 1582.52  109.14
  -2  -3  -7 1408.92   96.08
  -2  -3  -6 1832.02  149.15
  -2  -3  -6 1832.29  110.49
  -2  -3  -6 1884.12  109.96
  -2  -3  -6 1723.87  101.41
  -2  -3  -5 2374.19  115.43
  -2  -3  -5 2562.45  162.16
  -2  -3  -5 2423.78  109.42
  -2  -3  -5 2217.80  112.76
  -2  -3  -4 1841.02   98.96
  -2  -3  -4 1900.35   80.67
  -2  -3  -4 1877.71  130.41
  -2  -3  -4 1723.46   93.76
  -2  -3  -3 1644.78   96.30
  -2  -3  -3 1601.39   87.74
  -2  -3  -3 1606.69  114.85
  -2  -3  -3 1581.40   58.15
  -2  -3  -2  817.91   69.28
  -2  -3  -2  703.28   73.92
  -2  -3  -2  765.20   62.19
  -2  -3  -1  857.21   67.94
  -2  -3  -1  880.39   88.16
  -2  -3  -1  802.58   67.30
  -2  -3   0  770.66   39.88
  -2  -3   0 1138.12   93.91
  -2  -3   1 1435.27   65.33
  -2  -3   1 1661.23  110.87
  -2  -3   2 2207.58  131.85
  -2  -3   2 2088.03   94.60
  -2  -3   3 2285.21  142.31
  -2  -3   3 2005.53  108.53
  -2  -3   4 2036.39  149.83
  -2  -3   4 1734.54  116.30
  -2  -3   5 1186.89  120.69
  -2  -3   6  524.88   83.11
  -2  -3   6  578.10   84.03
  -2  -3   7  337.13   98.85
  -2  -3   7  372.51   73.08
  -2  -3   7  302.40   71.99
  -2  -3   8  354.58   83.28
  -2  -3   8  392.65   73.50
  -2  -3   8  327.79   91.26
  -2  -3   9  123.92   49.36
  -2  -3   9  251.34   78.76
  -2  -3  10  340.61   67.38
  -2  -3  10  364.55  105.63
  -2  -3  11  271.29   64.06
  -2  -3  11  346.55  104.70
  -2  -3  12   86.05   74.74
  -2  -2 -14  180.07   59.03
  -2  -2 -13   61.95   49.49
  -2  -2 -12  553.25   96.43
  -2  -2 -11  373.77   79.56
  -2  -2 -10  587.88   88.63
  -2  -2 -10  431.88   51.81
  -2  -2  -9  583.57   80.88
  -2  -2  -9  473.13   53.21
  -2  -2  -9  522.04   79.06
  -2  -2  -8 1001.86   94.01
  -2  -2  -8 1012.04  100.54
  -2  -2  -8  913.78   69.90
  -2  -2  -7 2570.39  142.47
  -2  -2  -7 2603.83  136.10
  -2  -2  -7 2422.93  111.01
  -2  -2  -6  411.70   53.03
  -2  -2  -6  452.47   51.17
  -2  -2  -6  394.60   45.72
  -2  -2  -5 4208.44  135.94
  -2  -2  -5 4098.17  141.77
  -2  -2  -5 4448.26  137.22
  -2  -2  -4 1431.13   73.31
  -2  -2  -4 1508.00  117.39
  -2  -2  -4 1519.92   72.41
  -2  -2  -4 1522.73   81.45
  -2  -2  -3 1608.53   85.49
  -2  -2  -3 1615.03   63.13
  -2  -2  -3 1554.26  104.37
  -2  -2  -3 1619.42   71.37
  -2  -2  -2 2668.42   57.09
  -2  -2  -2 2756.99   95.40
  -2  -2  -2 2633.43  124.85
  -2  -2  -2 2795.15  110.78
  -2  -2  -1 7024.28  195.16
  -2  -2   0 1743.23   48.57
  -2  -2   0 1810.20   98.95
  -2  -2   1 1265.17   88.58
  -2  -2   1 1237.86   56.70
  -2  -2   2 2910.07  136.98
  -2  -2   2 2963.80  107.75
  -2  -2   3 2035.94  104.37
  -2  -2   3 2214.59  127.76
  -2  -2   4 2510.48  130.94
  -2  -2   4 2717.01  154.15
  -2  -2   5 1441.92  124.35
  -2  -2   5 1515.73  124.29
  -2  -2   6  905.66   98.87
  -2  -2   6  739.99   89.74
  -2  -2   6  875.83  123.30
  -2  -2   7 1447.15  139.91
  -2  -2   7 1594.07  171.37
  -2  -2   7 1564.29  130.61
  -2  -2   8  135.46   58.91
  -2  -2   8   68.33   35.43
  -2  -2   8   63.44   41.78
  -2  -2   9 1105.48  113.35
  -2  -2   9 1175.78  158.02
  -2  -2  10  334.18   64.96
  -2  -2  10  387.69   95.27
  -2  -2  11  564.84   85.00
  -2  -2  11  474.59  114.10
  -2  -2  12  242.93   90.78
  -2  -1 -14  140.86   55.29
  -2  -1 -13  132.58   71.96
  -2  -1 -12  199.42   73.86
  -2  -1 -11  570.31   92.50
  -2  -1 -10  436.29   85.45
  -2  -1 -10  269.07   33.50
  -2  -1  -9 1078.75  113.56
  -2  -1  -9  755.21   57.19
  -2  -1  -8  792.30   89.11
  -2  -1  -8  689.78   50.94
  -2  -1  -7  496.16   70.92
  -2  -1  -7  499.42   60.16
  -2  -1  -7  488.34   42.17
  -2  -1  -6 1647.89  109.25
  -2  -1  -6 1617.35   72.54
  -2  -1  -6 1731.26   91.69
  -2  -1  -5 1281.55   90.77
  -2  -1  -5 1316.92   67.06
  -2  -1  -5 1353.63   64.24
  -2  -1  -4 1844.14   77.16
  -2  -1  -4 1660.82   61.08
  -2  -1  -4 1729.45   92.43
  -2  -1  -3 3296.21  105.24
  -2  -1  -3 3187.64   74.40
  -2  -1  -3 3151.55  104.38
  -2  -1  -2 2350.63   69.44
  -2  -1  -2 2249.62  115.58
  -2  -1  -2 2160.65   76.15
  -2  -1  -1 1753.98   88.17
  -2  -1   0 2666.27  108.96
  -2  -1   0 2429.32   75.36
  -2  -1   1 2543.56   88.48
  -2  -1   1 2455.69  109.96
  -2  -1   2 2419.63  100.13
  -2  -1   2 2311.73  111.38
  -2  -1   3 1761.37   96.77
  -2  -1   3 2039.68  114.65
  -2  -1   3 2031.25  131.03
  -2  -1   4 1272.22   93.08
  -2  -1   4 1479.46  117.81
  -2  -1   4 1387.68  102.19
  -2  -1   4 1598.29  143.91
  -2  -1   5  866.45   90.85
  -2  -1   5 1012.64  119.85
  -2  -1   5  937.57   97.83
  -2  -1   6  733.72   86.49
  -2  -1   6  699.26  105.83
  -2  -1   6  756.31   90.42
  -2  -1   7  873.36  124.29
  -2  -1   7  890.20  104.22
  -2  -1   7 1186.50  113.34
  -2  -1   8  644.03   86.05
  -2  -1   8  512.22  103.56
  -2  -1   9  588.53  110.15
  -2  -1   9  552.94   79.83
  -2  -1  10  532.33  108.64
  -2  -1  10  371.14   70.34
  -2  -1  11  294.67   83.17
  -2  -1  11  347.57   68.45
  -2  -1  12  244.21   80.79
  -2  -1  12  100.14   39.15
  -2  -1  13  245.29   95.69
  -2   0 -14  248.26   84.20
  -2   0 -13   97.67   58.18
  -2   0 -12  117.35   59.35
  -2   0 -11  306.40   77.93
  -2   0 -10  217.26   58.06
  -2   0  -9 1931.19  158.32
  -2   0  -8  977.75  104.40
  -2   0  -8  434.95   27.34
  -2   0  -7  885.52   89.61
  -2   0  -7  570.41   31.97
  -2   0  -6 3598.64  168.70
  -2   0  -6 3052.86   74.21
  -2   0  -5 1046.36   85.45
  -2   0  -5  928.23   41.55
  -2   0  -4 1353.76   56.01
  -2   0  -4 1243.66   85.75
  -2   0  -3 9226.84  203.21
  -2   0  -2 1614.38   78.14
  -2   0  -1 1350.83   69.69
  -2   0  -1 1445.50   61.65
  -2   0   0 5412.75  126.02
  -2   0   0 5146.92  164.39
  -2   0   0 5320.97  148.01
  -2   0   1 2097.87   77.41
  -2   0   1 2035.16   88.26
  -2   0   1 1865.79  107.50
  -2   0   1 1968.95  107.76
  -2   0   2 5251.58  152.13
  -2   0   2 5459.58  197.67
  -2   0   2 5164.41  132.51
  -2   0   2 5036.13  184.52
  -2   0   3 4967.74  164.90
  -2   0   3 4943.11  207.28
  -2   0   3 4899.90  148.85
  -2   0   3 4930.83  193.99
  -2   0   4   29.72   24.36
  -2   0   4   70.32   27.15
  -2   0   4   25.28   19.37
  -2   0   5 3303.45  155.91
  -2   0   5 3540.30  205.60
  -2   0   5 3336.13  174.39
  -2   0   6 1429.50  112.39
  -2   0   6 1291.12  131.08
  -2   0   7  569.95   75.68
  -2   0   7  572.59   93.73
  -2   0   8 2400.72  195.27
  -2   0   8 2691.41  164.43
  -2   0   9  575.06   79.06
  -2   0   9  601.52  106.49
  -2   0  10  444.51   74.75
  -2   0  10  572.08  109.67
  -2   0  11  163.93   49.67
  -2   0  11   83.49   56.91
  -2   0  12  510.68  110.72
  -2   0  12  422.08   76.74
  -2   0  13  169.81   78.15
  -2   0  13   39.76   37.39
  -2   1 -14  198.99   80.45
  -2   1 -13  105.59   47.87
  -2   1 -12   41.94   39.09
  -2   1 -11  303.56   77.63
  -2   1 -10  504.10   92.03
  -2   1  -9  304.72   67.67
  -2   1  -8 1180.44  116.93
  -2   1  -7 1277.91  120.74
  -2   1  -6  996.79   93.23
  -2   1  -5 1935.40  124.84
  -2   1  -4 1891.20  113.76
  -2   1  -4 1287.24   51.50
  -2   1  -3 1353.13   61.24
  -2   1  -3 1395.30   97.08
  -2   1  -2 2948.52  102.26
  -2   1  -2 3201.05  131.82
  -2   1  -1 2119.23   92.25
  -2   1  -1 2052.94   69.16
  -2   1   0 2330.02  112.25
  -2   1   0 2481.27   74.95
  -2   1   0 2383.17   93.30
  -2   1   1 2028.96   59.19
  -2   1   1 2166.96   98.75
  -2   1   1 2093.16  107.97
  -2   1   1 2039.86  111.96
  -2   1   2 1673.02  106.56
  -2   1   2 1680.88   57.69
  -2   1   2 1628.46   97.94
  -2   1   2 1714.50  109.82
  -2   1   3 1784.03  123.42
  -2   1   3 1849.80  106.33
  -2   1   3 1719.93   70.64
  -2   1   3 1857.10  117.19
  -2   1   4 1932.42  124.38
  -2   1   4 1954.04  141.27
  -2   1   4 1904.07  119.80
  -2   1   5 1767.15  144.32
  -2   1   5 1906.18  127.92
  -2   1   6 1287.54  111.46
  -2   1   6 1218.91  123.81
  -2   1   7  984.63  121.22
  -2   1   7 1041.90  103.50
  -2   1   8  951.70  122.38
  -2   1   8  935.90  105.08
  -2   1   9  417.04   71.81
  -2   1   9  405.59   91.63
  -2   1  10  402.43  100.73
  -2   1  10  334.12   68.30
  -2   1  11  266.11   81.01
  -2   1  11  141.75   40.37
  -2   1  12  109.15   45.61
  -2   1  12  190.78   80.15
  -2   1  13  150.31   56.05
  -2   1  13  203.22   82.68
  -2   2 -13  260.16   90.83
  -2   2 -12  223.50   75.57
  -2   2 -11  240.56   73.22
  -2   2 -10  393.29   82.79
  -2   2  -9  110.31   52.36
  -2   2  -8  740.55   99.42
  -2   2  -7 2198.51  157.71
  -2   2  -6 2263.73  150.73
  -2   2  -5 2768.00  157.81
  -2   2  -4 3230.67  156.92
  -2   2  -4 3194.72  158.78
  -2   2  -4 3002.93   66.55
  -2   2  -3  919.10   82.76
  -2   2  -3  842.54   74.32
  -2   2  -3  889.74   47.25
  -2   2  -2 2523.57   91.32
  -2   2  -2 2470.54   81.73
  -2   2  -2 2524.95  109.70
  -2   2  -1 1074.55   59.88
  -2   2  -1 1115.43   61.21
  -2   2  -1 1209.53   67.47
  -2   2   0 7972.05  192.84
  -2   2   0 8068.06  180.40
  -2   2   0 8033.11  129.14
  -2   2   1 1653.31   95.31
  -2   2   1 1746.05   96.86
  -2   2   2  733.27   70.23
  -2   2   2  855.34   74.15
  -2   2   2  699.74   71.57
  -2   2   3 2279.22  123.26
  -2   2   3 2004.93  127.32
  -2   2   3 2101.07  122.50
  -2   2   4 3582.24  165.92
  -2   2   4 3614.75  170.70
  -2   2   4 3598.43  181.49
  -2   2   5 1351.66  120.93
  -2   2   5 1471.03  111.44
  -2   2   6 4099.83  196.04
  -2   2   6 4223.54  224.33
  -2   2   7  965.89  100.38
  -2   2   7  980.38  116.69
  -2   2   8 1225.31  114.12
  -2   2   8 1217.79  137.89
  -2   2   9  252.09   62.10
  -2   2   9  272.06   68.60
  -2   2  10  216.87   58.06
  -2   2  10  246.89   73.76
  -2   2  11  642.08  113.51
  -2   2  11  574.27   90.39
  -2   2  12  154.89   49.75
  -2   2  12   60.39   45.70
  -2   2  13  205.46   51.24
  -2   2  13  348.71   93.61
  -2   3 -13  177.24   73.28
  -2   3 -12  183.28   67.33
  -2   3 -11  338.49   88.63
  -2   3 -10  276.28   81.10
  -2   3  -9  230.46   66.85
  -2   3  -8  491.38   89.73
  -2   3  -7  583.70   93.83
  -2   3  -6 1030.00  113.75
  -2   3  -5 1679.89  134.92
  -2   3  -4 1428.75  114.15
  -2   3  -4 1582.41   60.08
  -2   3  -3 1259.08   94.00
  -2   3  -3 1399.71  114.69
  -2   3  -3 1361.46   65.08
  -2   3  -2 1874.12  103.01
  -2   3  -2 1726.67   88.27
  -2   3  -2 1960.51   91.92
  -2   3  -1 1754.38   91.12
  -2   3  -1 1855.89   89.24
  -2   3  -1 1997.85   95.92
  -2   3   0  761.02   48.48
  -2   3   0  748.67   64.25
  -2   3   0  757.79   66.28
  -2   3   1 1498.58   51.38
  -2   3   1 1787.72  103.84
  -2   3   1 1741.90  107.24
  -2   3   2 1155.04   91.82
  -2   3   2 1260.58   97.48
  -2   3   2 1355.61   98.40
  -2   3   3 1379.86  108.12
  -2   3   3 1401.08  109.10
  -2   3   3 1198.44  100.80
  -2   3   4 1686.11  117.00
  -2   3   4 1866.42  133.83
  -2   3   5 1735.83  139.81
  -2   3   5 1656.21  123.46
  -2   3   6 1812.99  149.13
  -2   3   6 1693.79  128.47
  -2   3   7  909.10  111.96
  -2   3   7  867.89   98.99
  -2   3   8  507.03   93.40
  -2   3   8  491.72   76.19
  -2   3   9  238.22   56.13
  -2   3   9  307.22   82.23
  -2   3  10  134.00   61.71
  -2   3  10  149.59   52.31
  -2   3  11  198.39   57.37
  -2   3  11  296.14   81.24
  -2   3  12  278.59   71.08
  -2   3  12  250.13   74.13
  -2   3  13  288.50   89.98
  -2   3  13  248.49   70.55
  -2   4 -12  231.73   85.38
  -2   4 -11  354.61   98.62
  -2   4 -10  367.57   84.59
  -2   4  -9  334.99   81.31
  -2   4  -8  991.56  125.67
  -2   4  -7  305.90   60.81
  -2   4  -6 1278.80  128.37
  -2   4  -5 1206.06   57.63
  -2   4  -5 1603.56  135.55
  -2   4  -4 1633.56  134.15
  -2   4  -4 1474.66   70.59
  -2   4  -3 1053.93   94.70
  -2   4  -3 1169.86   70.01
  -2   4  -3 1329.40  114.83
  -2   4  -3 1029.10   82.17
  -2   4  -2 3185.82  146.00
  -2   4  -2 3062.91  134.54
  -2   4  -2 3234.75  123.50
  -2   4  -1 2225.36  108.01
  -2   4  -1 2172.76  111.87
  -2   4  -1 2366.56  113.08
  -2   4   0  214.32   41.84
  -2   4   0  168.14   31.68
  -2   4   0  220.79   43.18
  -2   4   1 4893.14  177.87
  -2   4   1 4341.33  117.80
  -2   4   1 4800.90  183.86
  -2   4   2  336.86   27.94
  -2   4   2  571.74   68.61
  -2   4   2  511.88   66.79
  -2   4   3 2205.65  140.65
  -2   4   3 2158.78  138.18
  -2   4   4 2576.28  160.47
  -2   4   4 2400.32  147.19
  -2   4   5  696.51   82.24
  -2   4   5  799.39   97.51
  -2   4   6 1521.31  139.11
  -2   4   6 1456.23  129.03
  -2   4   7 1747.99  153.17
  -2   4   7 1677.34  142.64
  -2   4   8   96.11   46.55
  -2   4   8  101.90   45.40
  -2   4   9 1067.15  132.37
  -2   4   9 1171.81  127.44
  -2   4  10  384.90   92.33
  -2   4  10  378.46   79.63
  -2   4  11   88.93   59.40
  -2   4  11   52.35   52.45
  -2   4  12  387.69   87.33
  -2   4  12  383.22   96.84
  -2   4  13  307.71   95.16
  -2   4  13  190.62   67.76
  -2   5 -12  -19.04   60.66
  -2   5 -11  187.59   72.48
  -2   5 -10  354.61  101.63
  -2   5  -9  495.94  103.81
  -2   5  -8  230.28   68.94
  -2   5  -7  777.93  118.29
  -2   5  -6  277.10   61.68
  -2   5  -5  536.66   47.94
  -2   5  -5  715.12  103.26
  -2   5  -4  875.10   63.60
  -2   5  -4 1016.06  114.87
  -2   5  -3 1414.55   87.66
  -2   5  -3 1666.80  144.60
  -2   5  -3 1324.82  106.86
  -2   5  -2  726.31   77.79
  -2   5  -2  888.52  105.24
  -2   5  -2  826.89   72.12
  -2   5  -2  743.35   79.50
  -2   5  -1  903.58   84.87
  -2   5  -1  986.13   81.42
  -2   5  -1 1004.22   83.92
  -2   5   0  948.09   75.46
  -2   5   0  958.12   88.38
  -2   5   0  977.87   84.91
  -2   5   1  795.98   85.25
  -2   5   1  623.80   70.01
  -2   5   1  701.53   57.04
  -2   5   2 1396.53   72.60
  -2   5   2 1599.99  118.72
  -2   5   2 1551.50  118.29
  -2   5   3 1433.57  119.45
  -2   5   3 1263.34  110.79
  -2   5   4 1101.18  112.81
  -2   5   4 1179.62  111.29
  -2   5   5  899.58  109.99
  -2   5   5  824.14   99.62
  -2   5   6  533.15   93.13
  -2   5   6  442.54   77.45
  -2   5   7  414.81   84.47
  -2   5   7  403.44   82.17
  -2   5   8  326.63   73.12
  -2   5   8  380.71   83.83
  -2   5   9  544.27  101.48
  -2   5   9  401.23   79.20
  -2   5  10  297.78   74.29
  -2   5  10  366.20   90.70
  -2   5  11  260.56   82.04
  -2   5  11  171.53   53.55
  -2   5  12  187.91   63.62
  -2   5  12  155.55   61.56
  -2   5  13  149.64   64.83
  -2   5  13   31.26   37.97
  -2   6 -11   53.53   46.55
  -2   6 -10  172.38   59.69
  -2   6  -9  355.42   98.52
  -2   6  -8  230.46   68.60
  -2   6  -7  799.64  115.79
  -2   6  -6  271.00   65.81
  -2   6  -5  813.71   68.30
  -2   6  -5 1203.01  134.99
  -2   6  -4  438.06   54.78
  -2   6  -4  551.30   84.40
  -2   6  -3 2302.80  122.41
  -2   6  -3 2859.29  191.74
  -2   6  -2  886.55  114.99
  -2   6  -2  685.44   81.16
  -2   6  -2  630.98   71.93
  -2   6  -1  694.78   77.83
  -2   6  -1  920.88  110.92
  -2   6  -1  736.23   81.36
  -2   6  -1  712.86   76.92
  -2   6   0  749.41   78.65
  -2   6   0  844.17   89.46
  -2   6   0  757.83   84.13
  -2   6   1  440.94   58.42
  -2   6   1  560.87   71.04
  -2   6   1  513.41   73.29
  -2   6   2 1198.10   84.27
  -2   6   2 1458.88  125.17
  -2   6   2 1328.55  112.36
  -2   6   3  788.21   94.30
  -2   6   3  619.80   56.39
  -2   6   3  855.51   96.66
  -2   6   4 1763.32  140.62
  -2   6   4 1502.39  126.25
  -2   6   5 1117.11  123.29
  -2   6   5 1031.71  109.16
  -2   6   6  355.66   75.06
  -2   6   6  340.02   73.21
  -2   6   7  496.40   91.46
  -2   6   7  457.27   81.61
  -2   6   8  755.41  112.81
  -2   6   8  697.31   97.39
  -2   6   9  438.83   86.72
  -2   6   9  461.51   89.38
  -2   6  10  218.39   70.94
  -2   6  10  220.56   63.80
  -2   6  11  488.87  101.67
  -2   6  11  281.62   74.03
  -2   6  12   66.13   52.87
  -2   6  12    2.89   36.08
  -2   7 -10  113.45   67.05
  -2   7  -9  276.19   87.11
  -2   7  -8   30.12   45.14
  -2   7  -7  286.22   81.13
  -2   7  -6  511.62   98.68
  -2   7  -5  189.54   46.53
  -2   7  -5  246.10   69.09
  -2   7  -4 1087.70  136.69
  -2   7  -4  810.87   80.21
  -2   7  -3  283.60   76.11
  -2   7  -3  202.91   44.11
  -2   7  -2  429.38   65.60
  -2   7  -2  618.00   89.98
  -2   7  -2  766.30  109.98
  -2   7  -1  815.18  118.42
  -2   7  -1  729.49   82.59
  -2   7  -1  693.92   93.43
  -2   7   0  412.35   63.08
  -2   7   0  489.83   79.76
  -2   7   0  483.54   73.24
  -2   7   1  401.29   58.41
  -2   7   1  488.13   73.35
  -2   7   1  576.08   84.58
  -2   7   2  547.04   67.21
  -2   7   2  609.12   84.00
  -2   7   3  488.25   61.30
  -2   7   3  639.20   89.45
  -2   7   3  580.78   80.87
  -2   7   4  603.72   91.67
  -2   7   4  648.16   99.35
  -2   7   5  492.79   80.82
  -2   7   5  662.04   96.19
  -2   7   6  415.20   83.57
  -2   7   6  212.99   56.32
  -2   7   7  315.72   69.69
  -2   7   7  199.53   57.84
  -2   7   8  289.67   70.36
  -2   7   8  215.72   63.76
  -2   7   9  322.15   81.10
  -2   7   9  254.59   70.50
  -2   7  10  235.08   74.78
  -2   7  10  327.49   80.45
  -2   7  11  102.04   52.36
  -2   7  11  212.76   73.10
  -2   7  12    2.10   55.49
  -2   7  12   27.23   46.15
  -2   8  -9   70.81   60.94
  -2   8  -8  133.28   64.79
  -2   8  -7  498.41  108.36
  -2   8  -6  428.94   88.69
  -2   8  -5  383.41   86.71
  -2   8  -4 1141.07  105.74
  -2   8  -4 1616.59  167.91
  -2   8  -3   88.18   45.75
  -2   8  -3   62.72   33.01
  -2   8  -2  435.10   72.44
  -2   8  -2  596.42   92.26
  -2   8  -2  645.18  101.07
  -2   8  -1  517.31   83.44
  -2   8  -1  709.11  113.70
  -2   8  -1  497.54   78.07
  -2   8   0  356.77   65.69
  -2   8   0  275.14   57.61
  -2   8   1  456.44   79.27
  -2   8   1  411.94   74.47
  -2   8   2  528.41   73.86
  -2   8   2  519.33   82.40
  -2   8   3  283.45   65.24
  -2   8   3  182.40   42.67
  -2   8   3  264.44   65.12
  -2   8   4  339.07   72.96
  -2   8   4  280.82   54.28
  -2   8   4  410.12   80.67
  -2   8   5  541.19   95.48
  -2   8   5  805.12  114.30
  -2   8   6  333.32   70.78
  -2   8   6  490.48   90.53
  -2   8   7  742.59  119.80
  -2   8   7  908.77  130.90
  -2   8   8  359.19   83.56
  -2   8   8  430.96   93.32
  -2   8   9   38.22   39.40
  -2   8   9  137.92   61.40
  -2   8  10  250.27   78.05
  -2   8  10  392.04   98.64
  -2   8  11   19.81   44.30
  -2   8  11  110.24   61.81
  -2   9  -7   66.47   65.82
  -2   9  -6  497.60  113.70
  -2   9  -5  221.87   60.37
  -2   9  -4  152.31   69.12
  -2   9  -4   97.00   38.67
  -2   9  -3  234.57   55.63
  -2   9  -3  716.54  124.95
  -2   9  -2   96.49   40.01
  -2   9  -2  230.25   67.59
  -2   9  -2  133.50   48.26
  -2   9  -1  318.28   87.48
  -2   9  -1  234.50   62.95
  -2   9  -1  259.50   79.82
  -2   9   0  309.58   72.49
  -2   9   0  584.79  115.64
  -2   9   0  440.90   87.11
  -2   9   1  381.74   76.90
  -2   9   1  390.13   78.45
  -2   9   2  301.58   73.09
  -2   9   2  282.97   68.25
  -2   9   3  293.57   67.10
  -2   9   3  368.60   81.26
  -2   9   4   91.24   41.29
  -2   9   4   95.97   42.51
  -2   9   5  144.70   54.35
  -2   9   5  231.29   64.30
  -2   9   6  250.27   74.02
  -2   9   6  459.45   94.58
  -2   9   7  305.32   71.48
  -2   9   7  189.35   63.80
  -2   9   8  103.42   62.18
  -2   9   8  159.03   65.41
  -2   9   9  221.93   74.57
  -2   9   9  117.17   62.31
  -2   9  10  165.75   79.23
  -2   9  10 -122.03   68.12
  -2  10  -6  366.66  102.92
  -2  10  -5  127.35   65.50
  -2  10  -4  -19.98   52.81
  -2  10  -4   64.78   39.28
  -2  10  -3  181.75   50.57
  -2  10  -3  482.32  111.69
  -2  10  -2  297.75   80.99
  -2  10  -2  174.63   57.41
  -2  10  -1  238.76   65.60
  -2  10  -1  345.17   83.48
  -2  10  -1  151.55   59.65
  -2  10   0  299.49   77.34
  -2  10   0  170.01   62.28
  -2  10   1  190.73   56.52
  -2  10   1   87.40   52.18
  -2  10   2  337.88   81.85
  -2  10   2  226.03   76.42
  -2  10   3  356.18   77.92
  -2  10   3  196.59   62.89
  -2  10   4   65.98   44.46
  -2  10   4  151.22   56.11
  -2  10   5  283.40   73.72
  -2  10   5  284.68   74.46
  -2  10   6  389.80   90.10
  -2  10   6  283.95   79.26
  -2  10   7  107.93   59.73
  -2  10   7   43.24   38.04
  -2  10   8  342.47   84.26
  -2  10   8  237.38   80.46
  -2  10   9  272.79   85.35
  -2  10   9  123.12   56.34
  -2  11  -3   63.68   58.48
  -2  11  -3   79.17   51.39
  -2  11  -2  207.87   82.20
  -2  11  -2  127.80   50.32
  -2  11  -1  154.80   64.14
  -2  11  -1  201.85   77.31
  -2  11  -1   72.28   45.40
  -2  11   0  200.65   70.76
  -2  11   0  241.74   80.92
  -2  11   0  126.05   61.12
  -2  11   1  175.36   66.65
  -2  11   1  263.36   82.17
  -2  11   1  206.16   75.55
  -2  11   2  124.31   59.24
  -2  11   2  146.97   65.21
  -2  11   3  141.30   64.65
  -2  11   3  125.54   60.57
  -2  11   4  285.91   79.46
  -2  11   4  174.70   69.08
  -2  11   5  157.33   67.66
  -2  11   5  184.71   79.67
  -2  11   6   77.55   50.70
  -2  11   6   64.20   45.38
  -2  11   7   12.59   47.29
  -2  11   7  105.75   67.69
  -2  12   1  169.63   71.20
  -2  12   1  184.68   78.47
  -2  12   1   35.16   37.30
  -2  12   2  -92.50   62.15
  -2  12   2    8.28   41.19
  -2  12   2  -30.21   58.77
  -2  12   3  198.13   64.76
  -2  12   3  130.78   69.27
  -2  12   4  182.26   71.52
  -2  12   4   90.00   38.12
  -1 -12  -7   88.58   44.71
  -1 -12  -6   51.86   55.14
  -1 -12  -5  -57.56   50.59
  -1 -12  -4   41.20   36.92
  -1 -12  -3  -18.74   37.51
  -1 -12  -2    1.21   38.89
  -1 -12  -1   21.56   48.32
  -1 -12   0   -6.14   40.43
  -1 -12   1  -19.62   38.71
  -1 -11  -9  -33.06   33.35
  -1 -11  -8   53.79   40.21
  -1 -11  -7    8.16   30.92
  -1 -11  -6  -84.44   50.03
  -1 -11  -5  -41.09   40.21
  -1 -11  -4   29.30   31.00
  -1 -11  -3  -50.89   39.90
  -1 -11  -2   -1.49   43.42
  -1 -11  -1   49.80   41.06
  -1 -11   0  -27.24   33.16
  -1 -11   1   83.91   63.38
  -1 -11   2  -11.46   39.97
  -1 -11   3   75.07   50.67
  -1 -11   4 -156.91   76.98
  -1 -10 -11   94.26   54.77
  -1 -10 -10  -77.93   47.49
  -1 -10  -9   22.39   37.97
  -1 -10  -8  -11.78   30.23
  -1 -10  -7   11.03   40.19
  -1 -10  -6  163.02   55.92
  -1 -10  -5    5.52   35.55
  -1 -10  -4  -14.02   41.46
  -1 -10  -3   76.09   46.91
  -1 -10  -2   27.75   32.06
  -1 -10  -1   -8.02   30.42
  -1 -10   0   37.33   38.99
  -1 -10   1  -12.32   38.95
  -1 -10   2   25.63   47.42
  -1 -10   3   41.20   34.74
  -1 -10   4   60.17   51.60
  -1 -10   5   23.83   44.91
  -1 -10   6  -16.88   42.96
  -1  -9 -12   36.01   41.57
  -1  -9 -11   -4.01   34.11
  -1  -9 -10   31.63   38.46
  -1  -9  -9   20.40   33.67
  -1  -9  -8    6.15   29.34
  -1  -9  -7  -26.98   32.32
  -1  -9  -6   18.64   31.36
  -1  -9  -5   30.17   29.45
  -1  -9  -4   -7.20   34.37
  -1  -9  -3  -23.70   39.51
  -1  -9  -2  -48.22   28.93
  -1  -9  -1   38.70   33.66
  -1  -9   0  -12.62   44.58
  -1  -9   1   12.08   34.44
  -1  -9   2   22.73   48.27
  -1  -9   3  -21.84   32.22
  -1  -9   4  -46.79   39.23
  -1  -9   5   67.22   50.74
  -1  -9   6   36.94   51.55
  -1  -9   7   77.19   41.18
  -1  -8 -13  -15.75   34.01
  -1  -8 -13  -99.18   49.04
  -1  -8 -12  -47.19   48.80
  -1  -8 -12   90.41   52.60
  -1  -8 -11  -15.32   29.17
  -1  -8 -10   62.30   45.70
  -1  -8  -9  118.10   55.40
  -1  -8  -8  120.81   58.32
  -1  -8  -7   16.15   29.89
  -1  -8  -6   77.85   39.32
  -1  -8  -5  195.07   51.56
  -1  -8  -4   -2.73   24.39
  -1  -8  -3   20.38   31.22
  -1  -8  -2  154.30   47.81
  -1  -8  -1  -43.29   40.90
  -1  -8   0    6.24   28.24
  -1  -8   1  -23.70   38.84
  -1  -8   2  143.65   52.22
  -1  -8   3   -3.76   37.62
  -1  -8   4   26.66   41.79
  -1  -8   5   27.93   42.91
  -1  -8   6   73.57   51.99
  -1  -8   7  -36.65   45.62
  -1  -8   8   10.05   46.00
  -1  -7 -13  163.82   66.85
  -1  -7 -13   87.90   62.25
  -1  -7 -12   -3.95   36.31
  -1  -7 -12  -52.80   39.38
  -1  -7 -11   -7.27   38.61
  -1  -7 -11   37.90   51.20
  -1  -7 -10  -46.21   38.20
  -1  -7 -10  -31.21   46.62
  -1  -7  -9  -23.86   37.88
  -1  -7  -9   -7.79   36.87
  -1  -7  -8   17.84   29.44
  -1  -7  -7  -21.52   29.71
  -1  -7  -6  -37.64   35.03
  -1  -7  -5   -6.71   34.68
  -1  -7  -4   32.79   28.95
  -1  -7  -3  -11.02   28.79
  -1  -7  -2  -51.19   37.35
  -1  -7  -1  -43.02   26.80
  -1  -7   0   26.73   28.03
  -1  -7   1   26.00   27.29
  -1  -7   2  -39.52   36.08
  -1  -7   3   24.93   29.60
  -1  -7   4   80.85   50.14
  -1  -7   5   -1.19   31.84
  -1  -7   6  -30.75   47.55
  -1  -7   7  -50.91   45.44
  -1  -7   8  129.44   72.04
  -1  -7   9  -22.58   55.79
  -1  -6 -14    2.74   38.02
  -1  -6 -14  -30.12   56.93
  -1  -6 -13   71.66   55.50
  -1  -6 -13   22.93   38.02
  -1  -6 -12    8.82   33.23
  -1  -6 -12   29.81   51.57
  -1  -6 -11   29.90   31.83
  -1  -6 -11  -24.74   35.97
  -1  -6 -10   44.65   37.40
  -1  -6 -10   22.92   32.58
  -1  -6  -9   11.91   33.28
  -1  -6  -9  -13.41   28.76
  -1  -6  -8   42.81   36.84
  -1  -6  -8   49.25   37.40
  -1  -6  -7  -39.38   35.88
  -1  -6  -7   36.28   30.81
  -1  -6  -6  122.56   45.56
  -1  -6  -5  113.90   43.45
  -1  -6  -4  123.01   36.99
  -1  -6  -3   47.90   30.84
  -1  -6  -2   35.81   24.83
  -1  -6  -1  -28.14   30.78
  -1  -6   0   46.10   26.63
  -1  -6   1  305.85   59.95
  -1  -6   2  157.24   49.24
  -1  -6   3   92.30   46.28
  -1  -6   4  -12.48   28.33
  -1  -6   5   66.27   50.02
  -1  -6   6   12.87   34.36
  -1  -6   7  198.56   80.17
  -1  -6   8   11.75   47.34
  -1  -6   9    5.35   25.09
  -1  -6   9   62.41   58.28
  -1  -6  10  147.78   80.54
  -1  -5 -14   10.75   48.34
  -1  -5 -14   24.87   43.68
  -1  -5 -13  -30.59   49.07
  -1  -5 -13 -110.18   64.03
  -1  -5 -12  101.10   54.44
  -1  -5 -12    4.50   33.97
  -1  -5 -11  109.62   48.96
  -1  -5 -11  -92.21   51.66
  -1  -5 -10   34.52   41.20
  -1  -5 -10   14.57   29.46
  -1  -5  -9  -59.29   42.13
  -1  -5  -9   -2.18   30.30
  -1  -5  -8   63.65   38.39
  -1  -5  -8  -25.95   24.69
  -1  -5  -7   17.36   24.57
  -1  -5  -7   35.40   29.92
  -1  -5  -6   -6.35   24.19
  -1  -5  -6   19.32   21.50
  -1  -5  -5   -2.35   24.34
  -1  -5  -5   -7.04   21.10
  -1  -5  -4   28.22   26.76
  -1  -5  -4  -28.28   24.60
  -1  -5  -3  -12.74   18.79
  -1  -5  -3    5.65   22.77
  -1  -5  -3  -43.88   26.01
  -1  -5  -2  -37.74   24.42
  -1  -5  -2    7.87   23.80
  -1  -5  -2  -21.05   29.92
  -1  -5  -1   29.54   21.20
  -1  -5  -1   35.49   23.05
  -1  -5  -1   15.25   22.64
  -1  -5   0  -20.70   18.37
  -1  -5   0    9.39   21.06
  -1  -5   0  -21.79   23.00
  -1  -5   1   -6.47   19.39
  -1  -5   1  -25.55   29.57
  -1  -5   2   41.63   26.10
  -1  -5   2   86.51   27.53
  -1  -5   2   96.69   36.67
  -1  -5   3    7.63   21.41
  -1  -5   3   25.69   22.20
  -1  -5   3  -25.81   30.45
  -1  -5   4    6.65   17.42
  -1  -5   4  -32.15   32.89
  -1  -5   5  -38.72   21.94
  -1  -5   5  -17.61   35.64
  -1  -5   6    1.74   18.56
  -1  -5   6  -25.89   39.97
  -1  -5   7   69.93   28.76
  -1  -5   7    6.26   33.63
  -1  -5   8   61.95   42.60
  -1  -5   8   23.62   50.16
  -1  -5   9  -25.76   27.58
  -1  -5   9  -29.73   36.21
  -1  -5  10  -72.17   71.36
  -1  -5  11   50.30   54.88
  -1  -4 -14    3.15   42.88
  -1  -4 -13   42.72   55.25
  -1  -4 -12   21.46   39.65
  -1  -4 -11   38.99   45.62
  -1  -4 -10   43.07   41.00
  -1  -4  -9   69.23   43.17
  -1  -4  -8   70.96   39.23
  -1  -4  -8   68.69   36.71
  -1  -4  -7  296.70   68.68
  -1  -4  -7  384.39   59.67
  -1  -4  -6  623.86   77.07
  -1  -4  -6  588.66   82.20
  -1  -4  -6  633.88   71.57
  -1  -4  -6  535.87   64.67
  -1  -4  -5   51.08   29.87
  -1  -4  -5   43.73   20.83
  -1  -4  -5   47.91   30.90
  -1  -4  -5   77.01   32.80
  -1  -4  -4  458.88   64.71
  -1  -4  -4  507.65   55.33
  -1  -4  -4  463.69   57.99
  -1  -4  -4  458.67   57.14
  -1  -4  -3  454.22   59.65
  -1  -4  -3  443.04   55.88
  -1  -4  -3  435.26   54.51
  -1  -4  -2   62.37   25.84
  -1  -4  -2   19.23   22.74
  -1  -4  -2    9.67   20.34
  -1  -4  -1   15.18   21.86
  -1  -4  -1  -29.48   22.07
  -1  -4  -1  -10.56   20.95
  -1  -4   0    3.25   23.28
  -1  -4   0   62.53   30.95
  -1  -4   0   29.76   24.14
  -1  -4   1 1308.42   91.40
  -1  -4   1 1332.47  101.19
  -1  -4   1 1312.97   81.78
  -1  -4   1 1373.98   99.10
  -1  -4   2  325.50   61.74
  -1  -4   2  303.72   49.34
  -1  -4   2  353.14   50.75
  -1  -4   2  225.51   41.14
  -1  -4   3  135.33   36.09
  -1  -4   3   77.34   38.92
  -1  -4   3  102.90   30.38
  -1  -4   4   97.28   35.97
  -1  -4   4  165.56   49.57
  -1  -4   4   73.99   25.65
  -1  -4   5   37.94   41.47
  -1  -4   5   58.22   26.25
  -1  -4   6   80.17   48.21
  -1  -4   6   14.36   17.66
  -1  -4   7  -14.76   32.77
  -1  -4   7   52.07   41.63
  -1  -4   7    4.75   17.71
  -1  -4   8  -11.10   26.36
  -1  -4   8   49.75   26.32
  -1  -4   8   59.61   58.94
  -1  -4   9  131.93   39.44
  -1  -4   9  121.59   56.96
  -1  -4  10    4.26   20.86
  -1  -4  10   29.04   41.23
  -1  -4  11   77.48   59.29
  -1  -4  12   84.47   65.91
  -1  -3 -14   79.71   58.78
  -1  -3 -13   -6.23   40.67
  -1  -3 -12  -20.63   38.31
  -1  -3 -11   40.72   48.93
  -1  -3 -10   54.02   34.33
  -1  -3  -9   39.81   34.01
  -1  -3  -8   19.21   19.36
  -1  -3  -8  -18.89   34.26
  -1  -3  -7   63.17   26.70
  -1  -3  -7   22.85   26.57
  -1  -3  -7   91.39   33.06
  -1  -3  -6   18.37   20.44
  -1  -3  -6   28.34   23.63
  -1  -3  -6   24.76   18.50
  -1  -3  -5  101.98   31.29
  -1  -3  -5   93.09   34.57
  -1  -3  -5  117.37   30.06
  -1  -3  -5  108.26   32.96
  -1  -3  -4  228.99   40.27
  -1  -3  -4  225.64   34.96
  -1  -3  -4  195.24   41.56
  -1  -3  -4  185.53   34.79
  -1  -3  -3  625.73   65.92
  -1  -3  -3  623.03   47.17
  -1  -3  -3  622.96   56.82
  -1  -3  -3  610.24   55.87
  -1  -3  -2  575.87   51.54
  -1  -3  -2  557.25   62.66
  -1  -3  -2  527.96   52.24
  -1  -3  -1   42.82   20.86
  -1  -3  -1   22.82   21.77
  -1  -3  -1   13.36   16.58
  -1  -3   0  256.77   39.90
  -1  -3   0  309.04   46.43
  -1  -3   0  292.96   39.40
  -1  -3   1  699.92   59.30
  -1  -3   1  562.10   62.24
  -1  -3   1  562.83   48.12
  -1  -3   1  723.84   64.67
  -1  -3   2  249.96   40.17
  -1  -3   2  244.27   44.80
  -1  -3   2  247.92   37.73
  -1  -3   3   -8.03   24.18
  -1  -3   3    7.97   19.12
  -1  -3   4  116.66   37.94
  -1  -3   4  171.68   35.83
  -1  -3   5   27.74   27.61
  -1  -3   6   -7.86   26.93
  -1  -3   6   12.03   32.17
  -1  -3   7   32.33   24.43
  -1  -3   7  -53.01   35.80
  -1  -3   8  -14.96   23.15
  -1  -3   8  -23.07   29.18
  -1  -3   8   28.33   36.34
  -1  -3   9   -2.83   20.17
  -1  -3   9  -39.87   47.64
  -1  -3  10   34.00   25.82
  -1  -3  10   40.26   49.97
  -1  -3  11  -60.20   54.33
  -1  -3  12   29.34   55.36
  -1  -2 -14  -34.28   50.67
  -1  -2 -13   42.45   47.71
  -1  -2 -12  -59.89   36.30
  -1  -2 -11   38.64   39.74
  -1  -2 -10   37.24   48.56
  -1  -2 -10   24.82   26.30
  -1  -2  -9   66.10   51.81
  -1  -2  -9  -30.70   27.47
  -1  -2  -8  164.07   35.09
  -1  -2  -8  136.44   45.77
  -1  -2  -8  157.48   47.17
  -1  -2  -7   82.99   26.26
  -1  -2  -7   61.01   30.37
  -1  -2  -7   61.89   25.72
  -1  -2  -6  188.40   46.04
  -1  -2  -6  242.43   46.75
  -1  -2  -6  204.58   34.49
  -1  -2  -5   51.03   22.95
  -1  -2  -5   60.54   30.72
  -1  -2  -5  -13.56   22.08
  -1  -2  -4 3658.39  124.10
  -1  -2  -4 3685.52  118.00
  -1  -2  -4 3468.85  125.78
  -1  -2  -3 2044.37  111.12
  -1  -2  -3 2132.71   81.42
  -1  -2  -3 2165.77   87.22
  -1  -2  -3 2131.09   87.68
  -1  -2  -2 2773.67   93.69
  -1  -2  -2 2579.70   88.63
  -1  -2  -2 2682.10  110.75
  -1  -2  -2 2568.50   66.73
  -1  -2  -1   18.45   15.12
  -1  -2  -1   24.36   20.48
  -1  -2  -1   24.51   14.66
  -1  -2   0  890.42   56.07
  -1  -2   0  808.76   61.57
  -1  -2   0  781.46   32.60
  -1  -2   0  827.71   56.31
  -1  -2   1   92.74   26.41
  -1  -2   1   72.53   17.69
  -1  -2   2   93.46   31.39
  -1  -2   2   71.36   17.05
  -1  -2   3  256.98   45.60
  -1  -2   3  235.32   38.21
  -1  -2   4   46.46   27.63
  -1  -2   4   59.97   31.41
  -1  -2   5  134.30   38.21
  -1  -2   5  137.30   36.24
  -1  -2   5  186.85   46.40
  -1  -2   6  -37.16   27.77
  -1  -2   6   46.21   35.81
  -1  -2   7   71.18   38.23
  -1  -2   7   36.99   35.04
  -1  -2   7   64.90   32.67
  -1  -2   8  -13.78   23.25
  -1  -2   8    7.65   31.85
  -1  -2   9   67.13   31.52
  -1  -2   9   44.16   42.54
  -1  -2  10   92.96   56.03
  -1  -2  10   42.95   25.40
  -1  -2  11   20.01   25.38
  -1  -2  11  117.81   58.80
  -1  -2  12   84.13   60.20
  -1  -2  13    7.77   49.92
  -1  -1 -14  -77.59   58.89
  -1  -1 -13    2.99   42.15
  -1  -1 -12    0.07   37.76
  -1  -1 -11  -90.84   56.10
  -1  -1 -10    2.76   19.33
  -1  -1 -10  -50.25   41.37
  -1  -1  -9   27.83   17.39
  -1  -1  -9   33.46   28.61
  -1  -1  -8  -15.04   15.13
  -1  -1  -8   18.83   32.89
  -1  -1  -7   18.05   14.03
  -1  -1  -7   27.22   25.59
  -1  -1  -7   26.76   20.60
  -1  -1  -6  125.52   23.99
  -1  -1  -6  113.15   36.73
  -1  -1  -6  115.43   33.52
  -1  -1  -5  123.63   22.28
  -1  -1  -5   95.59   31.80
  -1  -1  -5  116.81   32.19
  -1  -1  -4  128.23   20.14
  -1  -1  -4  105.19   28.38
  -1  -1  -4  123.73   26.47
  -1  -1  -3   -9.32   12.21
  -1  -1  -3   -5.13   17.78
  -1  -1  -3    2.32   10.73
  -1  -1  -2  437.80   32.88
  -1  -1  -2  418.89   29.77
  -1  -1  -2  362.69   26.44
  -1  -1  -1   50.09   14.93
  -1  -1  -1   73.87   26.04
  -1  -1   0  116.81   24.04
  -1  -1   1  209.52   23.18
  -1  -1   1  186.63   27.84
  -1  -1   2   71.17   20.33
  -1  -1   2   86.87   26.38
  -1  -1   3   66.80   23.79
  -1  -1   3   96.94   30.15
  -1  -1   3   81.29   31.30
  -1  -1   4  164.83   33.68
  -1  -1   4  114.34   29.97
  -1  -1   4  188.68   38.56
  -1  -1   4  154.23   45.33
  -1  -1   5   82.61   30.93
  -1  -1   5   59.33   29.25
  -1  -1   5   84.30   33.28
  -1  -1   5   27.01   32.65
  -1  -1   6  -41.34   27.14
  -1  -1   6   31.55   31.97
  -1  -1   6   60.07   34.43
  -1  -1   7   44.00   26.63
  -1  -1   7   58.13   44.18
  -1  -1   8   82.14   29.58
  -1  -1   8   55.76   37.73
  -1  -1   9  -39.31   26.90
  -1  -1   9   31.95   35.05
  -1  -1  10   60.52   29.08
  -1  -1  10   51.12   39.88
  -1  -1  11   21.99   23.00
  -1  -1  11   67.97   50.60
  -1  -1  12   31.09   21.56
  -1  -1  12   60.99   51.94
  -1  -1  13  -47.94   59.20
  -1   0 -14   20.42   42.68
  -1   0 -13   17.96   39.22
  -1   0 -12   35.71   44.79
  -1   0 -11   -9.60   36.25
  -1   0 -10   41.87   47.76
  -1   0  -9   63.33   38.70
  -1   0  -8    1.20   12.45
  -1   0  -8    7.48   28.24
  -1   0  -7  222.15   52.61
  -1   0  -7  162.69   24.76
  -1   0  -6 1543.98  108.73
  -1   0  -6 1338.00   59.25
  -1   0  -5    5.25    9.04
  -1   0  -5    8.62   24.90
  -1   0  -4  452.17   50.10
  -1   0  -4  399.47   24.03
  -1   0  -3 6543.11  155.96
  -1   0  -3 5854.75   77.40
  -1   0  -2 4627.51  110.18
  -1   0  -1   79.51   15.03
  -1   0   0  699.00   31.05
  -1   0   0  750.37   40.20
  -1   0   1    9.05   19.66
  -1   0   1    2.88   11.44
  -1   0   1   17.99   15.50
  -1   0   1   12.16   18.94
  -1   0   2   31.06   18.34
  -1   0   2   33.81   20.79
  -1   0   2   39.45   15.91
  -1   0   2   35.06   24.34
  -1   0   3  554.63   51.34
  -1   0   3  459.76   50.86
  -1   0   3  464.88   45.55
  -1   0   3  463.72   58.73
  -1   0   4  441.69   52.62
  -1   0   4  430.14   63.50
  -1   0   4  453.79   50.97
  -1   0   4  515.68   54.82
  -1   0   5   81.05   32.81
  -1   0   5  160.38   43.96
  -1   0   5  163.16   49.48
  -1   0   6   84.35   34.83
  -1   0   6   88.34   39.08
  -1   0   7  139.55   33.91
  -1   0   7  134.89   50.26
  -1   0   8  257.83   64.33
  -1   0   8  371.58   53.15
  -1   0   9   81.28   31.41
  -1   0   9   96.65   43.61
  -1   0  10   99.34   35.33
  -1   0  10  102.48   52.55
  -1   0  11   92.91   35.45
  -1   0  11   33.83   39.79
  -1   0  12   96.86   39.14
  -1   0  12   24.92   34.63
  -1   0  13  -25.49   41.05
  -1   1 -14  -37.92   56.01
  -1   1 -13  108.57   52.56
  -1   1 -12  -11.30   35.13
  -1   1 -11  -61.18   37.87
  -1   1 -10  -26.82   35.55
  -1   1  -9   69.97   41.64
  -1   1  -8   43.44   30.19
  -1   1  -7   -0.26   27.39
  -1   1  -6   51.02   35.71
  -1   1  -5  126.16   37.00
  -1   1  -5  116.96   38.36
  -1   1  -4   22.06   30.11
  -1   1  -4   29.63   19.78
  -1   1  -3  477.96   52.94
  -1   1  -3  441.61   52.54
  -1   1  -2   70.67   27.40
  -1   1  -1   66.49   20.37
  -1   1  -1  106.80   19.29
  -1   1  -1  105.58   14.80
  -1   1   0   65.55   19.34
  -1   1   0   49.12   20.95
  -1   1   1  263.95   31.35
  -1   1   1  274.56   33.91
  -1   1   1  220.38   32.12
  -1   1   2  176.58   32.24
  -1   1   2  192.49   37.75
  -1   1   2  175.52   33.70
  -1   1   3   10.63   19.11
  -1   1   3  -16.48   20.02
  -1   1   3   -7.03   21.31
  -1   1   4  138.56   33.32
  -1   1   4  126.12   33.72
  -1   1   4  135.51   39.40
  -1   1   5   65.20   26.49
  -1   1   5   42.29   29.02
  -1   1   5   64.62   30.73
  -1   1   6   43.85   24.96
  -1   1   6   31.85   30.96
  -1   1   7   36.60   25.14
  -1   1   7   26.41   30.05
  -1   1   8   23.03   20.48
  -1   1   8  -31.09   42.45
  -1   1   9   40.34   28.11
  -1   1   9  -62.82   36.18
  -1   1  10   -1.04   25.61
  -1   1  10  -56.41   43.43
  -1   1  11   55.00   41.49
  -1   1  11   57.62   41.79
  -1   1  12  -23.23   25.48
  -1   1  12  -57.06   39.56
  -1   1  13  -31.18   25.60
  -1   1  13    7.74   33.94
  -1   1  14   25.71   40.76
  -1   2 -13   12.63   56.12
  -1   2 -12  -37.98   41.01
  -1   2 -11  -18.00   34.10
  -1   2 -10   58.14   40.68
  -1   2  -9   17.55   40.30
  -1   2  -8  -39.61   38.96
  -1   2  -7   42.44   36.02
  -1   2  -6  608.39   75.05
  -1   2  -5   80.40   33.22
  -1   2  -5   64.04   34.03
  -1   2  -4  153.65   41.51
  -1   2  -4  187.62   42.06
  -1   2  -3  211.94   19.22
  -1   2  -3  258.82   40.53
  -1   2  -3  307.61   49.61
  -1   2  -2  593.81   55.59
  -1   2  -2  619.78   60.90
  -1   2  -2  637.37   35.14
  -1   2  -1  478.07   40.86
  -1   2  -1  410.01   50.11
  -1   2  -1  388.89   37.37
  -1   2  -1  503.09   35.65
  -1   2   0   35.26   19.88
  -1   2   0   29.27   21.68
  -1   2   0   31.03   14.41
  -1   2   1  567.38   48.79
  -1   2   1  611.73   50.87
  -1   2   2  471.05   48.33
  -1   2   2  430.63   48.52
  -1   2   2  427.69   46.81
  -1   2   3   42.10   24.44
  -1   2   3   16.00   22.74
  -1   2   3   79.49   29.06
  -1   2   4   16.74   26.43
  -1   2   4    7.33   20.76
  -1   2   4    1.38   25.34
  -1   2   5   -1.51   22.41
  -1   2   5   -6.21   23.53
  -1   2   5  -12.88   30.25
  -1   2   6   56.10   24.99
  -1   2   6   24.87   26.70
  -1   2   7  110.32   36.47
  -1   2   7  133.81   47.44
  -1   2   8  156.08   37.07
  -1   2   8  112.55   37.78
  -1   2   9   36.64   28.53
  -1   2   9   14.88   27.69
  -1   2  10  -13.70   27.57
  -1   2  10  -22.88   38.59
  -1   2  11   54.01   34.75
  -1   2  11   15.62   30.82
  -1   2  12  -44.73   44.95
  -1   2  12  -40.19   30.00
  -1   2  13   22.80   34.49
  -1   2  13   -9.72   27.36
  -1   2  14  -17.17   50.15
  -1   3 -13   37.68   50.64
  -1   3 -12  -66.49   54.82
  -1   3 -11  -60.79   52.75
  -1   3 -10   44.34   51.66
  -1   3  -9   53.95   47.35
  -1   3  -8    6.05   31.68
  -1   3  -7   26.12   33.99
  -1   3  -6   37.64   26.84
  -1   3  -5  257.57   56.86
  -1   3  -4   64.21   33.90
  -1   3  -4   69.61   31.29
  -1   3  -3   23.07   13.52
  -1   3  -3    2.42   19.25
  -1   3  -3   50.66   28.50
  -1   3  -2 1041.48   82.81
  -1   3  -2  939.87   70.06
  -1   3  -2 1054.50   86.37
  -1   3  -2 1105.49   58.33
  -1   3  -1  949.94   66.12
  -1   3  -1  937.31   81.46
  -1   3  -1  818.35   65.10
  -1   3  -1  909.97   60.27
  -1   3   0   92.04   25.97
  -1   3   0   39.51   18.28
  -1   3   0   51.63   19.82
  -1   3   1  317.03   31.25
  -1   3   1  341.77   45.76
  -1   3   1  314.86   43.40
  -1   3   2 1006.90   53.91
  -1   3   2 1215.64   82.74
  -1   3   2 1267.39   86.49
  -1   3   2 1207.17   83.56
  -1   3   3  703.35   67.69
  -1   3   3  636.15   69.64
  -1   3   3  615.99   63.62
  -1   3   4   15.28   25.14
  -1   3   4   19.73   21.07
  -1   3   4   50.84   27.42
  -1   3   5   75.19   30.78
  -1   3   5   81.07   31.84
  -1   3   5   61.32   35.27
  -1   3   6  200.45   54.53
  -1   3   6  135.51   39.71
  -1   3   7  -55.78   38.29
  -1   3   7   37.27   28.00
  -1   3   8   34.79   32.37
  -1   3   8   57.86   35.65
  -1   3   9   14.06   37.96
  -1   3   9   26.31   28.16
  -1   3  10   -1.99   32.93
  -1   3  10   93.64   38.59
  -1   3  11  -40.03   42.32
  -1   3  11   40.78   32.42
  -1   3  12  -20.23   38.19
  -1   3  12  -19.81   38.06
  -1   3  13  108.69   47.99
  -1   3  13    5.36   26.62
  -1   3  14  -38.21   37.69
  -1   3  14    3.22   29.27
  -1   4 -12   47.43   51.21
  -1   4 -11   28.03   51.76
  -1   4 -10    9.83   38.32
  -1   4  -9   33.51   42.66
  -1   4  -8   75.39   45.62
  -1   4  -7  152.08   61.19
  -1   4  -6   26.00   32.38
  -1   4  -5   74.31   33.51
  -1   4  -4   23.12   32.18
  -1   4  -3   -9.00   16.63
  -1   4  -3   -2.08   26.54
  -1   4  -3  -27.51   40.83
  -1   4  -2 1712.39   85.77
  -1   4  -2 1591.25  108.33
  -1   4  -2 1745.90  117.15
  -1   4  -2 1618.18  102.46
  -1   4  -1   18.89   19.31
  -1   4  -1   91.79   41.95
  -1   4  -1   43.00   21.19
  -1   4  -1   60.98   25.87
  -1   4   0    8.20   20.02
  -1   4   0   11.98   25.98
  -1   4   0   18.21   17.32
  -1   4   1   29.89   22.04
  -1   4   1   58.98   29.94
  -1   4   1   27.02   17.36
  -1   4   2  374.26   43.95
  -1   4   2  543.16   63.53
  -1   4   2  468.14   58.18
  -1   4   3 1698.70   90.23
  -1   4   3 2227.21  124.18
  -1   4   3 2127.33  122.22
  -1   4   3 1813.90  113.66
  -1   4   4  254.60   49.35
  -1   4   4  314.70   53.08
  -1   4   4  296.84   51.87
  -1   4   5   -3.80   28.87
  -1   4   5   16.03   25.94
  -1   4   6   64.43   33.17
  -1   4   6  140.03   43.32
  -1   4   7   80.17   41.11
  -1   4   7   46.34   29.71
  -1   4   8   26.50   39.51
  -1   4   8   25.02   29.56
  -1   4   9   95.66   37.20
  -1   4   9  -18.72   29.94
  -1   4  10  101.02   51.05
  -1   4  10   59.77   37.20
  -1   4  11   96.08   47.35
  -1   4  11   72.30   31.26
  -1   4  12  154.60   65.92
  -1   4  12   56.62   40.83
  -1   4  13   85.35   58.80
  -1   4  13    0.68   31.35
  -1   4  14   58.39   58.72
  -1   4  14  -14.57   33.08
  -1   5 -12  117.66   60.11
  -1   5 -11 -119.85   66.57
  -1   5 -10  -21.47   49.64
  -1   5  -9   83.44   48.06
  -1   5  -8  156.68   59.97
  -1   5  -7   46.66   44.58
  -1   5  -6   19.31   34.58
  -1   5  -5   28.41   31.80
  -1   5  -4  175.13   46.80
  -1   5  -3   24.55   27.83
  -1   5  -3    1.33   18.53
  -1   5  -2   -4.60   22.22
  -1   5  -2   -2.15   26.71
  -1   5  -2   10.50   20.39
  -1   5  -2   -3.43   21.51
  -1   5  -1    1.79   23.85
  -1   5  -1  -13.99   27.19
  -1   5  -1   28.31   25.13
  -1   5  -1   17.07   23.10
  -1   5   0  -17.20   26.97
  -1   5   0   10.53   21.69
  -1   5   0   -5.61   21.52
  -1   5   1    1.17   21.66
  -1   5   1    6.57   25.41
  -1   5   1   11.53   17.92
  -1   5   2   -2.85   22.39
  -1   5   2   17.71   25.55
  -1   5   2   -4.53   19.97
  -1   5   3   11.27   28.93
  -1   5   3   16.79   16.19
  -1   5   3   23.49   26.98
  -1   5   3   70.10   34.36
  -1   5   4   62.45   25.88
  -1   5   4   85.14   29.53
  -1   5   5   49.49   34.83
  -1   5   5   44.96   30.35
  -1   5   6  -14.83   36.27
  -1   5   6    2.51   24.40
  -1   5   7   24.27   30.28
  -1   5   7    0.30   33.93
  -1   5   8  -14.80   29.64
  -1   5   8   -9.16   29.67
  -1   5   9   71.44   45.73
  -1   5   9   97.81   43.74
  -1   5  10  -53.06   40.32
  -1   5  10  -49.90   35.23
  -1   5  11  -18.18   34.20
  -1   5  11  -13.88   31.92
  -1   5  12  -40.13   42.72
  -1   5  12   -5.89   29.49
  -1   5  13   38.41   48.77
  -1   5  13   -3.52   34.47
  -1   6 -11    5.44   44.32
  -1   6 -10  -19.69   41.74
  -1   6  -9    2.19   44.30
  -1   6  -8  -88.99   55.19
  -1   6  -7   76.89   47.81
  -1   6  -6   44.66   34.50
  -1   6  -5   49.30   38.66
  -1   6  -4  225.61   40.89
  -1   6  -4  325.02   68.98
  -1   6  -3   62.42   36.98
  -1   6  -3   12.09   24.55
  -1   6  -2  -31.66   29.14
  -1   6  -2    1.47   28.48
  -1   6  -2   20.68   28.48
  -1   6  -1  247.85   48.31
  -1   6  -1  281.10   60.63
  -1   6  -1  171.76   41.49
  -1   6  -1  169.69   38.74
  -1   6   0  -20.56   27.43
  -1   6   0  -31.98   31.34
  -1   6   0    8.59   23.20
  -1   6   1  -30.17   32.19
  -1   6   1   -8.23   21.88
  -1   6   1   -3.75   17.60
  -1   6   2   -0.25   24.96
  -1   6   2   -3.88   18.53
  -1   6   2   14.51   30.91
  -1   6   3  360.37   52.05
  -1   6   3  419.64   69.23
  -1   6   3  454.19   69.75
  -1   6   4  107.50   37.00
  -1   6   4   42.00   30.63
  -1   6   4  107.54   47.92
  -1   6   5   42.66   32.97
  -1   6   5   46.65   33.45
  -1   6   6  202.64   52.07
  -1   6   6  278.09   63.76
  -1   6   7    1.92   29.48
  -1   6   7   41.44   39.91
  -1   6   8    2.25   33.12
  -1   6   8   25.18   28.87
  -1   6   9    0.89   29.64
  -1   6   9  -14.19   35.50
  -1   6  10   39.43   38.24
  -1   6  10   40.68   41.58
  -1   6  11  102.12   47.04
  -1   6  11   -8.43   39.94
  -1   6  12  -25.85   44.21
  -1   6  12   21.04   46.54
  -1   6  13  -50.61   44.74
  -1   6  13  -41.37   40.22
  -1   7 -10   64.02   41.89
  -1   7  -9   -8.51   51.44
  -1   7  -8    3.79   35.37
  -1   7  -7  -39.04   36.53
  -1   7  -6  -23.51   34.85
  -1   7  -5   18.79   33.68
  -1   7  -4    7.31   32.19
  -1   7  -3   47.58   43.15
  -1   7  -3  -40.23   25.62
  -1   7  -2  110.91   48.97
  -1   7  -2   21.14   25.31
  -1   7  -1   -1.70   35.03
  -1   7  -1    9.77   40.70
  -1   7  -1  -14.76   22.53
  -1   7   0   81.28   38.94
  -1   7   0   47.41   34.65
  -1   7   1   -7.43   31.58
  -1   7   1    8.70   25.77
  -1   7   1   -6.52   26.68
  -1   7   2  107.77   42.62
  -1   7   2   74.14   35.22
  -1   7   2   18.14   26.10
  -1   7   3   61.30   38.28
  -1   7   3   20.82   23.37
  -1   7   3   48.18   36.84
  -1   7   4   19.12   27.14
  -1   7   4   39.05   30.43
  -1   7   4   42.04   39.20
  -1   7   5  -11.76   36.08
  -1   7   5   -9.39   33.21
  -1   7   6   59.56   38.86
  -1   7   6   47.27   43.02
  -1   7   7   47.95   30.27
  -1   7   7  -12.57   33.33
  -1   7   8   45.29   49.17
  -1   7   8   75.13   48.98
  -1   7   9   -3.87   46.04
  -1   7   9   66.55   45.17
  -1   7  10   43.17   34.64
  -1   7  10  -33.75   39.13
  -1   7  11   44.88   49.48
  -1   7  11  101.85   60.47
  -1   7  12   -2.93   45.55
  -1   7  12   98.89   42.49
  -1   7  13  -19.80   46.94
  -1   7  13    4.71   46.67
  -1   8  -9    9.79   44.66
  -1   8  -8  -16.78   38.78
  -1   8  -7   -3.18   36.19
  -1   8  -6   15.09   45.30
  -1   8  -5   16.02   39.33
  -1   8  -4   -2.18   32.35
  -1   8  -3   39.89   41.68
  -1   8  -3   15.49   23.69
  -1   8  -2   85.09   38.91
  -1   8  -2  120.54   40.29
  -1   8  -1  528.07   81.00
  -1   8  -1  730.15  103.52
  -1   8  -1  616.21   89.49
  -1   8   0  258.97   64.89
  -1   8   0  314.92   72.12
  -1   8   0  327.71   72.23
  -1   8   1   93.06   53.56
  -1   8   1   76.42   38.73
  -1   8   2   12.12   31.30
  -1   8   2   20.96   35.75
  -1   8   3   90.00   42.49
  -1   8   3  154.56   53.10
  -1   8   4    3.43   29.98
  -1   8   4   10.43   29.41
  -1   8   4   15.12   34.41
  -1   8   5  -31.14   32.35
  -1   8   5   46.35   32.55
  -1   8   5   -9.11   35.26
  -1   8   6    7.09   36.49
  -1   8   6    4.54   37.55
  -1   8   7  -38.38   41.24
  -1   8   7  -16.36   37.77
  -1   8   8  -41.77   44.53
  -1   8   8   72.35   50.17
  -1   8   9  -27.25   41.29
  -1   8   9   71.06   48.03
  -1   8  10   53.38   40.05
  -1   8  10  102.85   57.54
  -1   8  11   23.13   42.37
  -1   8  11  -44.76   58.50
  -1   8  12  -72.33   55.06
  -1   8  12   39.23   44.33
  -1   9  -7   -0.44   56.66
  -1   9  -6   13.26   47.05
  -1   9  -5  -29.52   52.95
  -1   9  -4  -11.37   42.99
  -1   9  -3   -8.64   40.36
  -1   9  -3   82.77   43.22
  -1   9  -2   31.30   49.92
  -1   9  -2   -6.63   34.69
  -1   9  -1   -5.43   28.88
  -1   9  -1  -25.91   41.70
  -1   9  -1  -27.43   30.03
  -1   9   0  215.10   58.01
  -1   9   0  318.22   78.56
  -1   9   0  156.35   55.92
  -1   9   1    2.38   35.96
  -1   9   1   22.97   36.67
  -1   9   2   11.54   34.43
  -1   9   2   13.30   30.36
  -1   9   3   67.53   41.82
  -1   9   3  -19.63   36.21
  -1   9   4   61.65   42.96
  -1   9   4  114.90   54.92
  -1   9   5   17.70   29.49
  -1   9   5  -45.74   32.71
  -1   9   6   44.26   32.59
  -1   9   6   40.66   31.20
  -1   9   7  -26.84   37.33
  -1   9   7  -24.99   34.62
  -1   9   8  -30.85   34.78
  -1   9   8   -4.91   37.96
  -1   9   9   26.30   50.57
  -1   9   9   60.00   50.90
  -1   9  10  -50.64   48.47
  -1   9  10    9.47   46.92
  -1   9  11  -37.58   44.13
  -1   9  11  -25.66   42.67
  -1  10  -6  -60.50   51.24
  -1  10  -5   -6.21   47.31
  -1  10  -4  118.30   62.30
  -1  10  -3    2.35   36.56
  -1  10  -3   84.47   50.09
  -1  10  -2   52.54   36.71
  -1  10  -2   12.92   38.31
  -1  10  -1  -36.95   46.10
  -1  10  -1  -15.26   31.72
  -1  10   0  340.41   79.86
  -1  10   0  363.54   85.54
  -1  10   0  238.69   57.07
  -1  10   1   39.94   46.86
  -1  10   1  -26.14   41.77
  -1  10   1   75.99   47.50
  -1  10   2  111.25   65.97
  -1  10   2  -29.59   47.10
  -1  10   3  110.70   54.08
  -1  10   3   93.41   48.20
  -1  10   4   36.05   31.87
  -1  10   4    3.78   34.01
  -1  10   5  -58.14   40.35
  -1  10   5   75.70   39.17
  -1  10   6    6.53   32.64
  -1  10   6  -43.27   39.82
  -1  10   7  -30.57   42.89
  -1  10   7    9.10   42.58
  -1  10   8  118.15   61.71
  -1  10   8   -9.34   45.98
  -1  10   9   94.72   60.42
  -1  10   9  -90.37   57.07
  -1  10  10  -20.68   37.68
  -1  10  10   85.29   63.12
  -1  11  -4  133.06   62.79
  -1  11  -3   22.09   41.35
  -1  11  -2   57.62   55.36
  -1  11  -2   53.80   44.86
  -1  11  -1   58.44   54.42
  -1  11  -1   44.95   37.16
  -1  11   0  126.10   64.43
  -1  11   0   58.59   49.76
  -1  11   0   83.76   59.52
  -1  11   1  -19.84   36.68
  -1  11   1  -31.97   38.55
  -1  11   2   17.20   37.07
  -1  11   2   24.85   54.73
  -1  11   2   20.86   33.88
  -1  11   3   27.04   39.84
  -1  11   3  -12.02   40.30
  -1  11   4   31.56   37.47
  -1  11   4   14.97   46.69
  -1  11   5   22.04   45.59
  -1  11   5  -55.71   58.08
  -1  11   6   35.83   34.30
  -1  11   6  -59.61   51.59
  -1  11   7    7.56   49.77
  -1  11   7   63.00   52.93
  -1  11   8  -24.36   52.87
  -1  11   8   23.93   46.97
  -1  12  -1   99.34   61.95
  -1  12  -1   13.64   39.06
  -1  12   0   62.76   52.56
  -1  12   0  -21.92   51.01
  -1  12   1   46.08   42.11
  -1  12   1  -38.02   44.61
  -1  12   1  -10.23   41.99
  -1  12   2    1.53   40.42
  -1  12   2   54.81   54.01
  -1  12   2  -31.95   36.23
  -1  12   3  -45.24   49.72
  -1  12   3  102.17   70.91
  -1  12   3  -42.80   51.67
  -1  12   4    2.64   38.96
  -1  12   4  -39.83   36.42
  -1  12   5   -3.46   42.69
  -1  12   5   27.86   36.23
  -1  12   6   10.49   45.29
  -1  12   6   57.42   50.46
   0 -12  -7   -8.81   28.17
   0 -12  -6  347.56   76.84
   0 -12  -5   62.67   43.37
   0 -12  -4  289.85   65.05
   0 -12  -3  165.73   59.06
   0 -12  -2  269.78   70.76
   0 -12  -1  137.14   59.57
   0 -12   0  195.57   71.84
   0 -12   1  132.64   61.83
   0 -11  -9  104.49   35.83
   0 -11  -8  200.13   56.57
   0 -11  -7  199.90   60.25
   0 -11  -6  213.79   60.78
   0 -11  -5  188.98   53.57
   0 -11  -4  256.02   62.28
   0 -11  -3  162.58   52.28
   0 -11  -2  298.33   67.50
   0 -11  -1  249.88   63.64
   0 -11   0   64.59   39.68
   0 -11   1  293.88   73.68
   0 -11   2  131.73   57.83
   0 -11   3  150.53   58.43
   0 -11   4   50.49   41.98
   0 -10 -10   90.31   47.24
   0 -10  -9   87.02   43.99
   0 -10  -8  364.91   74.62
   0 -10  -7  266.12   62.47
   0 -10  -6  459.25   78.25
   0 -10  -5  469.18   77.25
   0 -10  -4   38.87   34.16
   0 -10  -3 1018.12  110.89
   0 -10  -2   24.66   28.57
   0 -10  -1  441.28   77.82
   0 -10   0  408.88   80.92
   0 -10   1  183.92   54.47
   0 -10   2  368.42   84.04
   0 -10   3  298.29   74.33
   0 -10   4   85.31   43.27
   0 -10   5  137.85   60.46
   0 -10   6   62.81   50.44
   0  -9 -12   83.88   42.88
   0  -9 -11  187.50   62.17
   0  -9 -10  200.97   54.46
   0  -9  -9  150.99   52.09
   0  -9  -8  243.94   63.69
   0  -9  -7  425.29   73.84
   0  -9  -6  469.77   75.23
   0  -9  -5  672.37   91.78
   0  -9  -4  501.15   76.60
   0  -9  -3  497.97   75.16
   0  -9  -2  174.79   51.10
   0  -9  -1  292.62   59.60
   0  -9   0  452.61   78.27
   0  -9   1  319.42   66.41
   0  -9   2  367.05   78.17
   0  -9   3  380.03   84.59
   0  -9   4  100.54   50.50
   0  -9   5  105.38   58.70
   0  -9   6  174.31   69.18
   0  -9   7  161.27   72.32
   0  -8 -12  133.52   57.31
   0  -8 -11  247.22   66.11
   0  -8 -10  373.55   75.88
   0  -8  -9  421.08   76.88
   0  -8  -8  370.60   69.22
   0  -8  -7  636.13   89.78
   0  -8  -6   80.76   37.29
   0  -8  -5 1313.24  116.76
   0  -8  -4  750.03   87.16
   0  -8  -3  239.16   52.38
   0  -8  -2 2560.30  161.02
   0  -8  -1  302.57   57.88
   0  -8   0  618.01   84.65
   0  -8   1  847.91  102.59
   0  -8   2  526.89   87.87
   0  -8   3  138.55   50.32
   0  -8   4  352.46   77.42
   0  -8   5  153.22   62.47
   0  -8   6  307.97   81.96
   0  -8   7  407.56  103.87
   0  -8   8   80.04   49.62
   0  -7 -13  143.45   79.10
   0  -7 -13  140.58   58.46
   0  -7 -12  173.97   62.16
   0  -7 -12  174.06   64.14
   0  -7 -11  232.25   62.81
   0  -7 -11  281.53   68.66
   0  -7 -10  418.42   75.88
   0  -7 -10  365.93   80.39
   0  -7  -9  495.22   83.58
   0  -7  -8  614.48   90.41
   0  -7  -7  542.64   79.96
   0  -7  -6  318.55   56.46
   0  -7  -5  297.47   59.21
   0  -7  -4  485.19   67.41
   0  -7  -3  983.00   92.30
   0  -7  -2 1793.94  122.62
   0  -7  -1 1604.88  117.31
   0  -7   0 1273.39  111.08
   0  -7   1  532.43   78.87
   0  -7   2  203.07   55.99
   0  -7   3  271.51   66.92
   0  -7   4  264.01   72.39
   0  -7   5  352.21   80.82
   0  -7   6  484.70   95.37
   0  -7   7  345.55   88.16
   0  -7   8  186.27   74.94
   0  -6 -13  145.87   75.22
   0  -6 -13   37.33   29.46
   0  -6 -12  339.58   83.63
   0  -6 -12  319.49   89.59
   0  -6 -11  439.54   89.27
   0  -6 -11  303.17   84.39
   0  -6 -10  557.29   92.19
   0  -6 -10  541.62   98.98
   0  -6  -9  457.94   82.32
   0  -6  -9  560.01   89.72
   0  -6  -8  854.82  101.17
   0  -6  -8  916.43  111.84
   0  -6  -7  295.45   59.69
   0  -6  -6  818.04   89.07
   0  -6  -5  126.74   36.80
   0  -6  -4  839.83   81.81
   0  -6  -3 1658.70  109.72
   0  -6  -2 3812.57  166.61
   0  -6  -1 2859.31  144.22
   0  -6   0 2497.43  145.38
   0  -6   1 1603.98  120.66
   0  -6   1 1504.10  107.07
   0  -6   2  102.66   29.88
   0  -6   2  158.17   47.21
   0  -6   3  128.88   31.27
   0  -6   3  194.03   53.91
   0  -6   4  820.48  107.23
   0  -6   4  599.76   64.08
   0  -6   5  609.96   93.99
   0  -6   5  474.33   57.49
   0  -6   6  684.65  108.99
   0  -6   6  486.48   54.23
   0  -6   7  666.62  114.88
   0  -6   8  511.34  100.91
   0  -6  11   55.45   43.92
   0  -5 -14   47.94   45.79
   0  -5 -14  107.15   53.43
   0  -5 -13  262.28   77.18
   0  -5 -13  177.35   71.27
   0  -5 -12  161.64   60.62
   0  -5 -12  360.69   93.13
   0  -5 -11  266.88   78.80
   0  -5 -11  347.53   85.66
   0  -5 -10  415.88   85.86
   0  -5 -10  484.17   93.27
   0  -5  -9  340.47   77.04
   0  -5  -9  485.80   81.14
   0  -5  -8  376.77   72.21
   0  -5  -8  375.86   72.38
   0  -5  -7  677.01   85.36
   0  -5  -7  679.01   86.76
   0  -5  -6  810.66   88.64
   0  -5  -6  896.72   95.02
   0  -5  -5 1028.29   89.71
   0  -5  -4 1476.22   98.99
   0  -5  -3 1236.37  104.61
   0  -5  -3 1383.02   93.01
   0  -5  -3 1199.40   94.76
   0  -5  -2 1611.26  100.94
   0  -5  -2 1488.26  109.07
   0  -5  -2 1466.42  101.61
   0  -5  -1 1617.22  101.99
   0  -5  -1 1417.17  105.81
   0  -5  -1 1516.52   99.00
   0  -5   0 1749.76  111.03
   0  -5   0 1738.76  113.05
   0  -5   0 1838.22  107.13
   0  -5   1 1648.63  111.86
   0  -5   1 1448.53  106.28
   0  -5   1 1558.41   96.12
   0  -5   2  755.79   77.22
   0  -5   2  880.24   91.15
   0  -5   2  842.05   70.45
   0  -5   3  632.81   80.93
   0  -5   3  557.38   56.23
   0  -5   4  902.22  103.63
   0  -5   4  704.57   62.51
   0  -5   5  305.69   42.27
   0  -5   5  367.03   71.90
   0  -5   6  486.81   84.24
   0  -5   6  425.06   48.78
   0  -5   7  552.98   97.79
   0  -5   7  366.81   43.03
   0  -5   8  250.34   72.03
   0  -5   8  338.43   48.38
   0  -5   9  284.81   39.37
   0  -5  10  395.75   94.42
   0  -5  11  218.71   82.55
   0  -4 -14   35.05   55.18
   0  -4 -13  382.41   93.44
   0  -4 -12  480.79  106.03
   0  -4 -11  419.76   94.24
   0  -4 -10  460.84   81.39
   0  -4  -9  374.06   78.68
   0  -4  -8  212.53   59.28
   0  -4  -7 1312.85  119.86
   0  -4  -7 1382.50  123.15
   0  -4  -6  851.96   89.92
   0  -4  -6  972.70   95.81
   0  -4  -5 1891.05  114.64
   0  -4  -5 1864.11  119.41
   0  -4  -5 1769.99  127.05
   0  -4  -5 1660.96  112.39
   0  -4  -4 6930.84  197.10
   0  -4  -4 6973.99  206.17
   0  -4  -4 6933.24  229.52
   0  -4  -4 6793.15  218.20
   0  -4  -3 1652.41   91.20
   0  -4  -3 1534.34  101.84
   0  -4  -3 1599.66   99.98
   0  -4  -2 1034.19   70.82
   0  -4  -2  968.73   77.05
   0  -4  -2  956.18   74.66
   0  -4  -1 5427.24  165.38
   0  -4  -1 5183.89  174.57
   0  -4  -1 4896.05  164.42
   0  -4   0  448.38   50.11
   0  -4   0  461.17   50.43
   0  -4   0  420.83   48.13
   0  -4   1 1442.71   98.17
   0  -4   1 1401.36   90.65
   0  -4   1 1312.73   80.14
   0  -4   2 3631.13  122.98
   0  -4   2 3584.09  149.46
   0  -4   2 3851.74  170.37
   0  -4   2 3794.74  161.87
   0  -4   3 3953.25  126.35
   0  -4   3 3995.11  185.88
   0  -4   3 3690.40  164.77
   0  -4   3 3898.12  166.69
   0  -4   4  863.05   58.88
   0  -4   4  974.73  102.63
   0  -4   4  842.66   80.80
   0  -4   5 1678.37   83.39
   0  -4   5 1728.61  140.27
   0  -4   6  209.49   32.22
   0  -4   6  225.83   62.89
   0  -4   7  265.79   34.96
   0  -4   7  373.82   82.37
   0  -4   7  290.51   44.14
   0  -4   8  357.96   38.90
   0  -4   8  442.22   49.48
   0  -4   9  553.62  106.48
   0  -4   9  459.09   44.59
   0  -4  10  442.79  104.46
   0  -4  11  690.63  127.07
   0  -4  12   22.45   43.68
   0  -3 -14  258.09   81.71
   0  -3 -13  134.96   63.23
   0  -3 -12  446.83  103.64
   0  -3 -11  384.72   78.30
   0  -3 -10  381.40   72.97
   0  -3  -9  439.59   83.45
   0  -3  -8  285.75   62.69
   0  -3  -7  285.42   51.57
   0  -3  -7  357.03   61.36
   0  -3  -6 1527.27  116.79
   0  -3  -6 1383.75  117.85
   0  -3  -6 1349.57   97.96
   0  -3  -5 2836.75  141.19
   0  -3  -5 2763.98  151.20
   0  -3  -5 2747.98  133.00
   0  -3  -4 3783.27  146.80
   0  -3  -4 3971.97  153.90
   0  -3  -4 3611.18  159.05
   0  -3  -4 3701.47  147.94
   0  -3  -3 3068.77  117.56
   0  -3  -3 3157.30  122.50
   0  -3  -3 3155.44  134.36
   0  -3  -3 3211.63  132.01
   0  -3  -2 1053.95   65.00
   0  -3  -2 1073.17   73.20
   0  -3  -2 1092.53   71.97
   0  -3  -1  239.67   35.22
   0  -3  -1  291.47   35.89
   0  -3  -1  270.51   38.08
   0  -3   0  284.71   38.87
   0  -3   0  245.46   37.00
   0  -3   0  245.28   33.27
   0  -3   1 1275.82   66.60
   0  -3   1 1236.75   82.73
   0  -3   1 1294.53   76.02
   0  -3   2 2899.68   95.85
   0  -3   2 3058.19  136.90
   0  -3   2 2677.58  120.80
   0  -3   2 2585.43  120.82
   0  -3   3 4158.57  115.13
   0  -3   3 4090.33  176.92
   0  -3   3 3918.81  160.11
   0  -3   4 2317.87   86.50
   0  -3   4 1985.87  134.16
   0  -3   4 2269.68  132.05
   0  -3   5 1033.65   61.76
   0  -3   5 1093.01  111.76
   0  -3   6  286.29   35.55
   0  -3   6  299.36   63.47
   0  -3   6  305.18   41.92
   0  -3   7  283.98   36.62
   0  -3   7  410.63   47.80
   0  -3   8  258.14   32.71
   0  -3   8  308.50   37.58
   0  -3   8  266.71   68.10
   0  -3   9  232.74   34.11
   0  -3   9  407.90   86.68
   0  -3   9  364.23   39.29
   0  -3  10  581.26  106.39
   0  -3  10  390.90   38.54
   0  -3  11  519.72  101.52
   0  -3  12  237.00   76.17
   0  -3  13  185.45   72.34
   0  -2 -14   50.09   44.79
   0  -2 -13  299.42   93.67
   0  -2 -12  369.63   92.91
   0  -2 -11  328.74   75.94
   0  -2 -10  788.52  105.34
   0  -2  -9 1089.78  120.82
   0  -2  -9  841.15   87.74
   0  -2  -8  806.52   95.38
   0  -2  -8  696.12   77.40
   0  -2  -7  767.25   88.83
   0  -2  -7  764.60   94.75
   0  -2  -7  761.55   75.17
   0  -2  -6 1248.59  103.49
   0  -2  -6 1168.58  105.89
   0  -2  -6 1176.90   84.89
   0  -2  -5 1798.17  110.72
   0  -2  -5 1800.35  117.49
   0  -2  -5 1685.34   95.67
   0  -2  -4 1416.77   90.33
   0  -2  -4 1222.10   91.12
   0  -2  -4 1243.32   75.76
   0  -2  -3 9118.45  190.10
   0  -2  -3 8622.02  205.23
   0  -2  -3 8828.13  186.08
   0  -2  -2 2061.29   79.47
   0  -2  -2 2150.41   81.54
   0  -2  -2 2211.36   86.01
   0  -2  -1 9459.10  153.74
   0  -2  -1 9714.58  170.07
   0  -2  -1 9999.00  163.92
   0  -2   0  441.75   39.34
   0  -2   0  405.70   36.16
   0  -2   0  444.04   35.24
   0  -2   1 8406.34  132.63
   0  -2   1 8365.80  172.94
   0  -2   1 8163.35  164.41
   0  -2   1 8320.99  163.79
   0  -2   2 9320.58  140.69
   0  -2   2 9090.38  193.25
   0  -2   2 9273.76  209.50
   0  -2   3  854.89   43.87
   0  -2   3  807.62   73.36
   0  -2   3  824.86   66.15
   0  -2   4 4097.00  174.72
   0  -2   4 3823.53  156.64
   0  -2   5  849.13   90.51
   0  -2   5  749.74   53.69
   0  -2   5  818.88   82.07
   0  -2   6  884.75   59.49
   0  -2   7  547.28   46.61
   0  -2   7  588.97   86.33
   0  -2   8 1078.78  123.05
   0  -2   8  914.11   61.64
   0  -2   9  726.89  103.48
   0  -2   9  625.52   51.77
   0  -2  10  785.22  117.39
   0  -2  10  742.77   57.04
   0  -2  11  241.34   32.65
   0  -2  11  399.23   85.07
   0  -2  12  434.81   93.12
   0  -2  13  221.06   74.17
   0  -1 -14  216.41   76.04
   0  -1 -13  184.69   74.68
   0  -1 -12  166.05   57.37
   0  -1 -11  434.42   88.93
   0  -1 -10  354.26   84.30
   0  -1 -10  278.74   54.08
   0  -1  -9  736.10   98.93
   0  -1  -9  613.71   74.79
   0  -1  -8 1146.58  109.00
   0  -1  -8 1198.32   95.86
   0  -1  -7 1086.21  102.64
   0  -1  -7 1070.09  102.21
   0  -1  -7 1010.81  114.66
   0  -1  -7 1083.09   85.19
   0  -1  -6 1128.21   96.82
   0  -1  -6 1157.02  107.11
   0  -1  -6 1044.42   78.89
   0  -1  -5  810.49   73.82
   0  -1  -5  809.12   84.15
   0  -1  -5  698.44   56.85
   0  -1  -4  345.27   52.26
   0  -1  -4  335.91   46.43
   0  -1  -4  321.68   38.33
   0  -1  -3 1140.99   69.12
   0  -1  -3 1026.88   69.89
   0  -1  -3  994.77   53.37
   0  -1  -2 2773.14   90.71
   0  -1  -2 2983.22   88.33
   0  -1  -2 2712.97   78.44
   0  -1  -1 4016.06   76.95
   0  -1  -1 4104.12   78.68
   0  -1  -1 3982.55   84.25
   0  -1  -1 4257.39   81.73
   0  -1   0 4448.15   78.30
   0  -1   0 4349.91   77.61
   0  -1   0 4509.59   70.59
   0  -1   1 3570.58   63.08
   0  -1   1 3445.31   90.52
   0  -1   1 3455.64   84.72
   0  -1   2 1945.52   89.17
   0  -1   2 1984.10   84.22
   0  -1   3  497.48   53.51
   0  -1   3  528.34   37.46
   0  -1   3  515.96   50.87
   0  -1   4  892.29   77.59
   0  -1   4  984.35   50.65
   0  -1   5 1138.40   93.39
   0  -1   5 1170.63  101.30
   0  -1   5 1183.97   61.16
   0  -1   6  970.92  103.02
   0  -1   6  991.66   58.87
   0  -1   7 1147.63  114.34
   0  -1   7 1088.08   65.44
   0  -1   8 1044.71   67.44
   0  -1   8 1032.52  112.84
   0  -1   9  720.78  101.07
   0  -1   9  619.18   54.83
   0  -1  10  562.25   97.61
   0  -1  10  549.03   54.30
   0  -1  11  343.43   82.25
   0  -1  11  275.54   38.92
   0  -1  12  227.15   70.26
   0  -1  13  225.40   69.56
   0   0 -14  143.34   75.71
   0   0 -13  149.19   70.23
   0   0 -12  301.27   84.09
   0   0 -11  596.17  106.01
   0   0 -10  387.74   75.91
   0   0  -9 1121.65  120.56
   0   0  -8 1653.61  133.35
   0   0  -7 1486.43  120.44
   0   0  -7 1514.00   93.74
   0   0  -6 2072.43  130.59
   0   0  -6 2159.24  134.38
   0   0  -6 2117.93  102.28
   0   0  -5  527.92   64.87
   0   0  -5  507.96   61.53
   0   0  -5  427.98   44.01
   0   0  -4  279.49   43.57
   0   0  -4  220.52   38.18
   0   0  -4  221.18   28.53
   0   0  -3 1630.27   79.28
   0   0  -3 1715.47   85.45
   0   0  -3 1523.28   61.59
   0   0  -2 4465.94  105.81
   0   0  -2 4421.21  108.83
   0   0  -2 4381.29  119.15
   0   0  -1 3156.24   61.34
   0   0   1 3015.72   60.63
   0   0   2 4291.51  102.70
   0   0   2 4402.05  112.84
   0   0   2 4180.03   76.38
   0   0   3 1480.88   76.08
   0   0   3 1558.79   56.30
   0   0   3 1676.26   84.54
   0   0   4  297.43   28.66
   0   0   4  223.81   36.84
   0   0   4  250.40   43.09
   0   0   5  376.63   51.09
   0   0   5  473.55   59.61
   0   0   5  499.20   40.36
   0   0   6 2341.66  142.00
   0   0   6 2235.43   90.59
   0   0   7 1621.66   82.55
   0   0   7 1783.23  130.39
   0   0   8 1862.22  142.75
   0   0   8 1885.65   95.61
   0   0   9 1385.87  133.37
   0   0   9 1375.13   85.77
   0   0  10  443.27   82.38
   0   0  10  431.63   50.08
   0   0  11  800.93  117.31
   0   0  11  602.59   60.42
   0   0  12  222.22   39.18
   0   0  12  355.07   80.78
   0   0  13  156.98   64.90
   0   0  14  242.63   73.63
   0   1 -13  209.12   79.84
   0   1 -12  139.54   67.64
   0   1 -11  228.05   70.64
   0   1 -10  420.78   80.18
   0   1  -9  560.51   92.61
   0   1  -8  920.79  103.01
   0   1  -7  965.06   98.28
   0   1  -6  977.98   91.76
   0   1  -5 1112.81   89.08
   0   1  -5 1310.76  101.82
   0   1  -4  831.72   72.36
   0   1  -4  965.24   79.19
   0   1  -3  469.41   49.65
   0   1  -3  524.94   53.34
   0   1  -2 2058.80   82.69
   0   1  -2 1988.33   87.41
   0   1  -1 3479.07   92.32
   0   1  -1 3516.23   83.12
   0   1   0 4519.71   72.83
   0   1   0 4294.59   79.40
   0   1   0 4358.56   79.10
   0   1   1 4102.08   77.90
   0   1   1 3993.20   79.81
   0   1   1 4018.93   85.20
   0   1   1 4220.80   81.30
   0   1   2 2868.58   87.25
   0   1   2 2654.46   86.83
   0   1   2 2738.30   78.32
   0   1   3 1053.93   65.32
   0   1   3  939.73   65.41
   0   1   3 1117.53   56.75
   0   1   4  346.25   46.40
   0   1   4  397.50   52.10
   0   1   4  376.56   38.27
   0   1   5  723.98   71.62
   0   1   5  895.64   78.53
   0   1   5  843.95   60.14
   0   1   6 1057.66   91.23
   0   1   6 1155.36   97.40
   0   1   6 1190.49   77.08
   0   1   7 1152.08  104.30
   0   1   7 1190.00   79.91
   0   1   8 1302.55  119.26
   0   1   8 1435.96   91.30
   0   1   9  736.53   94.39
   0   1   9  750.00   66.21
   0   1  10  462.54   81.42
   0   1  10  433.09   56.20
   0   1  11  497.62   90.68
   0   1  11  439.74   59.19
   0   1  12  208.16   42.60
   0   1  12  289.39   68.10
   0   1  13  171.22   58.41
   0   1  14  294.54   78.71
   0   2 -13  261.14   88.14
   0   2 -12  498.88  106.04
   0   2 -11  181.65   60.89
   0   2 -10  749.07  112.51
   0   2  -9  555.44   91.32
   0   2  -8  815.49  102.85
   0   2  -7  617.02   81.20
   0   2  -6  743.56   82.87
   0   2  -5  728.46   74.82
   0   2  -5  818.27   85.76
   0   2  -4 3929.46  155.92
   0   2  -4 4020.03  171.63
   0   2  -3  835.84   66.96
   0   2  -3  708.58   65.87
   0   2  -2 9403.42  209.16
   0   2  -2 9046.83  192.16
   0   2  -1 8231.91  139.54
   0   2  -1 8620.20  173.92
   0   2  -1 8333.27  164.04
   0   2   0  423.39   36.85
   0   2   0  445.87   39.49
   0   2   0  375.30   35.94
   0   2   1 9586.15  159.63
   0   2   1 9837.00  168.42
   0   2   1 9880.32  163.92
   0   2   2 2231.29   85.07
   0   2   2 2152.91   78.99
   0   2   2 2274.46   88.99
   0   2   2 2093.49   86.30
   0   2   3 8981.54  184.99
   0   2   3 8682.62  195.81
   0   2   3 8595.40  176.64
   0   2   4 1316.60   82.90
   0   2   4 1402.20   88.03
   0   2   4 1287.46   74.41
   0   2   5 1633.99  101.36
   0   2   5 1761.66  111.26
   0   2   5 1659.66   91.44
   0   2   6 1229.97   98.06
   0   2   6 1030.66   89.31
   0   2   6 1183.89   79.08
   0   2   7  839.34   87.28
   0   2   7  791.06   68.08
   0   2   8  918.91   97.17
   0   2   8  810.58   72.74
   0   2   9 1107.03  114.10
   0   2   9  997.34   84.42
   0   2  10  829.31  105.52
   0   2  10  770.58   78.98
   0   2  11  352.14   74.13
   0   2  11  315.30   52.40
   0   2  12  418.93   88.03
   0   2  12  324.35   54.40
   0   2  13  495.46   99.79
   0   2  13  302.00   53.50
   0   2  14  249.10   72.98
   0   3 -13  114.03   56.73
   0   3 -12  102.34   51.56
   0   3 -11  441.65   98.47
   0   3 -10  508.72   93.92
   0   3  -9  343.76   73.55
   0   3  -8  280.36   62.36
   0   3  -7  362.46   69.93
   0   3  -6  276.47   53.80
   0   3  -5 1043.89   94.96
   0   3  -4 2450.29  132.42
   0   3  -4 2150.05  137.67
   0   3  -3 4161.99  174.39
   0   3  -3 4124.47  161.26
   0   3  -2 2831.16  134.05
   0   3  -2 2943.28  122.58
   0   3  -1 1263.98   70.68
   0   3  -1 1381.88   88.63
   0   3  -1 1323.07   78.20
   0   3  -1 1152.64   79.32
   0   3   0  242.28   35.33
   0   3   0  229.58   34.52
   0   3   0  230.26   36.65
   0   3   1  263.89   38.06
   0   3   1  246.75   35.36
   0   3   1  279.37   39.82
   0   3   2 1006.72   67.58
   0   3   2 1083.01   67.14
   0   3   2 1062.70   75.71
   0   3   2  920.28   67.05
   0   3   3 3057.26  115.66
   0   3   3 3120.59  128.22
   0   3   3 3108.93  125.44
   0   3   4 3567.94  140.71
   0   3   4 3603.63  147.27
   0   3   4 3573.64  137.74
   0   3   5 2753.17  134.24
   0   3   5 2708.09  140.78
   0   3   5 2699.74  126.14
   0   3   6 1327.93  102.29
   0   3   6 1478.07  115.08
   0   3   6 1367.83   94.40
   0   3   7  393.77   63.80
   0   3   7  369.42   51.69
   0   3   8  244.11   53.64
   0   3   8  254.20   45.34
   0   3   9  489.68   78.87
   0   3   9  516.39   67.64
   0   3  10  399.59   72.89
   0   3  10  295.50   55.07
   0   3  11  446.31   83.33
   0   3  11  455.02   68.24
   0   3  12  446.57   81.08
   0   3  12  363.23   65.42
   0   3  13  258.95   67.36
   0   3  13  247.82   54.34
   0   3  14  198.77   67.72
   0   3  14  116.03   37.73
   0   4 -12   20.46   43.33
   0   4 -11  658.11  114.32
   0   4 -10  339.81   77.47
   0   4  -9  538.64   96.94
   0   4  -8  445.15   85.51
   0   4  -7  252.80   56.90
   0   4  -6  291.47   58.92
   0   4  -5 1860.90  133.72
   0   4  -4  898.22   85.25
   0   4  -3 3904.39  180.77
   0   4  -3 4201.45  172.49
   0   4  -2 3471.04  131.95
   0   4  -2 3711.16  168.31
   0   4  -2 3787.13  155.60
   0   4  -1 1321.58   84.73
   0   4  -1 1444.82  100.54
   0   4  -1 1380.19   88.33
   0   4  -1 1355.94   92.42
   0   4   0  428.50   49.03
   0   4   0  543.96   60.15
   0   4   0  517.33   59.16
   0   4   1 4948.89  161.66
   0   4   1 5542.97  174.70
   0   4   1 5410.52  176.90
   0   4   2  938.83   71.51
   0   4   2  921.00   75.90
   0   4   2  918.56   72.96
   0   4   3 1531.79   96.02
   0   4   3 1689.33   99.45
   0   4   3 1724.77  108.20
   0   4   3 1652.55  101.42
   0   4   4 7032.38  199.57
   0   4   4 7005.37  216.87
   0   4   4 6602.13  207.98
   0   4   5 1688.52  106.46
   0   4   5 1761.51  121.01
   0   4   5 1766.42  116.87
   0   4   6 1010.04   97.13
   0   4   6  884.61   84.81
   0   4   7 1419.28  118.76
   0   4   7 1253.37  101.81
   0   4   8  197.21   44.86
   0   4   8  261.33   60.54
   0   4   9  254.85   50.38
   0   4   9  422.63   77.07
   0   4  10  366.58   74.85
   0   4  10  398.97   68.30
   0   4  11  539.51   94.12
   0   4  11  446.86   73.00
   0   4  12  445.41   86.98
   0   4  12  359.66   67.26
   0   4  13  263.16   58.59
   0   4  13  457.92   96.04
   0   4  14  117.55   60.34
   0   4  14   30.00   29.38
   0   5 -11  109.33   71.59
   0   5 -10  262.42   73.07
   0   5  -9  369.14   85.78
   0   5  -8  389.36   85.09
   0   5  -7  519.91   84.49
   0   5  -6  479.03   78.09
   0   5  -5  379.59   67.64
   0   5  -4  929.32   96.86
   0   5  -3  660.38   77.50
   0   5  -2  881.91   78.32
   0   5  -2  944.47   87.84
   0   5  -1 1547.56  102.71
   0   5  -1 1726.50  123.74
   0   5  -1 1715.05  113.19
   0   5  -1 1657.28  113.62
   0   5   0 1709.54  109.22
   0   5   0 1662.84  114.66
   0   5   0 1762.81  118.86
   0   5   0 1829.07  118.78
   0   5   1 1380.89   97.94
   0   5   1 1471.44  107.42
   0   5   1 1561.25  110.36
   0   5   2 1497.17  100.36
   0   5   2 1433.92  100.78
   0   5   2 1682.14  111.72
   0   5   3 1315.97  103.25
   0   5   3 1285.84   95.06
   0   5   3 1381.06   95.13
   0   5   3 1209.51   96.06
   0   5   4 1209.19   98.65
   0   5   4 1429.00   98.06
   0   5   4 1416.56  113.48
   0   5   4 1285.81  102.59
   0   5   5  899.81   82.94
   0   5   5  960.72   95.29
   0   5   5  880.94   87.48
   0   5   6  872.23   95.11
   0   5   6  665.97   81.70
   0   5   7  546.93   78.09
   0   5   7  574.07   77.56
   0   5   8  335.26   67.13
   0   5   8  392.31   67.65
   0   5   9  436.10   78.58
   0   5   9  381.30   70.16
   0   5  10  341.58   63.76
   0   5  10  380.41   73.77
   0   5  11  282.00   64.50
   0   5  11  355.51   77.05
   0   5  12  323.72   73.34
   0   5  12  205.23   57.61
   0   5  13  241.46   73.65
   0   5  13  210.09   58.54
   0   5  14  215.37   72.75
   0   5  14  108.34   47.27
   0   6 -11  255.70   78.95
   0   6 -10  300.71   79.20
   0   6  -9  130.15   58.82
   0   6  -8  344.72   77.21
   0   6  -7  629.60  104.58
   0   6  -6  673.77   94.78
   0   6  -5  676.87   95.00
   0   6  -4  936.36  101.22
   0   6  -3  224.12   52.46
   0   6  -2  157.80   37.26
   0   6  -2  250.76   55.95
   0   6  -1 1543.37  110.39
   0   6  -1 1821.94  122.08
   0   6  -1 1749.05  126.11
   0   6   0 2456.34  142.80
   0   6   0 2474.87  154.10
   0   6   0 2940.13  162.18
   0   6   0 2831.18  160.17
   0   6   1 2750.28  149.20
   0   6   1 3014.39  166.03
   0   6   1 3044.30  163.12
   0   6   2 3302.92  167.65
   0   6   2 3622.88  177.50
   0   6   2 3696.58  180.67
   0   6   3 1388.63  109.06
   0   6   3 1566.30  113.77
   0   6   3 1600.25  110.24
   0   6   3 1356.96  114.76
   0   6   4  606.51   77.39
   0   6   4  761.64   85.17
   0   6   4  650.18   78.59
   0   6   4  818.47   81.97
   0   6   5  172.77   47.88
   0   6   5  118.86   35.50
   0   6   6  801.71   96.41
   0   6   6  539.92   77.95
   0   6   7  243.86   54.40
   0   6   7  289.17   58.90
   0   6   8  827.98  104.00
   0   6   8  744.67   95.95
   0   6   9  414.77   74.26
   0   6   9  379.67   69.31
   0   6  10  443.08   84.46
   0   6  10  447.67   81.82
   0   6  11  329.07   72.78
   0   6  11  272.86   68.23
   0   6  12  317.01   74.79
   0   6  12  198.96   56.31
   0   6  13  228.58   74.36
   0   6  13   51.12   44.26
   0   7 -10  133.31   69.02
   0   7  -9  271.51   84.76
   0   7  -8  178.71   68.44
   0   7  -7  359.22   78.88
   0   7  -6  632.95   96.91
   0   7  -5  331.30   71.36
   0   7  -4  279.66   62.32
   0   7  -3  267.43   56.86
   0   7  -2  215.94   54.79
   0   7  -2  206.37   47.74
   0   7  -1  517.94   76.25
   0   7  -1  591.65   80.20
   0   7   0 1067.82  104.85
   0   7   0 1442.84  123.64
   0   7   0 1383.67  125.62
   0   7   1 1433.44  123.03
   0   7   1 1681.69  135.04
   0   7   2 1555.73  120.10
   0   7   2 1893.52  145.17
   0   7   3  829.84   92.44
   0   7   3 1016.32  106.39
   0   7   4  369.71   71.40
   0   7   4  305.70   60.30
   0   7   4  422.15   72.21
   0   7   5  205.13   56.89
   0   7   5  285.95   63.45
   0   7   6  281.23   62.59
   0   7   6  242.48   54.58
   0   7   7  463.15   82.05
   0   7   7  409.41   73.84
   0   7   8  425.65   87.11
   0   7   8  359.47   75.06
   0   7   9  428.30   88.07
   0   7   9  357.43   73.36
   0   7  10  352.11   79.39
   0   7  10  335.67   75.19
   0   7  11  268.87   76.69
   0   7  11  175.21   55.65
   0   7  12  119.00   56.84
   0   7  12   59.97   37.03
   0   7  13  166.81   61.83
   0   7  13   70.25   43.33
   0   8  -9  196.15   75.36
   0   8  -8  125.30   54.33
   0   8  -7  443.22   94.96
   0   8  -6  399.08   81.72
   0   8  -5  329.02   76.62
   0   8  -4  309.08   69.69
   0   8  -3  235.51   56.75
   0   8  -2  472.81   76.36
   0   8  -2  695.97   94.41
   0   8  -1  785.10  101.28
   0   8  -1 1068.24  114.07
   0   8   0  592.31   88.55
   0   8   0  816.49   96.80
   0   8   0  600.80   90.70
   0   8   1  295.09   67.42
   0   8   1  379.70   67.80
   0   8   1  387.77   76.48
   0   8   2 2280.66  161.59
   0   8   2 2485.88  177.47
   0   8   3  161.97   45.59
   0   8   3  158.98   49.58
   0   8   4  547.83   84.34
   0   8   4  644.36   94.09
   0   8   5  998.91  113.51
   0   8   5 1268.05  128.77
   0   8   6  105.24   44.10
   0   8   6  -31.90   34.48
   0   8   7  437.52   81.77
   0   8   7  544.76   90.05
   0   8   8  329.92   73.29
   0   8   8  217.54   58.74
   0   8   9  333.12   72.62
   0   8   9  359.39   84.43
   0   8  10  217.53   66.37
   0   8  10  186.45   60.62
   0   8  11  260.76   75.43
   0   8  11  275.53   76.04
   0   8  12   60.57   40.91
   0   8  12   82.07   35.59
   0   9  -7  235.96   78.18
   0   9  -6  239.86   68.03
   0   9  -5  237.34   76.72
   0   9  -4  192.82   68.08
   0   9  -3  453.59   81.73
   0   9  -2  336.86   75.20
   0   9  -2  556.81   93.66
   0   9  -1  270.65   64.86
   0   9  -1  450.68   80.02
   0   9   0  350.31   78.74
   0   9   0  564.53   90.10
   0   9   0  434.14   83.10
   0   9   1  245.10   64.90
   0   9   1  424.17   82.26
   0   9   1  393.79   82.13
   0   9   2  130.72   54.21
   0   9   2  123.48   52.74
   0   9   3  449.30   85.11
   0   9   3  517.54   83.98
   0   9   4  425.04   81.09
   0   9   4  479.85   86.84
   0   9   5  337.22   73.96
   0   9   5  667.32  100.55
   0   9   6  314.63   69.94
   0   9   6  472.67   88.46
   0   9   7  316.61   75.60
   0   9   7  244.21   68.85
   0   9   8  124.23   48.81
   0   9   8   79.46   52.53
   0   9   9  205.36   68.43
   0   9   9   80.95   45.83
   0   9  10  193.60   62.94
   0   9  10  135.43   56.29
   0   9  11  149.45   69.82
   0   9  11   75.09   34.97
   0   9  12  128.56   63.51
   0   9  12   64.02   45.46
   0  10  -6   88.59   52.20
   0  10  -5  241.54   75.83
   0  10  -4  166.31   66.07
   0  10  -3  391.61   80.46
   0  10  -2  470.19   88.24
   0  10  -1  221.47   61.25
   0  10  -1  110.20   51.06
   0  10   0  370.56   78.43
   0  10   0  554.49   94.23
   0  10   1  310.86   74.41
   0  10   1  528.32   95.28
   0  10   1  497.57   96.25
   0  10   2   92.49   50.28
   0  10   2   47.33   42.03
   0  10   2   37.95   50.99
   0  10   3  891.34  125.83
   0  10   3 1137.13  141.78
   0  10   4   96.41   52.95
   0  10   4   44.15   47.82
   0  10   5  419.70   88.96
   0  10   5  513.96   93.26
   0  10   6  392.28   94.22
   0  10   6  519.28  100.21
   0  10   7  231.50   76.48
   0  10   7  141.90   53.81
   0  10   8  386.03   87.88
   0  10   8   97.80   51.82
   0  10   9   62.57   37.46
   0  10   9   -0.14   34.83
   0  10  10    8.06   35.63
   0  10  10   37.73   42.19
   0  10  11   70.07   46.23
   0  10  11   13.55   41.62
   0  11  -4  177.42   63.38
   0  11  -3  121.97   43.71
   0  11  -2  126.94   56.55
   0  11  -1  184.65   55.64
   0  11  -1  101.28   59.38
   0  11   0  183.04   55.39
   0  11   0  112.64   54.52
   0  11   1  178.12   67.68
   0  11   1  224.31   64.98
   0  11   1   96.52   60.28
   0  11   2  367.82   91.51
   0  11   2  194.78   72.34
   0  11   2  360.89   83.87
   0  11   3  178.40   62.78
   0  11   3  197.59   69.18
   0  11   3  156.99   65.86
   0  11   4  189.87   60.02
   0  11   4  201.04   73.26
   0  11   5  177.44   63.62
   0  11   5  140.79   61.82
   0  11   6  234.89   73.44
   0  11   6  174.98   77.20
   0  11   7  229.77   82.18
   0  11   7  107.93   53.26
   0  11   8  171.50   65.93
   0  11   8   94.40   57.77
   0  11   9  105.02   73.71
   0  11   9  150.35   74.77
   0  12  -1  219.45   63.65
   0  12   0  155.73   58.95
   0  12   0   68.11   49.44
   0  12   1  122.29   53.12
   0  12   1   26.44   42.36
   0  12   2  354.89   88.06
   0  12   2  140.15   59.00
   0  12   2  403.97   89.45
   0  12   3   51.76   52.41
   0  12   3  194.35   73.58
   0  12   3  111.85   53.34
   0  12   4  197.87   72.84
   0  12   4  209.65   72.55
   0  12   5    1.35   38.89
   0  12   5   17.82   43.72
   0  12   6  253.31   81.87
   0  12   6  223.36   91.71
   0  12   7   60.54   41.86
   0  12   7   62.78   44.36
   1 -12  -5   14.17   30.63
   1 -12  -4    2.72   32.05
   1 -12  -3   23.31   26.48
   1 -12  -2   41.07   36.93
   1 -12  -1   49.61   40.78
   1 -12   0   25.43   34.31
   1 -12   1  -10.53   33.79
   1 -11  -6   11.45   26.81
   1 -11  -5  -99.97   44.14
   1 -11  -4   32.09   29.73
   1 -11  -3   12.35   29.24
   1 -11  -2   25.15   31.33
   1 -11  -1   34.22   40.42
   1 -11   0   -6.08   31.83
   1 -11   1   18.29   32.68
   1 -11   2   -7.47   32.96
   1 -11   3   53.50   47.57
   1 -11   4  -38.63   47.28
   1 -10  -8    1.96   24.56
   1 -10  -7   16.18   24.58
   1 -10  -6  -33.36   27.89
   1 -10  -5    9.46   21.58
   1 -10  -4   40.96   28.11
   1 -10  -3   28.63   24.04
   1 -10  -2  124.90   50.33
   1 -10  -1   60.38   39.53
   1 -10   0  323.08   65.12
   1 -10   1  -13.88   32.55
   1 -10   2   -2.44   39.46
   1 -10   3    5.65   31.24
   1 -10   4   77.60   52.78
   1 -10   5  -23.21   38.66
   1 -10   6  -44.48   56.19
   1  -9  -9  -12.83   19.95
   1  -9  -8  -15.67   20.88
   1  -9  -7   46.26   28.72
   1  -9  -6   -9.03   19.20
   1  -9  -5    3.73   20.66
   1  -9  -4   44.95   21.85
   1  -9  -3   -3.23   20.75
   1  -9  -2   60.95   37.92
   1  -9  -1   44.22   33.46
   1  -9   0  151.19   45.94
   1  -9   1   22.26   25.47
   1  -9   2  -73.58   47.88
   1  -9   3    7.49   36.25
   1  -9   4   24.71   35.55
   1  -9   5   19.76   35.39
   1  -9   6   -1.80   40.95
   1  -9   7   30.60   45.33
   1  -8 -11   44.94   32.96
   1  -8 -10   52.15   28.23
   1  -8  -9   49.86   30.81
   1  -8  -8   19.33   20.23
   1  -8  -7  -30.93   19.62
   1  -8  -6   13.01   18.99
   1  -8  -5   19.86   23.20
   1  -8  -4   25.25   28.01
   1  -8  -3  111.22   35.92
   1  -8  -2   39.92   24.79
   1  -8  -1   52.51   24.57
   1  -8   0  323.00   61.77
   1  -8   1  549.02   81.97
   1  -8   2  125.93   48.60
   1  -8   3  -20.37   26.91
   1  -8   4  -40.12   38.90
   1  -8   5   53.27   47.40
   1  -8   6   36.79   45.52
   1  -8   7  -48.33   40.40
   1  -7 -13    5.28   54.57
   1  -7 -12   60.50   46.74
   1  -7 -12   73.83   65.29
   1  -7 -11   22.95   30.41
   1  -7 -10   97.89   39.24
   1  -7  -9    9.87   23.30
   1  -7  -8   49.77   32.01
   1  -7  -7   60.27   27.33
   1  -7  -6   22.23   28.57
   1  -7  -5   16.55   25.26
   1  -7  -4   28.06   18.28
   1  -7  -3    6.00   19.32
   1  -7  -2   59.25   23.50
   1  -7  -1    5.25   21.50
   1  -7   0    5.34   19.95
   1  -7   1   21.86   30.05
   1  -7   2   94.59   41.75
   1  -7   3   41.40   34.13
   1  -7   4   62.18   44.05
   1  -7   5    9.76   20.55
   1  -7   5   61.04   45.63
   1  -7   6   28.61   41.23
   1  -7   7    0.04   34.60
   1  -6 -13   -6.64   36.08
   1  -6 -13   17.68   40.51
   1  -6 -12   14.17   48.83
   1  -6 -12   16.44   25.86
   1  -6 -11  100.28   41.77
   1  -6 -11   85.67   53.15
   1  -6 -10   38.58   29.99
   1  -6 -10  -46.01   43.46
   1  -6  -9   40.37   34.20
   1  -6  -9   18.30   26.13
   1  -6  -8   24.21   26.47
   1  -6  -7  -12.53   19.47
   1  -6  -6  279.46   50.88
   1  -6  -5   40.47   26.32
   1  -6  -4   85.73   26.77
   1  -6  -3  412.02   50.74
   1  -6  -2   34.69   20.34
   1  -6  -1   23.75   24.27
   1  -6   0    8.16   20.37
   1  -6   1  182.22   37.38
   1  -6   1  209.16   44.21
   1  -6   2   -2.11   17.33
   1  -6   2  -14.12   23.89
   1  -6   3   15.78   21.75
   1  -6   3  -13.74   30.82
   1  -6   4  173.26   35.47
   1  -6   4  190.97   53.56
   1  -6   5   39.22   23.40
   1  -6   5  -25.76   34.83
   1  -6   6   23.11   14.04
   1  -6   6   47.89   42.82
   1  -6  11  -88.98   52.36
   1  -5 -13   80.03   69.99
   1  -5 -13   34.86   41.45
   1  -5 -12   48.93   58.42
   1  -5 -12  -60.78   43.29
   1  -5 -11   54.90   49.04
   1  -5 -11  -12.86   25.76
   1  -5 -10  -25.43   36.86
   1  -5 -10   -1.94   30.93
   1  -5  -9   50.42   35.32
   1  -5  -9   -3.37   38.20
   1  -5  -8  111.96   56.00
   1  -5  -8  -22.93   31.71
   1  -5  -7    3.72   34.94
   1  -5  -7   14.62   29.84
   1  -5  -6   -5.85   21.64
   1  -5  -5   56.59   20.64
   1  -5  -4   61.25   26.47
   1  -5  -3    1.10   14.94
   1  -5  -2   15.15   22.06
   1  -5  -2  -20.37   26.39
   1  -5  -2   13.50   15.47
   1  -5  -1    1.30   17.68
   1  -5  -1   -7.08   19.85
   1  -5  -1  -13.88   15.78
   1  -5   0    5.16   17.38
   1  -5   0   14.71   22.79
   1  -5   0   30.01   27.28
   1  -5   1   39.20   27.34
   1  -5   1   28.36   27.88
   1  -5   1   37.58   28.89
   1  -5   2   -8.84   18.48
   1  -5   2   36.15   18.87
   1  -5   2   15.54   25.04
   1  -5   3   38.86   27.31
   1  -5   3   23.06   15.63
   1  -5   3   53.00   33.26
   1  -5   4  114.15   22.39
   1  -5   4  138.30   46.43
   1  -5   5   -9.84   12.86
   1  -5   5  -60.13   40.38
   1  -5   6   21.77   14.16
   1  -5   6   11.30   26.63
   1  -5   7   13.48   10.39
   1  -5  10  -15.84   42.26
   1  -5  11   16.00   37.47
   1  -5  12   21.57   49.66
   1  -4 -14  157.04   74.28
   1  -4 -13  -14.91   50.04
   1  -4 -12   56.42   52.25
   1  -4 -11    4.40   37.50
   1  -4 -10   33.37   42.64
   1  -4  -9   14.14   34.04
   1  -4  -8   -3.75   36.24
   1  -4  -7  141.89   57.83
   1  -4  -6   96.18   35.52
   1  -4  -6  145.27   47.18
   1  -4  -5    5.45   18.31
   1  -4  -5   22.70   24.70
   1  -4  -4  228.55   36.49
   1  -4  -4  324.42   56.79
   1  -4  -4  286.95   55.44
   1  -4  -3 1982.43   83.05
   1  -4  -3 1895.95  117.79
   1  -4  -3 2102.01  129.06
   1  -4  -2  509.03   43.86
   1  -4  -2  535.63   63.33
   1  -4  -2  469.66   55.90
   1  -4  -1   48.03   25.48
   1  -4  -1    1.34   22.20
   1  -4  -1   38.09   17.81
   1  -4   0   38.98   27.01
   1  -4   0    2.96   21.69
   1  -4   0   38.78   21.07
   1  -4   1   56.22   27.09
   1  -4   1   47.72   22.12
   1  -4   1   87.59   30.00
   1  -4   2 1604.23  106.56
   1  -4   2 1616.99   95.42
   1  -4   2 1732.39   86.31
   1  -4   3  -13.00   15.98
   1  -4   3  -22.70   16.52
   1  -4   3   -6.06   23.26
   1  -4   4   80.88   25.88
   1  -4   4   56.36   16.84
   1  -4   4   42.92   38.28
   1  -4   5   22.00   18.61
   1  -4   5   52.24   15.40
   1  -4   5   13.61   29.72
   1  -4   6   28.94   24.30
   1  -4   6   26.16    9.16
   1  -4   7   40.82    9.63
   1  -4   7   35.03    8.17
   1  -4   9   18.55   36.30
   1  -4  10   10.06   33.12
   1  -4  11  155.94   66.67
   1  -4  12   -9.77   34.08
   1  -3 -14   54.44   55.46
   1  -3 -13  -36.60   48.74
   1  -3 -12  -74.84   59.32
   1  -3 -11   -5.07   47.04
   1  -3 -10   72.71   58.57
   1  -3  -9   52.01   42.41
   1  -3  -8   -4.19   28.62
   1  -3  -8  -29.19   22.77
   1  -3  -7   44.42   43.17
   1  -3  -6  259.43   53.65
   1  -3  -5  106.95   42.24
   1  -3  -5  141.65   34.88
   1  -3  -5   85.13   40.62
   1  -3  -4    8.22   20.85
   1  -3  -4   22.92   25.38
   1  -3  -4   26.88   16.92
   1  -3  -4    8.11   22.34
   1  -3  -3  569.13   40.13
   1  -3  -3  604.44   69.43
   1  -3  -3  569.60   64.42
   1  -3  -2 1196.65   81.38
   1  -3  -2 1302.07   51.69
   1  -3  -2 1348.32   90.83
   1  -3  -1  363.60   31.48
   1  -3  -1  374.98   46.19
   1  -3  -1  359.45   46.52
   1  -3   0   58.87   21.80
   1  -3   0   55.45   20.34
   1  -3   0   50.36   16.87
   1  -3   1  869.46   61.85
   1  -3   1  800.84   61.93
   1  -3   1  877.77   58.74
   1  -3   2 1092.68   80.87
   1  -3   2  965.28   68.47
   1  -3   2 1083.07   60.40
   1  -3   3   45.52   19.31
   1  -3   3   53.68   18.11
   1  -3   3   47.91   32.94
   1  -3   3   21.33   24.39
   1  -3   4   55.43   21.86
   1  -3   4   67.86   14.38
   1  -3   4   74.82   31.98
   1  -3   4   46.14   31.71
   1  -3   5  135.08   16.06
   1  -3   8    1.61   36.80
   1  -3   9   73.90   37.69
   1  -3  10   29.52   37.62
   1  -3  11   36.03   31.48
   1  -3  12   31.36   34.30
   1  -3  13   -9.34   39.58
   1  -2 -14  -22.89   45.95
   1  -2 -13   78.02   62.38
   1  -2 -12    8.03   51.07
   1  -2 -11  -69.83   46.84
   1  -2 -10  -66.92   54.08
   1  -2  -9  110.03   50.25
   1  -2  -8   90.72   40.81
   1  -2  -7   67.71   28.90
   1  -2  -7   68.06   30.22
   1  -2  -7  110.17   49.88
   1  -2  -6   28.17   24.33
   1  -2  -6   61.51   23.01
   1  -2  -6   57.93   25.58
   1  -2  -5  -44.16   24.72
   1  -2  -5   35.01   23.14
   1  -2  -5    8.24   14.58
   1  -2  -5  -42.70   34.74
   1  -2  -4  -14.39   20.69
   1  -2  -4   -4.56   23.35
   1  -2  -4   42.17   24.23
   1  -2  -3   28.56   23.47
   1  -2  -3   33.07   22.43
   1  -2  -3   25.85   21.61
   1  -2  -2  341.65   22.32
   1  -2  -2  427.66   50.86
   1  -2  -2  410.30   48.26
   1  -2  -1  585.40   50.60
   1  -2  -1  578.18   49.52
   1  -2   0   11.41   16.37
   1  -2   0   -4.27   17.54
   1  -2   0   17.30   12.55
   1  -2   1  444.35   40.70
   1  -2   1  464.73   35.70
   1  -2   1  415.46   35.12
   1  -2   2  646.76   56.42
   1  -2   2  607.11   59.88
   1  -2   2  555.36   42.81
   1  -2   2  548.62   33.74
   1  -2   3  195.48   17.50
   1  -2   3  168.28   27.07
   1  -2   4  126.13   33.53
   1  -2   5  111.71   40.77
   1  -2   7   93.88   31.15
   1  -2   8   27.39   29.83
   1  -2   9    7.95   26.79
   1  -2  10   96.76   42.44
   1  -2  11  -35.01   30.72
   1  -2  12  -19.47   36.03
   1  -2  13   97.80   49.07
   1  -1 -14   90.27   71.98
   1  -1 -13   33.65   50.22
   1  -1 -12   25.38   47.88
   1  -1 -11   54.04   60.25
   1  -1 -10   50.51   47.03
   1  -1  -9   67.79   45.20
   1  -1  -8   58.67   33.83
   1  -1  -8  110.95   39.38
   1  -1  -7   15.54   26.90
   1  -1  -7   35.41   33.88
   1  -1  -7   34.45   26.20
   1  -1  -6   16.22   21.10
   1  -1  -6   50.31   33.70
   1  -1  -6   33.45   27.27
   1  -1  -5   68.88   22.34
   1  -1  -5   72.15   28.98
   1  -1  -5   85.75   29.25
   1  -1  -5   27.97   24.35
   1  -1  -4   95.37   29.70
   1  -1  -4  128.32   27.86
   1  -1  -4  128.14   35.42
   1  -1  -4  150.00   41.52
   1  -1  -3   -1.43   23.32
   1  -1  -3    0.84   11.98
   1  -1  -3  -14.42   20.45
   1  -1  -3  -22.46   22.80
   1  -1  -2  183.73   18.78
   1  -1  -2  171.24   35.38
   1  -1  -2  165.22   36.82
   1  -1  -2  169.32   31.43
   1  -1  -1  279.77   37.07
   1  -1  -1  217.07   30.40
   1  -1   0   17.98   12.58
   1  -1   0   53.18   19.14
   1  -1   1  101.17   18.21
   1  -1   1  103.50   14.31
   1  -1   2   42.62   11.02
   1  -1   2   43.65   20.53
   1  -1   3  439.74   51.27
   1  -1   4   21.80   24.36
   1  -1   5  104.04   37.76
   1  -1   5   80.66   28.97
   1  -1   6   42.81   23.36
   1  -1   7   35.39   21.18
   1  -1   8   16.12    5.25
   1  -1   8   28.16   22.36
   1  -1   9    4.11    3.83
   1  -1   9  -47.87   34.96
   1  -1  10  -82.43   38.13
   1  -1  11  -20.15   35.31
   1  -1  12   -8.71   32.84
   1  -1  13  -64.30   41.55
   1  -1  14  -22.69   26.53
   1   0 -13   31.71   45.59
   1   0 -12   37.57   41.09
   1   0 -11   88.35   56.60
   1   0 -10   61.36   45.50
   1   0  -9   48.95   36.84
   1   0  -8  295.98   68.03
   1   0  -7  148.54   46.56
   1   0  -6   32.09   28.47
   1   0  -6   19.56   19.87
   1   0  -5  115.95   32.66
   1   0  -5  112.25   40.43
   1   0  -5  111.22   32.23
   1   0  -4  549.87   59.14
   1   0  -4  489.56   50.53
   1   0  -4  467.25   56.55
   1   0  -3  497.77   47.20
   1   0  -3  516.29   47.54
   1   0  -3  460.87   51.49
   1   0  -2   55.88   24.68
   1   0  -2   51.57   24.95
   1   0  -2   47.51   17.43
   1   0  -1   -1.69   13.90
   1   0  -1   18.01   10.24
   1   0   0  729.87   33.11
   1   0   2 4631.31  112.78
   1   0   3 6328.84  107.71
   1   0   3 6498.77  156.70
   1   0   4  443.76   24.52
   1   0   4  498.74   41.67
   1   0   4  481.98   50.78
   1   0   5   29.52   11.29
   1   0   5   31.20   22.51
   1   0   5   19.94   19.14
   1   0   6 1575.77   96.85
   1   0   6 1463.87  108.57
   1   0   6 1454.64   53.26
   1   0   7  185.40   40.12
   1   0   7  192.86   23.23
   1   0   8   18.74    9.09
   1   0   8   62.76   24.83
   1   0   9   48.74   14.90
   1   0   9   71.18   35.31
   1   0  10    4.36    9.66
   1   0  10   40.52   31.36
   1   0  11   14.75   11.40
   1   0  11  -33.45   31.23
   1   0  12   11.61   29.33
   1   0  13    6.18   27.19
   1   0  14  -10.31   31.79
   1   1 -13   35.76   62.96
   1   1 -12   92.66   54.83
   1   1 -11   -5.37   38.68
   1   1 -10  -46.82   40.41
   1   1  -9   31.91   43.41
   1   1  -8   -1.86   29.91
   1   1  -7   77.12   35.52
   1   1  -6  -14.99   36.83
   1   1  -5   87.10   31.54
   1   1  -5   83.94   36.13
   1   1  -4  163.88   37.75
   1   1  -4  142.27   35.29
   1   1  -3   45.69   24.33
   1   1  -3   46.35   18.10
   1   1  -2   55.31   20.53
   1   1  -2   65.05   18.20
   1   1  -1  219.67   23.15
   1   1  -1  245.66   33.34
   1   1   0   98.05   21.35
   1   1   1   36.42   17.46
   1   1   2  429.21   31.05
   1   1   2  383.09   32.63
   1   1   2  399.09   25.87
   1   1   3    6.87   12.84
   1   1   3  -14.32   18.39
   1   1   3   14.98   11.63
   1   1   4  157.16   24.26
   1   1   4  107.25   23.25
   1   1   4  114.40   27.11
   1   1   5  124.98   22.54
   1   1   5  118.34   26.40
   1   1   5  143.30   35.80
   1   1   6  122.72   35.01
   1   1   6  147.30   24.60
   1   1   6   80.51   26.36
   1   1   7   10.27   12.32
   1   1   7   26.15   20.49
   1   1   8  -21.29   15.97
   1   1   8   18.33   21.64
   1   1   9   40.13   17.44
   1   1   9   34.06   22.71
   1   1  10   35.53   18.00
   1   1  10   29.53   29.25
   1   1  11  -24.20   23.54
   1   1  11   32.85   18.94
   1   1  12    0.30   26.06
   1   1  12   -1.77   13.49
   1   1  13   82.92   44.99
   1   1  14  129.01   54.28
   1   2 -13  -20.85   39.73
   1   2 -12  -95.59   46.90
   1   2 -11  -52.54   48.05
   1   2 -10   30.08   35.53
   1   2  -9   55.43   51.36
   1   2  -8    2.19   28.90
   1   2  -7   36.93   38.60
   1   2  -6   16.00   28.09
   1   2  -5  181.69   39.67
   1   2  -5  114.69   36.22
   1   2  -4   35.51   24.90
   1   2  -4   98.75   36.55
   1   2  -3  222.60   40.78
   1   2  -3  245.49   33.38
   1   2  -2   66.03   19.62
   1   2  -2   82.66   31.06
   1   2  -1   96.82   19.37
   1   2  -1  104.75   31.90
   1   2   0  650.75   53.41
   1   2   0  999.82   33.26
   1   2   1  -14.47   16.74
   1   2   1   25.30   16.59
   1   2   1    9.20   18.10
   1   2   2 2730.48   94.28
   1   2   2 2709.83   64.67
   1   2   2 2684.61  113.76
   1   2   2 2566.84   87.52
   1   2   3 2205.82   88.21
   1   2   3 2150.41   77.36
   1   2   3 2181.89   86.42
   1   2   4 3688.60  116.05
   1   2   4 3566.07  122.56
   1   2   4 3564.01  116.82
   1   2   5   20.82   21.14
   1   2   5    9.44   17.63
   1   2   5    8.96   16.54
   1   2   6  190.80   39.01
   1   2   6  215.22   39.12
   1   2   6  239.12   35.17
   1   2   7   80.81   25.43
   1   2   7  102.58   26.56
   1   2   8  187.58   42.40
   1   2   8  229.93   36.63
   1   2   9  -19.51   31.15
   1   2   9   13.91   18.08
   1   2  10   44.68   29.30
   1   2  10   43.02   18.56
   1   2  11   68.95   34.98
   1   2  11  -18.39   20.53
   1   2  12    0.85   25.96
   1   2  12   33.54   23.76
   1   2  13   -0.25   30.35
   1   2  13   53.05   24.65
   1   2  14   87.61   46.27
   1   3 -12   -0.40   45.96
   1   3 -11    2.16   46.91
   1   3 -10   19.53   47.76
   1   3  -9    7.12   33.88
   1   3  -8   19.65   27.57
   1   3  -7    4.77   35.33
   1   3  -6    0.14   26.49
   1   3  -5   89.51   31.46
   1   3  -4  144.00   35.57
   1   3  -3   28.66   30.38
   1   3  -3  -20.25   28.06
   1   3  -2  309.52   39.57
   1   3  -2  267.13   46.71
   1   3  -1  755.28   72.65
   1   3  -1  665.19   48.52
   1   3   0  279.91   42.38
   1   3   0  329.87   30.33
   1   3   1   59.24   24.84
   1   3   1   34.28   21.20
   1   3   1   42.34   19.28
   1   3   2  591.11   55.72
   1   3   2  521.53   56.58
   1   3   2  567.48   35.48
   1   3   2  591.70   54.59
   1   3   3  651.21   58.39
   1   3   3  617.58   66.20
   1   3   3  626.01   45.00
   1   3   3  638.59   56.70
   1   3   4  185.30   30.35
   1   3   4  172.03   31.10
   1   3   4  228.33   37.71
   1   3   5  130.05   31.89
   1   3   5  121.21   31.67
   1   3   5  128.12   30.55
   1   3   6   -4.70   23.43
   1   3   6   39.58   22.42
   1   3   6   12.71   19.77
   1   3   7   66.13   27.10
   1   3   7   24.67   21.46
   1   3   8  -42.43   27.46
   1   3   8   -6.91   18.80
   1   3   9   -5.13   25.51
   1   3   9   29.13   20.34
   1   3  10   28.78   34.40
   1   3  10   77.84   28.43
   1   3  11    8.77   27.79
   1   3  11   12.26   19.10
   1   3  12  -54.51   36.45
   1   3  12   17.66   21.04
   1   3  13   -8.48   26.00
   1   3  13   -0.17   21.74
   1   3  14   15.41   27.87
   1   4 -12    6.46   49.15
   1   4 -11    8.61   43.43
   1   4 -10   38.97   54.49
   1   4  -9   88.98   48.56
   1   4  -8   25.22   33.04
   1   4  -7   10.01   26.54
   1   4  -6   68.15   43.98
   1   4  -5   43.55   24.84
   1   4  -4  134.77   37.85
   1   4  -3  148.17   40.30
   1   4  -2  331.10   63.48
   1   4  -2  285.58   42.94
   1   4  -1 1520.63  109.46
   1   4  -1 1383.28   79.16
   1   4   0   56.13   23.13
   1   4   0   42.97   19.07
   1   4   0   34.21   23.67
   1   4   1  -25.27   25.28
   1   4   1   25.01   26.34
   1   4   1   13.48   23.98
   1   4   2   34.55   24.32
   1   4   2   35.54   25.40
   1   4   2    0.15   12.32
   1   4   2   67.90   31.21
   1   4   3  469.78   57.95
   1   4   3  419.96   60.21
   1   4   3  390.58   43.40
   1   4   3  492.25   58.95
   1   4   4  438.45   55.88
   1   4   4  412.54   64.25
   1   4   4  426.95   47.89
   1   4   4  482.14   57.80
   1   4   5  104.88   33.82
   1   4   5   88.02   38.24
   1   4   5   87.19   30.80
   1   4   6  592.46   68.73
   1   4   6  558.51   60.77
   1   4   6  560.54   66.03
   1   4   7  266.33   50.99
   1   4   7  318.53   53.17
   1   4   8  100.44   33.06
   1   4   8   72.35   32.64
   1   4   9   -1.66   24.35
   1   4   9    4.93   21.06
   1   4  10   60.97   35.79
   1   4  10   58.51   33.23
   1   4  11   20.49   29.03
   1   4  11   12.07   31.99
   1   4  12    3.17   27.23
   1   4  12  -50.53   24.82
   1   4  13  -26.25   27.65
   1   4  13   20.14   23.40
   1   4  14   57.55   41.17
   1   4  14   29.08   23.92
   1   5 -11   19.38   47.04
   1   5 -10 -102.62   58.87
   1   5  -9   -5.74   39.52
   1   5  -8  -82.67   50.54
   1   5  -7  -12.08   36.70
   1   5  -6   43.11   36.82
   1   5  -5   71.36   33.20
   1   5  -4   -9.18   25.14
   1   5  -3  -49.40   26.76
   1   5  -2   66.75   24.12
   1   5  -1  -15.56   21.74
   1   5   0   22.31   24.90
   1   5   0   -1.37   17.98
   1   5   0   -5.50   23.91
   1   5   1   -3.60   21.74
   1   5   1   19.12   20.60
   1   5   1   -3.62   25.20
   1   5   2  -12.33   25.97
   1   5   2  -42.85   19.87
   1   5   2  -34.98   22.08
   1   5   3   10.75   26.63
   1   5   3    2.12   16.24
   1   5   3  -19.76   22.99
   1   5   3   47.25   33.24
   1   5   4    5.64   23.50
   1   5   4  -19.20   21.28
   1   5   4   -6.26   16.37
   1   5   4   40.84   26.31
   1   5   5  -22.40   33.07
   1   5   5  -13.75   24.21
   1   5   5   58.05   34.07
   1   5   6   -5.86   25.74
   1   5   6   -4.13   23.60
   1   5   6   -8.89   22.07
   1   5   7   -6.33   25.04
   1   5   7   48.66   28.48
   1   5   8   29.42   31.18
   1   5   8   77.32   33.81
   1   5   9  -21.08   24.84
   1   5   9   14.66   28.49
   1   5  10   25.10   26.19
   1   5  10   43.03   35.30
   1   5  11   31.26   40.50
   1   5  11   -2.74   29.29
   1   5  12  -58.43   39.60
   1   5  12   -5.07   27.44
   1   5  13  118.56   49.40
   1   5  13  -57.20   42.46
   1   5  14    7.30   29.66
   1   5  14   -0.37   28.79
   1   6 -10    4.02   37.75
   1   6  -9  184.05   62.15
   1   6  -8   74.01   44.64
   1   6  -7  146.28   57.22
   1   6  -6    8.03   37.97
   1   6  -5   57.40   32.38
   1   6  -4  -50.79   28.89
   1   6  -3   48.38   30.09
   1   6  -2  182.48   42.24
   1   6  -1  340.48   52.67
   1   6   0   96.71   29.72
   1   6   0   91.60   38.83
   1   6   1   70.92   38.96
   1   6   1    8.96   19.41
   1   6   1   62.79   31.16
   1   6   2  -29.68   23.60
   1   6   2   23.74   32.37
   1   6   3   18.08   27.29
   1   6   3   57.31   36.75
   1   6   3  -22.44   17.57
   1   6   4  112.49   37.60
   1   6   4  153.02   45.25
   1   6   4  117.77   30.46
   1   6   5   20.24   25.13
   1   6   5   58.83   24.97
   1   6   6   49.56   28.07
   1   6   6   92.76   37.88
   1   6   6  137.43   46.52
   1   6   7  -17.09   32.26
   1   6   7  -23.56   27.15
   1   6   8   71.17   33.47
   1   6   8  -43.10   34.65
   1   6   9  -37.11   34.43
   1   6   9   68.52   37.82
   1   6  10    8.13   26.45
   1   6  10    8.43   28.90
   1   6  11  -26.55   39.68
   1   6  11   91.52   44.12
   1   6  12   -5.00   30.21
   1   6  12  128.52   49.38
   1   6  13    8.26   34.92
   1   6  13   -4.35   30.64
   1   6  14  -67.08   50.44
   1   6  14   87.25   48.61
   1   7  -9  -12.05   40.93
   1   7  -8  -20.90   36.05
   1   7  -7  -30.70   46.88
   1   7  -6   35.05   33.28
   1   7  -5  -47.64   43.55
   1   7  -4   -6.32   30.72
   1   7  -3  -31.22   27.94
   1   7  -2   34.79   23.98
   1   7  -1    3.53   20.87
   1   7   0   33.04   30.57
   1   7   0   -2.46   31.77
   1   7   1  -16.81   25.34
   1   7   1    3.71   21.72
   1   7   1   40.22   38.48
   1   7   2  -48.86   37.12
   1   7   2    7.03   33.48
   1   7   3   -7.34   26.32
   1   7   3   -6.78   18.00
   1   7   3  -24.39   28.93
   1   7   4  -22.69   33.37
   1   7   4   22.47   17.99
   1   7   4  -25.08   25.23
   1   7   5   35.01   29.50
   1   7   5  -16.13   20.38
   1   7   5   22.88   39.34
   1   7   6    3.48   24.16
   1   7   6    8.32   29.18
   1   7   7    1.91   26.27
   1   7   7   50.75   31.79
   1   7   8   12.70   34.61
   1   7   8   48.37   37.62
   1   7   9   -4.39   28.66
   1   7   9   59.49   42.60
   1   7  10   74.14   49.22
   1   7  10  -51.11   30.17
   1   7  11    2.07   28.65
   1   7  11   60.51   49.31
   1   7  12  -34.61   36.17
   1   7  12   41.67   43.01
   1   7  13   80.61   54.61
   1   7  13  -41.96   39.45
   1   8  -8   31.72   48.25
   1   8  -7   28.16   38.24
   1   8  -6   54.28   43.54
   1   8  -5  141.54   45.95
   1   8  -4  -34.32   28.57
   1   8  -3   24.42   28.78
   1   8  -2   45.08   28.59
   1   8  -1  -12.63   26.64
   1   8   0  -48.71   34.66
   1   8   0  -11.76   29.47
   1   8   1   21.11   38.39
   1   8   1   49.31   34.67
   1   8   1   27.47   25.80
   1   8   2  107.37   30.91
   1   8   2  123.53   47.00
   1   8   3   76.73   46.57
   1   8   3   45.67   28.00
   1   8   3   38.65   45.12
   1   8   4   31.29   29.47
   1   8   4   54.71   41.40
   1   8   5  272.88   62.49
   1   8   5  213.15   61.62
   1   8   6   22.44   42.00
   1   8   6   69.01   43.68
   1   8   7   11.90   26.56
   1   8   7   69.71   34.69
   1   8   8  139.34   56.39
   1   8   8   52.01   42.48
   1   8   9   35.18   36.03
   1   8   9   84.11   49.87
   1   8  10  -41.29   42.18
   1   8  10   39.62   35.84
   1   8  11    6.17   38.79
   1   8  11   34.12   35.54
   1   8  12  -57.74   35.39
   1   8  12   90.82   52.22
   1   8  13 -103.77   55.33
   1   8  13   91.31   56.05
   1   9  -7   -0.48   36.67
   1   9  -6   62.98   40.83
   1   9  -5   29.38   45.95
   1   9  -4  -55.81   35.74
   1   9  -3   61.16   34.86
   1   9  -2   -6.67   28.35
   1   9  -1   39.01   37.85
   1   9   0   13.57   28.95
   1   9   0   -6.10   29.60
   1   9   1   91.05   57.47
   1   9   1   39.95   34.68
   1   9   1   60.88   47.52
   1   9   2  -14.59   38.31
   1   9   2  -13.63   38.18
   1   9   2   57.18   40.23
   1   9   3   10.20   30.75
   1   9   3   51.79   45.34
   1   9   4  -25.59   39.86
   1   9   4   48.45   37.45
   1   9   5   67.64   50.47
   1   9   5   81.72   45.56
   1   9   6  -39.06   35.49
   1   9   6  -28.02   38.51
   1   9   7  -17.83   37.51
   1   9   7  -80.79   48.89
   1   9   8   23.65   35.64
   1   9   8   37.87   32.80
   1   9   9  -28.20   30.18
   1   9   9  -80.65   49.34
   1   9  10   98.03   54.53
   1   9  10   40.40   44.65
   1   9  11   39.40   41.80
   1   9  11  -15.34   42.24
   1   9  12   67.67   55.61
   1   9  12   42.68   38.84
   1  10  -6   48.57   40.47
   1  10  -5   23.76   40.61
   1  10  -4   10.09   30.75
   1  10  -3  117.34   56.98
   1  10  -2   14.76   31.12
   1  10  -1   26.00   32.34
   1  10   0    7.76   26.57
   1  10   1    8.09   37.32
   1  10   1   55.10   46.14
   1  10   2   -5.79   39.63
   1  10   2   56.60   39.44
   1  10   2   60.71   58.09
   1  10   3   24.98   32.16
   1  10   3   77.46   44.03
   1  10   3  -36.08   43.94
   1  10   4   21.83   37.45
   1  10   4  -49.53   47.54
   1  10   5  174.84   66.08
   1  10   5   79.36   51.28
   1  10   6  237.65   69.75
   1  10   6  100.00   53.82
   1  10   7   81.56   59.76
   1  10   7   25.79   44.07
   1  10   8    1.97   39.76
   1  10   8    8.18   34.88
   1  10   9   40.46   32.72
   1  10   9   22.73   36.61
   1  10  10   48.76   47.37
   1  10  10  -98.33   56.48
   1  10  11   -5.63   34.55
   1  10  11   23.83   46.52
   1  11  -4    6.45   32.44
   1  11  -3  100.64   48.63
   1  11  -2   69.21   44.94
   1  11  -1   26.75   35.21
   1  11   0  -19.79   28.73
   1  11   1   -5.06   28.16
   1  11   1   27.57   38.54
   1  11   2   24.71   33.56
   1  11   2   45.25   34.24
   1  11   2  -46.04   48.90
   1  11   3   25.22   41.07
   1  11   3   23.49   34.28
   1  11   3  -62.68   51.73
   1  11   4   24.93   40.14
   1  11   4  -62.61   47.51
   1  11   5   24.36   36.95
   1  11   5  -11.76   49.80
   1  11   6   20.53   41.41
   1  11   6   52.31   34.89
   1  11   7   38.99   43.21
   1  11   7  -29.49   48.39
   1  11   8   33.04   36.29
   1  11   8    0.55   45.69
   1  11   9   24.25   35.95
   1  11   9  103.12   66.66
   1  12  -1  -11.92   28.19
   1  12   0  -21.28   28.70
   1  12   1   38.85   36.37
   1  12   2   31.85   27.39
   1  12   2   14.19   47.14
   1  12   3  -21.52   48.03
   1  12   3   52.06   34.24
   1  12   3  -35.31   45.66
   1  12   4   77.00   59.42
   1  12   4  -46.11   46.32
   1  12   4   10.36   35.95
   1  12   5   37.93   41.26
   1  12   5    4.09   47.53
   1  12   6   66.29   56.87
   1  12   6   36.40   49.56
   1  12   7  -15.90   49.41
   1  12   7   11.18   54.98
   2 -12  -2   38.60   32.75
   2 -12  -1   19.67   26.22
   2 -11  -3  175.76   48.69
   2 -11  -2   23.87   31.22
   2 -11  -1  115.43   44.84
   2 -11   0  102.46   46.51
   2 -11   1  158.09   54.78
   2 -11   2  130.31   55.71
   2 -11   3   46.03   31.93
   2 -10  -5  331.59   52.06
   2 -10  -4   96.92   33.19
   2 -10  -3  228.77   49.48
   2 -10  -2  225.66   50.29
   2 -10  -1  158.96   47.20
   2 -10   0  209.76   58.24
   2 -10   1  267.03   57.40
   2 -10   2  209.81   59.58
   2 -10   3  213.65   62.38
   2 -10   4   93.34   49.70
   2  -9  -6  367.80   47.08
   2  -9  -5  223.61   41.18
   2  -9  -4  120.11   35.84
   2  -9  -3  242.20   45.25
   2  -9  -2  260.45   46.91
   2  -9  -1  404.76   63.28
   2  -9   0  498.00   75.78
   2  -9   1  223.41   55.35
   2  -9   2  141.96   52.58
   2  -9   3  463.00   85.80
   2  -9   4   87.34   49.84
   2  -9   5  218.88   73.54
   2  -8  -8  413.96   51.56
   2  -8  -7  995.58   75.67
   2  -8  -6  402.19   45.77
   2  -8  -5  664.73   59.43
   2  -8  -4  451.18   51.82
   2  -8  -3  254.08   41.18
   2  -8  -2  720.55   71.75
   2  -8  -1  479.51   61.40
   2  -8   0  395.40   59.60
   2  -8   1  499.29   71.11
   2  -8   2  527.64   76.32
   2  -8   3   21.52   28.20
   2  -8   4 1097.56  129.09
   2  -8   5  372.31   83.30
   2  -7  -9  243.99   42.45
   2  -7  -8  317.90   43.87
   2  -7  -7  332.31   43.37
   2  -7  -6  389.61   44.44
   2  -7  -5  645.40   52.37
   2  -7  -4  700.14   55.13
   2  -7  -3  745.52   60.91
   2  -7  -2  710.45   64.26
   2  -7  -1  500.45   57.13
   2  -7   0  482.69   62.40
   2  -7   1  628.21   73.89
   2  -7   2  593.14   80.32
   2  -7   3  186.23   47.69
   2  -7   4  741.11  101.48
   2  -6 -12   78.63   39.93
   2  -6 -11  423.49   70.17
   2  -6 -11  578.82  114.97
   2  -6 -10  229.14   49.00
   2  -6  -9  469.75   61.38
   2  -6  -8  746.93   69.02
   2  -6  -8  557.08   60.45
   2  -6  -7  547.39   54.98
   2  -6  -6  346.06   39.53
   2  -6  -5 1139.52   62.98
   2  -6  -4 1656.13   72.00
   2  -6  -3  848.79   54.55
   2  -6  -2 1503.99   79.02
   2  -6  -1  568.78   55.18
   2  -6   0  856.80   72.94
   2  -6   1  747.72   75.24
   2  -6   2  725.29   79.66
   2  -6   2  596.48   64.46
   2  -6   3 2496.80  159.28
   2  -6   3 2064.31  118.55
   2  -6   4  323.94   64.65
   2  -6   4  304.35   45.38
   2  -6   5  642.23   59.19
   2  -6   6  164.48   28.25
   2  -6  11   53.07   46.00
   2  -5 -13  -16.61   49.41
   2  -5 -12  118.56   41.82
   2  -5 -12  159.43   71.46
   2  -5 -11  243.21   75.57
   2  -5 -11  207.97   54.05
   2  -5 -10  333.71   61.43
   2  -5 -10  365.03   88.70
   2  -5  -9  408.74   63.71
   2  -5  -9  551.63   97.90
   2  -5  -8  318.83   49.63
   2  -5  -8  313.41   45.83
   2  -5  -8  389.43   80.76
   2  -5  -7  336.39   46.68
   2  -5  -7  344.27   42.86
   2  -5  -6  532.83   48.33
   2  -5  -5  829.00   49.42
   2  -5  -4 1096.27   50.96
   2  -5  -3 1310.05   56.45
   2  -5  -2 1676.92   69.94
   2  -5  -1  754.50   55.34
   2  -5   0 1067.28   72.89
   2  -5   0  983.77   87.63
   2  -5   0 1017.09   88.18
   2  -5   1  984.49   80.60
   2  -5   1  919.82   80.86
   2  -5   1  941.51   83.84
   2  -5   2  805.03   82.39
   2  -5   2  776.40   75.39
   2  -5   2  746.61   70.24
   2  -5   3 1370.21  113.47
   2  -5   3 1225.43   95.40
   2  -5   3 1370.25   86.82
   2  -5   4  755.25   76.08
   2  -5   4  758.16   61.16
   2  -5   5  465.06   43.96
   2  -5   5  508.50   61.99
   2  -5   6  175.21   24.59
   2  -5  10  416.50   89.86
   2  -5  11   53.97   37.16
   2  -4 -13  167.91   69.30
   2  -4 -12  307.58   91.85
   2  -4 -11   71.53   53.78
   2  -4 -10  382.87   83.54
   2  -4  -9  838.50   82.15
   2  -4  -9 1140.07  139.93
   2  -4  -8  108.34   30.37
   2  -4  -8  108.98   40.02
   2  -4  -7 1618.96   91.81
   2  -4  -7 1928.46  158.70
   2  -4  -6 1496.92   76.16
   2  -4  -6 1669.56  138.85
   2  -4  -5  665.63   44.48
   2  -4  -5  754.37   45.56
   2  -4  -4 1673.50   54.29
   2  -4  -2  532.43   29.48
   2  -4  -2  565.75   69.63
   2  -4  -2  582.01   71.53
   2  -4  -1 4756.96  109.84
   2  -4  -1 4682.30  179.60
   2  -4  -1 4848.72  187.56
   2  -4   0  164.88   34.82
   2  -4   0  216.64   30.32
   2  -4   0  227.97   40.08
   2  -4   1 2175.12  108.66
   2  -4   1 2136.28  109.65
   2  -4   1 2321.31  115.14
   2  -4   2 3313.59  129.56
   2  -4   2 3120.55  127.92
   2  -4   3 1010.04   67.64
   2  -4   3 1071.54   76.77
   2  -4   4 1336.31   70.42
   2  -4   4 1348.69   85.24
   2  -4   5 1105.88   58.32
   2  -4   5 1270.32   87.60
   2  -4   6 1039.92   82.63
   2  -4   7  204.10   40.57
   2  -4   9  358.51   67.75
   2  -4  10  384.07   74.62
   2  -4  11  387.42   78.62
   2  -4  12  242.70   61.80
   2  -3 -13   17.65   45.04
   2  -3 -12  184.36   74.41
   2  -3 -11  330.60   92.14
   2  -3 -10   69.46   34.97
   2  -3  -9  213.76   65.54
   2  -3  -8  403.94   55.80
   2  -3  -8  475.41   89.52
   2  -3  -7  793.83   70.63
   2  -3  -7  896.83  108.23
   2  -3  -6 1530.10   83.51
   2  -3  -6 1605.50  136.89
   2  -3  -5 1715.52   72.89
   2  -3  -5 1878.39  135.14
   2  -3  -4 1194.16   53.17
   2  -3  -4 1515.84   52.14
   2  -3  -3 1605.73  121.13
   2  -3  -3 1424.00  114.52
   2  -3  -2 1344.85  100.53
   2  -3  -2 1370.89  101.24
   2  -3  -1 1819.68  104.91
   2  -3  -1 1844.44  109.06
   2  -3   0  779.00   65.21
   2  -3   0  672.72   67.92
   2  -3   1 1893.82   93.36
   2  -3   1 1924.05   99.21
   2  -3   2 1738.42   87.61
   2  -3   2 1702.91   83.41
   2  -3   3 1145.72   67.77
   2  -3   3 1238.47   69.69
   2  -3   4 1354.20   64.12
   2  -3   4 1457.68   76.78
   2  -3   5 1644.81   86.41
   2  -3   6  868.61   70.64
   2  -3   7  410.68   52.66
   2  -3   8  539.18   76.82
   2  -3   8  377.09   53.06
   2  -3   9  283.02   57.83
   2  -3  10  376.96   70.54
   2  -3  11  244.58   60.66
   2  -3  12  196.80   57.01
   2  -2 -13  333.42   99.95
   2  -2 -12  153.80   68.13
   2  -2 -11  582.70  116.72
   2  -2 -10  264.55   79.28
   2  -2  -9  191.99   53.20
   2  -2  -8 1146.64  127.59
   2  -2  -8  827.17   83.77
   2  -2  -7  948.01  108.44
   2  -2  -7  757.67   73.84
   2  -2  -6 4198.47  209.13
   2  -2  -6 3694.16  143.57
   2  -2  -5 1415.57   76.38
   2  -2  -5 1421.72  118.63
   2  -2  -4 3672.58   96.51
   2  -2  -4 3701.45  168.87
   2  -2  -4 3690.51  191.74
   2  -2  -4 3548.97  178.68
   2  -2  -3 1817.59   50.69
   2  -2  -3 2144.08  134.25
   2  -2  -3 2087.83  131.11
   2  -2  -2  816.09   75.61
   2  -2  -2  751.37   73.71
   2  -2  -1 1832.29  101.18
   2  -2  -1 1775.68  104.55
   2  -2   0 8146.05  180.15
   2  -2   0 8750.50  209.58
   2  -2   1 1215.21   74.45
   2  -2   1 1149.88   61.87
   2  -2   2 2340.47   96.68
   2  -2   2 2638.48   81.55
   2  -2   3  712.76   51.30
   2  -2   3  838.69   44.78
   2  -2   4 3204.70  158.87
   2  -2   4 3001.28   84.91
   2  -2   5 2637.49   89.47
   2  -2   7 2263.33  122.86
   2  -2   8  920.65   82.04
   2  -2   9  227.60   48.71
   2  -2  10  373.29   64.54
   2  -2  11  374.81   66.53
   2  -2  12  276.14   62.77
   2  -2  13  283.47   60.41
   2  -1 -13   76.93   47.01
   2  -1 -12  104.55   64.10
   2  -1 -11   83.87   50.32
   2  -1 -10  166.94   54.46
   2  -1  -9  364.46   83.07
   2  -1  -8  824.68  109.10
   2  -1  -7  920.09  105.60
   2  -1  -7  804.64   83.27
   2  -1  -6 1178.25  110.82
   2  -1  -6  996.03   84.41
   2  -1  -5 1859.60  129.26
   2  -1  -5 1686.16   94.17
   2  -1  -5 1705.43  129.57
   2  -1  -4 1967.64   88.93
   2  -1  -4 2139.12  129.68
   2  -1  -4 1686.28  138.64
   2  -1  -4 1908.88  128.73
   2  -1  -3 1884.91   72.67
   2  -1  -3 1964.21  112.25
   2  -1  -3 1865.95  131.38
   2  -1  -3 1715.59  118.07
   2  -1  -2 1657.88   56.23
   2  -1  -2 1649.04  110.78
   2  -1  -2 1724.88  110.60
   2  -1  -1 2012.18   60.62
   2  -1  -1 2097.07  110.52
   2  -1  -1 2247.33  115.42
   2  -1   0 2452.44  110.05
   2  -1   0 2584.58   96.02
   2  -1   1 2071.77   96.30
   2  -1   1 2196.70   72.70
   2  -1   2 2621.66   64.72
   2  -1   3 1380.74   93.90
   2  -1   4 1313.68   52.17
   2  -1   4 1448.46   45.92
   2  -1   5 1845.47   72.64
   2  -1   5 2021.92  126.23
   2  -1   6 1051.43   63.86
   2  -1   7 1304.43   81.74
   2  -1   8 1315.45   89.62
   2  -1   9  360.08   53.91
   2  -1  10  493.34   69.14
   2  -1  11  283.00   53.61
   2  -1  12  172.60   45.20
   2  -1  13  210.99   55.53
   2   0 -13   91.74   60.72
   2   0 -12  333.74   86.74
   2   0 -11   79.62   42.36
   2   0 -10  482.59   88.80
   2   0  -9  438.17   76.14
   2   0  -8 2224.24  168.46
   2   0  -7  546.77   76.71
   2   0  -6 1184.65  107.36
   2   0  -6 1118.31   94.89
   2   0  -5 3356.31  166.41
   2   0  -5 3365.73  148.31
   2   0  -4   48.78   21.95
   2   0  -4   23.39   26.65
   2   0  -3 5186.78  147.65
   2   0  -3 4933.06  166.28
   2   0  -2 5387.74  134.80
   2   0  -2 5217.91  154.57
   2   0  -1 2128.69   78.12
   2   0   0 5772.55  128.01
   2   0   3 9115.79  204.27
   2   0   4 1398.91   89.63
   2   0   5 1015.31   45.25
   2   0   5 1011.68   85.42
   2   0   6 3705.83  105.52
   2   0   6 3431.76  165.80
   2   0   7 1087.43   68.08
   2   0   8  981.13   72.47
   2   0   9 2332.89  123.21
   2   0  10  295.00   49.58
   2   0  11  348.38   59.41
   2   0  12  135.78   43.74
   2   0  13  169.55   50.06
   2   1 -13   83.40   47.93
   2   1 -12   24.57   45.68
   2   1 -11  279.61   78.52
   2   1 -10  391.06   89.25
   2   1  -9  495.95   84.40
   2   1  -8  603.69   95.01
   2   1  -7  880.09  102.13
   2   1  -6  687.14   82.82
   2   1  -5  973.90   92.42
   2   1  -5  832.37   84.97
   2   1  -4 1441.55   99.25
   2   1  -4 1483.75  100.55
   2   1  -3 1843.37  100.52
   2   1  -3 1970.81  109.73
   2   1  -2 2497.71  101.88
   2   1  -2 2472.26  113.50
   2   1  -1 2641.46  110.87
   2   1  -1 2570.05   88.50
   2   1   0 2651.51  107.03
   2   1   1 1682.14   89.47
   2   1   3 3173.49  107.27
   2   1   3 3315.42   72.66
   2   1   4 1865.15   56.88
   2   1   4 1764.06   91.05
   2   1   5 1404.85   58.47
   2   1   5 1333.95   90.63
   2   1   6 1825.41   77.66
   2   1   6 1611.87  111.07
   2   1   7  549.76   50.58
   2   1   8  676.91   50.02
   2   1   8  882.76   70.16
   2   1   9  809.01   55.66
   2   1   9 1082.57   84.92
   2   1  10  253.82   32.36
   2   1  10  425.62   59.23
   2   1  11  595.10   74.38
   2   1  12  127.66   40.59
   2   1  13  106.99   37.51
   2   1  14   49.42   36.06
   2   2 -12  127.19   57.01
   2   2 -11  302.45   81.27
   2   2 -10  235.58   66.29
   2   2  -9  892.07  118.77
   2   2  -8   53.10   34.47
   2   2  -7 1283.97  123.98
   2   2  -6  814.17   89.05
   2   2  -5 1439.10  109.00
   2   2  -4 2649.64  130.39
   2   2  -4 2690.07  153.88
   2   2  -3 2132.84  104.06
   2   2  -3 2301.40  133.23
   2   2  -2 2990.48  105.98
   2   2  -2 3069.16  140.32
   2   2  -1 1269.23   56.67
   2   2  -1 1288.42   89.65
   2   2   0 1829.28  100.55
   2   2   0 1508.58   49.80
   2   2   1 6973.14  193.51
   2   2   2 2879.56  134.10
   2   2   2 2081.11   61.26
   2   2   3 1644.10   69.73
   2   2   3 1539.49   62.21
   2   2   4 1542.80   69.30
   2   2   4 1538.34   74.88
   2   2   5 4345.15  138.35
   2   2   5 4480.28  124.15
   2   2   5 4408.10  146.92
   2   2   6  407.88   45.99
   2   2   6  404.25   43.00
   2   2   6  387.31   53.88
   2   2   7 2605.24  113.15
   2   2   7 2732.79  115.29
   2   2   8  909.03   69.47
   2   2   8 1166.39   83.43
   2   2   9  471.75   50.54
   2   2   9  685.58   71.40
   2   2  10  474.72   54.12
   2   2  10  739.99   80.22
   2   2  11  185.54   34.96
   2   2  11  329.33   60.88
   2   2  12  238.41   37.79
   2   2  12  474.18   71.55
   2   2  13  127.03   42.58
   2   2  14   78.16   30.66
   2   3 -12   83.45   39.20
   2   3 -11  186.30   64.41
   2   3 -10  237.06   68.16
   2   3  -9  142.17   54.02
   2   3  -8  327.07   69.85
   2   3  -7  300.17   62.55
   2   3  -6  489.49   72.40
   2   3  -5 1106.10   98.02
   2   3  -4 1992.69  114.19
   2   3  -3 2122.16  108.41
   2   3  -3 2173.65  145.77
   2   3  -2 2071.68   91.88
   2   3  -2 2284.57  138.78
   2   3  -1 1635.49   65.95
   2   3  -1 1583.34  112.48
   2   3   0  991.91   39.52
   2   3   0 1191.20   95.93
   2   3   1  798.48   79.42
   2   3   2  809.27   77.96
   2   3   3 1530.90  117.05
   2   3   3 1650.40   86.52
   2   3   3 1567.47   55.96
   2   3   4 1834.88   78.55
   2   3   4 1969.43  107.57
   2   3   4 1935.72   95.13
   2   3   5 2268.62  104.14
   2   3   5 2637.49  120.29
   2   3   5 2379.12  106.75
   2   3   6 1658.20  101.91
   2   3   6 1932.14  105.61
   2   3   6 1889.03  101.10
   2   3   7 1453.47  104.54
   2   3   7 1523.14   96.87
   2   3   7 1689.46   99.86
   2   3   8  482.19   58.17
   2   3   8  481.81   57.31
   2   3   9  400.21   51.03
   2   3   9  530.56   66.34
   2   3  10  177.62   38.78
   2   3  10  305.54   54.24
   2   3  11  169.71   37.14
   2   3  11  304.19   57.35
   2   3  12  328.72   50.75
   2   3  12  444.54   72.44
   2   3  13  112.15   32.59
   2   3  13  275.43   61.14
   2   3  14  113.96   44.89
   2   4 -11  337.06   88.26
   2   4 -10  245.05   73.84
   2   4  -9   58.27   36.73
   2   4  -8  613.07   92.80
   2   4  -7  382.89   72.98
   2   4  -6  488.54   71.05
   2   4  -5 1519.97  115.91
   2   4  -4 2000.35  117.85
   2   4  -3 1090.98   79.12
   2   4  -2 2173.90   99.50
   2   4  -1 2354.96   84.74
   2   4  -1 2350.31  145.62
   2   4   0  690.98   37.15
   2   4   0  716.60   80.92
   2   4   1 2386.17  142.01
   2   4   1 2112.80   50.45
   2   4   2  211.90   16.57
   2   4   2  290.27   53.23
   2   4   2  268.23   42.70
   2   4   3 1420.47  100.94
   2   4   3 1374.75   51.05
   2   4   3 1317.01  108.12
   2   4   3 1384.17   90.24
   2   4   4 3685.69  159.01
   2   4   4 3941.34  107.88
   2   4   4 4051.90  203.47
   2   4   4 4221.50  158.42
   2   4   5  590.18   69.80
   2   4   5  676.29   53.88
   2   4   5  665.03   65.04
   2   4   6 3393.96  157.04
   2   4   6 3256.67  135.38
   2   4   6 3620.10  151.42
   2   4   7 1020.30   90.96
   2   4   7 1010.10   82.37
   2   4   7 1246.62   93.95
   2   4   8 1156.36  100.15
   2   4   8 1387.65  105.26
   2   4   9  232.48   46.59
   2   4   9  188.15   46.31
   2   4  10  620.83   76.93
   2   4  10  767.28   84.32
   2   4  11  176.24   47.92
   2   4  11  204.48   48.99
   2   4  12  222.97   55.59
   2   4  12   25.62   24.78
   2   4  13  154.37   40.97
   2   4  13  347.79   70.81
   2   4  14  209.59   57.09
   2   5 -11   33.05   41.85
   2   5 -10  168.74   69.99
   2   5  -9  170.67   66.57
   2   5  -8  215.07   63.70
   2   5  -7  379.84   71.85
   2   5  -6  478.88   75.38
   2   5  -5  463.70   71.90
   2   5  -4  740.76   75.22
   2   5  -3 1072.38   84.64
   2   5  -2 1070.31   74.15
   2   5  -1 1367.45   73.51
   2   5   0 1130.59   58.24
   2   5   1  864.35   46.26
   2   5   2  664.86   74.49
   2   5   2  582.40   39.31
   2   5   2  499.92   40.76
   2   5   2  659.96   69.49
   2   5   3  978.45   95.92
   2   5   3 1004.02   50.42
   2   5   3 1024.56   88.57
   2   5   4 1213.96  103.43
   2   5   4 1324.64   66.38
   2   5   4 1353.87  102.40
   2   5   5 1111.97   98.42
   2   5   5 1025.64   67.34
   2   5   5 1168.43   94.90
   2   5   6 1401.70  112.98
   2   5   6 1295.07   83.70
   2   5   6 1510.10  108.21
   2   5   7  982.91   95.77
   2   5   7  884.19   80.23
   2   5   7  995.59   91.71
   2   5   8  619.73   75.26
   2   5   8  807.46   85.59
   2   5   9  225.56   50.72
   2   5   9  429.24   71.55
   2   5  10  401.34   71.04
   2   5  10  431.27   68.70
   2   5  11  215.45   55.00
   2   5  11  128.84   41.92
   2   5  12  197.17   53.97
   2   5  12   47.50   31.89
   2   5  13  176.22   54.52
   2   5  13  125.98   44.70
   2   5  14  133.10   49.60
   2   5  14   25.38   24.85
   2   6 -10  162.24   70.68
   2   6  -9  206.34   66.98
   2   6  -8  186.00   50.21
   2   6  -7  336.15   68.63
   2   6  -6  908.76  103.62
   2   6  -5  289.70   61.30
   2   6  -4  761.87   79.56
   2   6  -3  472.50   61.05
   2   6  -2  713.25   66.66
   2   6  -1 1554.28   87.10
   2   6   0 1097.76   66.04
   2   6   1  412.28   37.67
   2   6   2 2871.55  164.63
   2   6   2 2921.09  101.35
   2   6   2 3121.38  109.93
   2   6   2 3178.98  170.43
   2   6   3  430.91   66.23
   2   6   3  483.38   40.92
   2   6   3  394.04   63.22
   2   6   4  914.71   96.10
   2   6   4 1118.00   66.01
   2   6   4 1026.64   96.91
   2   6   5 1188.31  109.78
   2   6   5 1293.08   76.59
   2   6   5 1171.38  106.46
   2   6   6  641.10   82.66
   2   6   6  606.92   58.14
   2   6   6  780.79   87.42
   2   6   7  667.70   84.75
   2   6   7  518.03   59.62
   2   6   7  717.99   83.59
   2   6   8  381.11   68.40
   2   6   8  538.28   75.89
   2   6   9 1030.08  111.39
   2   6   9 1180.19  112.89
   2   6  10  159.08   50.49
   2   6  10  104.06   47.73
   2   6  11  318.98   71.34
   2   6  11  458.14   78.42
   2   6  12  153.83   50.23
   2   6  12   70.85   32.90
   2   6  13   81.24   38.67
   2   6  13  -22.46   26.13
   2   6  14   39.38   37.66
   2   6  14   34.85   33.08
   2   7  -9  139.55   63.71
   2   7  -8  185.27   62.25
   2   7  -7  184.01   57.77
   2   7  -6  259.78   58.70
   2   7  -5  335.87   63.54
   2   7  -4  289.55   54.42
   2   7  -3  384.94   61.90
   2   7  -2  348.55   49.74
   2   7  -1  615.03   62.57
   2   7   0 1017.59   73.19
   2   7   1 1319.30   79.62
   2   7   2  969.16  107.26
   2   7   2 1143.43   72.60
   2   7   2 1309.81   78.07
   2   7   2 1124.04  112.91
   2   7   3  613.22   85.20
   2   7   3  791.43   60.00
   2   7   3  732.78   92.29
   2   7   4  615.30   88.88
   2   7   4  710.18   58.91
   2   7   4  738.21   88.53
   2   7   5  453.24   79.25
   2   7   5  481.00   52.40
   2   7   5  581.41   84.38
   2   7   6  300.70   44.99
   2   7   6  288.23   63.08
   2   7   6  427.22   70.43
   2   7   7  379.83   73.54
   2   7   7  384.47   66.82
   2   7   8  261.25   65.18
   2   7   8  318.48   63.34
   2   7   9  289.27   67.12
   2   7   9  476.97   76.25
   2   7  10  252.56   72.16
   2   7  10  441.68   74.28
   2   7  11  231.27   63.65
   2   7  11  286.16   71.76
   2   7  12   86.47   46.08
   2   7  12   78.69   50.30
   2   7  13  184.91   58.82
   2   7  13  -20.82   33.80
   2   8  -8   53.19   35.30
   2   8  -7  104.89   47.12
   2   8  -6  286.93   71.15
   2   8  -5  372.81   71.40
   2   8  -4  486.88   73.70
   2   8  -3  982.89   97.21
   2   8  -2   84.67   33.20
   2   8  -1  585.59   68.16
   2   8   0  520.92   57.44
   2   8   1  585.79   60.41
   2   8   2  898.17  109.42
   2   8   2 1036.04   78.86
   2   8   3  803.42  105.25
   2   8   3 1047.43   77.36
   2   8   3  966.50   84.18
   2   8   3  893.01  100.55
   2   8   4  212.81   62.99
   2   8   4  291.16   42.44
   2   8   4  290.52   70.30
   2   8   5  830.83  107.15
   2   8   5  913.63   75.47
   2   8   5  897.13  103.13
   2   8   6   63.70   41.12
   2   8   6    0.71   41.31
   2   8   6   65.32   26.46
   2   8   7  286.78   67.59
   2   8   7  406.85   75.20
   2   8   8  450.46   88.66
   2   8   8  734.94  102.21
   2   8   9  175.87   53.98
   2   8   9  228.40   71.58
   2   8  10  315.52   65.96
   2   8  10  135.09   57.00
   2   8  11  290.28   66.94
   2   8  11  211.81   68.88
   2   8  12   97.89   46.03
   2   8  12   16.06   38.45
   2   8  13  125.45   47.46
   2   8  13   90.30   53.89
   2   9  -7  142.91   53.03
   2   9  -6  -51.45   48.54
   2   9  -5  107.25   35.43
   2   9  -4  179.59   51.11
   2   9  -3  259.46   54.29
   2   9  -2  468.82   69.12
   2   9  -1  189.00   44.11
   2   9   0  366.41   53.98
   2   9   1  370.38   54.93
   2   9   2  338.14   55.25
   2   9   2  300.81   71.55
   2   9   2  501.80   64.36
   2   9   3  402.06   84.78
   2   9   3  473.55   61.94
   2   9   3  456.91   65.37
   2   9   3  449.81   79.80
   2   9   4  373.67   75.42
   2   9   4  345.78   52.73
   2   9   4  247.07   72.07
   2   9   5  339.15   69.44
   2   9   5  328.53   75.53
   2   9   6  161.48   54.68
   2   9   6  199.26   63.36
   2   9   7  357.93   74.00
   2   9   7  309.30   76.84
   2   9   8  221.63   63.32
   2   9   8  397.01   82.70
   2   9   9  161.70   51.01
   2   9   9  155.47   60.08
   2   9  10  255.57   71.42
   2   9  10  116.02   55.65
   2   9  11  143.06   54.02
   2   9  11   39.16   38.29
   2   9  12   43.20   42.20
   2   9  12   89.18   56.73
   2  10  -5  228.42   57.26
   2  10  -4   70.66   35.96
   2  10  -3  183.74   55.66
   2  10  -2  677.77   85.15
   2  10  -1  137.04   42.31
   2  10   0  610.43   76.01
   2  10   1  143.97   35.68
   2  10   2   70.86   31.48
   2  10   3  412.48   84.62
   2  10   3  402.31   83.14
   2  10   3  542.43   73.28
   2  10   4  115.26   48.58
   2  10   4  200.14   50.80
   2  10   4   80.61   43.05
   2  10   5  151.42   51.54
   2  10   5   46.11   33.68
   2  10   6  599.12  102.85
   2  10   6  856.62  122.41
   2  10   7  338.21   80.10
   2  10   7  112.50   63.60
   2  10   8  101.17   52.84
   2  10   8  150.25   67.73
   2  10   9  304.27   75.30
   2  10   9  294.33   80.24
   2  10  10   89.78   51.32
   2  10  10   64.58   45.84
   2  10  11   35.53   37.02
   2  10  11   64.05   53.44
   2  11  -3  141.71   50.28
   2  11  -2  150.14   47.22
   2  11  -1  307.05   58.98
   2  11   0  216.08   49.97
   2  11   1  201.80   49.03
   2  11   2  132.69   42.56
   2  11   3  118.43   45.15
   2  11   3   34.19   36.51
   2  11   4  172.47   67.65
   2  11   4  151.64   48.28
   2  11   4  -17.71   44.08
   2  11   5  200.22   64.33
   2  11   5  163.56   62.91
   2  11   5  261.39   63.39
   2  11   6  301.75   78.98
   2  11   6  203.68   69.89
   2  11   7  143.78   68.88
   2  11   7  -17.20   40.22
   2  11   8  112.87   61.16
   2  11   8  -18.90   36.48
   2  11   9  125.37   58.77
   2  11   9   22.20   37.49
   2  12   4  139.33   70.30
   2  12   5  181.07   74.43
   2  12   5  142.43   66.23
   2  12   6  283.93   80.19
   2  12   6  211.95   82.30
   2  12   7   92.92   61.92
   2  12   7  121.11   58.67
   3 -10  -2  -12.43   25.64
   3 -10  -1   25.41   24.12
   3 -10   0   34.31   32.93
   3  -9  -3   11.20   17.31
   3  -9  -2    3.66   19.79
   3  -9  -1   14.02   20.23
   3  -9   0   70.60   32.06
   3  -6   4    0.63   23.06
   3  -6   5   -1.84   20.73
   3  -5 -12   64.29   49.81
   3  -5 -11   46.24   47.33
   3  -5  -9   29.12   17.09
   3  -5  -8   20.06   12.89
   3  -5   1   83.88   29.86
   3  -5   2    6.17   20.71
   3  -5   2   17.44   19.93
   3  -5   3   15.25   17.10
   3  -5   3   -8.07   24.95
   3  -5   4  -11.53   20.66
   3  -5   4   -0.08   19.78
   3  -5   5   76.78   27.07
   3  -5   5   92.48   27.99
   3  -5   6   61.38   22.39
   3  -5   6   39.70   25.60
   3  -5  10   57.05   35.96
   3  -4 -12   24.46   64.14
   3  -4 -11  233.58   92.87
   3  -4 -10   33.39   65.57
   3  -4  -9   17.34   34.87
   3  -4  -8  154.05   29.01
   3  -4  -8  307.56   77.61
   3  -4  -7   54.24   17.27
   3  -4  -7   90.01   19.58
   3  -4  -6   86.76   12.54
   3  -4  -6   80.46   11.46
   3  -4  -1  -58.34   35.57
   3  -4   0  -18.94   29.60
   3  -4   0    6.75   19.96
   3  -4   1  114.87   31.31
   3  -4   1  199.15   42.21
   3  -4   2  555.09   64.97
   3  -4   2  538.50   57.53
   3  -4   3   60.04   22.61
   3  -4   3   20.48   19.79
   3  -4   4   43.05   22.22
   3  -4   4    0.55   15.89
   3  -4   5   34.52   18.80
   3  -4   5   17.99   13.28
   3  -4   6  188.63   34.70
   3  -4   7   24.08   16.26
   3  -4   8   14.74   16.49
   3  -4   9  144.85   46.82
   3  -4  10    3.78   26.27
   3  -3 -12  -37.72   50.08
   3  -3 -11  105.19   53.78
   3  -3 -10   32.49   38.00
   3  -3  -9   -4.37   42.29
   3  -3  -8   62.99   50.23
   3  -3  -8   15.10   19.00
   3  -3  -7   73.92   24.48
   3  -3  -7   37.96   34.85
   3  -3  -6  123.60   48.47
   3  -3  -6   77.14   18.78
   3  -3  -5    3.25    5.42
   3  -3  -2  135.11   39.25
   3  -3  -1   38.54   29.36
   3  -3  -1   32.26   25.34
   3  -3   0   56.81   36.52
   3  -3   0   44.01   25.56
   3  -3   1    8.65   24.50
   3  -3   1   16.24   20.05
   3  -3   2  209.58   40.84
   3  -3   2  214.26   33.54
   3  -3   3    3.35   11.68
   3  -3   3   21.47   18.57
   3  -3   4   54.71   14.09
   3  -3   5   26.51   13.70
   3  -3   6  112.64   21.91
   3  -3   7   15.80   13.14
   3  -3   8   40.69   17.55
   3  -3   8   27.88   25.68
   3  -3   9   71.92   28.93
   3  -3  10   47.56   23.98
   3  -3  11   61.55   28.98
   3  -2 -12  -24.63   47.19
   3  -2 -11   88.05   55.70
   3  -2 -10   70.59   56.32
   3  -2  -9   61.10   47.61
   3  -2  -8    7.01   48.89
   3  -2  -8   15.38   19.65
   3  -2  -7   59.21   42.78
   3  -2  -7   13.80   20.00
   3  -2  -6   37.68   18.24
   3  -2  -6   80.65   44.32
   3  -2  -5   71.26   35.97
   3  -2  -5   93.25   20.38
   3  -2  -4   38.28   12.07
   3  -2  -3   59.96   11.05
   3  -2  -2   61.39   33.52
   3  -2  -2   76.23   36.51
   3  -2  -1  -23.62   27.37
   3  -2  -1   33.69   29.12
   3  -2   0   90.76   36.06
   3  -2   0   61.57   27.18
   3  -2   1  -26.21   23.07
   3  -2   1   14.23   14.80
   3  -2   2  204.13   42.69
   3  -2   2  121.44   24.47
   3  -2   3  382.54   30.91
   3  -2   4   83.92   14.16
   3  -2   5   16.56    6.79
   3  -2   6    3.87    7.76
   3  -2   6   -7.45    9.22
   3  -2   7   20.14   10.94
   3  -2   7    7.32   12.54
   3  -2   8   14.66   14.34
   3  -2   8   12.46   13.38
   3  -2   9   -4.89   12.76
   3  -2   9   25.51   19.55
   3  -2  10  206.53   37.72
   3  -2  11   17.48   18.02
   3  -1 -12   15.95   44.14
   3  -1 -11   38.67   52.27
   3  -1 -10  -62.31   38.19
   3  -1  -9   -9.41   34.94
   3  -1  -8  -24.32   42.03
   3  -1  -7  -12.77   18.19
   3  -1  -7   -0.88   32.21
   3  -1  -6  104.44   27.38
   3  -1  -6   65.64   44.96
   3  -1  -5   79.77   42.06
   3  -1  -5   50.97   20.90
   3  -1  -4  -15.66   29.86
   3  -1  -4    1.88   12.35
   3  -1  -3   18.47   11.65
   3  -1  -3   27.11   26.73
   3  -1  -2   92.28   42.48
   3  -1  -2   49.00   14.80
   3  -1  -2   53.80   32.16
   3  -1  -1  304.29   33.96
   3  -1  -1  233.71   48.85
   3  -1   0   50.17   24.80
   3  -1   1  107.70   27.03
   3  -1   2   44.71   18.91
   3  -1   7   35.56    9.17
   3  -1   7   30.31    9.09
   3  -1   8   46.63   13.91
   3  -1   8   35.61   13.57
   3  -1   9   21.64   14.65
   3  -1  10   11.19   16.76
   3  -1  11   15.29   19.61
   3   0 -12   40.59   47.41
   3   0 -11    9.32   40.26
   3   0 -10   25.00   39.24
   3   0  -9  212.57   65.02
   3   0  -8   43.07   35.19
   3   0  -7  241.65   61.44
   3   0  -6  136.02   42.14
   3   0  -6  127.35   31.00
   3   0  -5   51.65   32.19
   3   0  -5   12.64   17.48
   3   0  -4  293.86   42.21
   3   0  -4  225.82   48.65
   3   0  -3   21.87   18.76
   3   0  -3   30.29   24.58
   3   0  -2 4139.05  134.84
   3   0  -1  243.07   34.59
   3   0   0 1697.28   86.20
   3   0   4  329.62   50.23
   3   0   5  334.19   51.68
   3   0   7    2.47    4.49
   3   0   8   83.09   16.37
   3   0   9  175.38   27.25
   3   0  10   61.76   21.54
   3   0  11  -14.43   19.91
   3   0  12   31.53   22.62
   3   1 -12   25.90   39.29
   3   1 -11  -44.21   36.59
   3   1 -10   -4.73   38.98
   3   1  -9   60.32   46.27
   3   1  -8   34.31   38.97
   3   1  -7  -11.47   31.89
   3   1  -6   42.04   37.01
   3   1  -5   67.81   31.31
   3   1  -5   88.96   30.75
   3   1  -4   27.61   28.11
   3   1  -4   16.16   22.18
   3   1  -3   35.34   25.13
   3   1  -3   -5.85   23.63
   3   1  -2  295.77   48.11
   3   1  -2  248.19   41.04
   3   1  -1  191.86   36.19
   3   1   0  498.44   54.22
   3   1   1   11.98   20.31
   3   1   4  535.77   56.97
   3   1   5  152.20   34.18
   3   1   6  164.24   42.03
   3   1   6  124.02   15.59
   3   1   7   24.63    9.90
   3   1   8  140.51   24.73
   3   1   9   93.47   21.81
   3   1  10   34.25   16.64
   3   1  11   41.61   26.89
   3   1  12  -27.46   24.55
   3   2 -11   55.54   53.84
   3   2 -10   16.90   38.42
   3   2  -9  229.94   61.13
   3   2  -8   -4.37   33.45
   3   2  -7   95.95   48.67
   3   2  -6   26.58   25.66
   3   2  -5  233.44   46.11
   3   2  -4  195.08   45.25
   3   2  -3   21.93   24.17
   3   2  -3   60.92   28.13
   3   2  -2   64.45   27.27
   3   2  -2   84.30   30.00
   3   2  -1  378.59   50.59
   3   2  -1  299.80   36.36
   3   2   0  198.11   36.27
   3   2   1   66.86   29.23
   3   2   2  135.04   39.72
   3   2   4  104.11   25.58
   3   2   5   15.38   15.97
   3   2   5   15.68   17.80
   3   2   6  175.67   36.68
   3   2   6  134.89   23.68
   3   2   7   18.69   11.40
   3   2   8   37.85   17.38
   3   2   9    9.99   16.67
   3   2  10   47.15   22.63
   3   2  11   49.60   23.26
   3   2  12    5.83   18.12
   3   2  13   19.09   21.50
   3   3 -11   -9.79   36.26
   3   3 -10   38.64   47.41
   3   3  -9   11.30   44.17
   3   3  -8   86.48   45.43
   3   3  -7  -27.61   28.87
   3   3  -6   77.38   39.32
   3   3  -5  100.92   40.36
   3   3  -4   38.47   22.62
   3   3  -3   -4.74   21.42
   3   3  -2   85.66   27.36
   3   3  -1   56.00   20.85
   3   3  -1   51.41   24.70
   3   3   0   23.66   25.70
   3   3   1   49.47   33.79
   3   3   2  -25.22   29.97
   3   3   3   54.00   27.33
   3   3   4   26.97   13.91
   3   3   5  -12.93   16.60
   3   3   5    2.36   17.54
   3   3   6   10.94   13.94
   3   3   6  -16.59   25.49
   3   3   7   30.02   14.86
   3   3   7   30.93   20.61
   3   3   8   62.18   24.20
   3   3   9  -24.10   18.23
   3   3  10   -5.08   19.50
   3   3  11   32.75   27.61
   3   3  12    4.01   20.42
   3   3  13  -31.06   26.24
   3   4 -10   30.82   46.56
   3   4  -9   44.55   46.38
   3   4  -8   79.40   44.72
   3   4  -7   45.21   35.31
   3   4  -6  333.10   66.58
   3   4  -5  623.42   77.45
   3   4  -4   27.33   28.26
   3   4  -3   24.79   23.98
   3   4  -2    8.72   19.11
   3   4  -1   26.39   14.24
   3   4   0  281.61   27.36
   3   4   4  188.11   36.65
   3   4   4  144.67   22.68
   3   4   5    1.74   22.24
   3   4   5   44.74   18.70
   3   4   6   16.23   18.48
   3   4   6   -5.99   14.19
   3   4   7   91.20   30.39
   3   4   7   27.83   23.85
   3   4   8  372.88   62.93
   3   4   8  493.41   58.88
   3   4   9   46.39   23.61
   3   4   9   -6.89   21.40
   3   4  10   36.42   27.43
   3   4  10  -19.67   24.13
   3   4  11   61.77   31.57
   3   4  11   34.06   29.86
   3   4  12   78.57   34.15
   3   4  13   63.96   35.36
   3   4  14  -83.16   38.58
   3   5 -10   90.14   60.09
   3   5  -9  -47.90   43.72
   3   5  -8   57.74   46.32
   3   5  -7  -17.50   31.99
   3   5  -6    1.68   30.22
   3   5  -5   63.47   36.67
   3   5  -4   16.14   26.65
   3   5  -3   36.07   21.28
   3   5  -2   -5.33   15.45
   3   5  -1    6.79   17.55
   3   5   0   26.16   10.24
   3   5   4   82.37   27.49
   3   5   4   47.85   11.30
   3   5   5  -11.60   20.00
   3   5   5   23.45   14.67
   3   5   6   60.28   32.80
   3   5   6    8.78   18.30
   3   5   7   36.12   26.27
   3   5   7  -11.20   27.93
   3   5   7  -16.32   20.12
   3   5   8    8.72   19.86
   3   5   8    7.68   27.82
   3   5   9   51.87   27.47
   3   5   9   54.14   33.11
   3   5  10   42.06   29.71
   3   5  10   44.91   27.72
   3   5  11    0.94   28.28
   3   5  11  -30.19   35.47
   3   5  12  -22.25   29.66
   3   5  12  -19.15   27.93
   3   5  13   -7.52   24.67
   3   5  13   54.70   34.66
   3   5  14  -56.65   31.45
   3   6  -9  139.28   54.27
   3   6  -8   88.19   52.55
   3   6  -7  -54.45   36.49
   3   6  -6   57.28   42.32
   3   6  -5  314.48   56.16
   3   6  -4   29.87   29.10
   3   6  -3   -4.80   27.17
   3   6  -2  -31.90   23.89
   3   6  -1  115.91   24.13
   3   6   0   37.09   13.83
   3   6   4  181.85   41.79
   3   6   4  135.21   17.61
   3   6   5   12.34   12.16
   3   6   5   44.77   28.93
   3   6   6  109.76   26.73
   3   6   6   89.37   31.82
   3   6   6  136.37   42.76
   3   6   7   17.05   17.11
   3   6   7   -5.23   21.19
   3   6   7   54.82   37.66
   3   6   8  189.25   48.55
   3   6   8  102.07   37.21
   3   6   9   43.43   23.63
   3   6   9   62.81   38.57
   3   6  10  120.16   40.87
   3   6  10   73.19   42.83
   3   6  11   15.93   22.41
   3   6  11    5.38   27.13
   3   6  12   24.10   27.46
   3   6  12  -12.08   31.10
   3   6  13   44.91   26.02
   3   6  13   72.73   38.26
   3   6  14  -42.23   36.03
   3   6  14   18.22   24.70
   3   7  -8   36.37   40.36
   3   7  -7   41.67   38.53
   3   7  -6   49.13   39.47
   3   7  -5   84.37   36.94
   3   7  -4   68.43   31.13
   3   7  -3  -14.62   22.44
   3   7  -2    6.61   18.46
   3   7  -1   -1.72   18.99
   3   7   0   76.69   18.14
   3   7   1   74.97   14.90
   3   7   4   36.84   11.35
   3   7   4   28.95   11.45
   3   7   5   75.23   39.53
   3   7   5    9.89   10.01
   3   7   6   98.74   39.62
   3   7   6   48.54   20.69
   3   7   6    1.32   35.80
   3   7   7  -26.74   30.40
   3   7   7   -3.29   15.63
   3   7   7  -11.21   34.15
   3   7   8   56.64   29.69
   3   7   8   21.02   36.82
   3   7   9    6.83   24.67
   3   7   9    8.46   31.19
   3   7  10   24.62   29.04
   3   7  10   16.14   35.27
   3   7  11  -12.24   33.55
   3   7  11    5.07   33.00
   3   7  12   23.81   27.92
   3   7  12   18.12   29.32
   3   7  13   29.22   27.97
   3   7  13   41.77   37.79
   3   8  -7    7.97   35.04
   3   8  -6   14.41   26.61
   3   8  -5   22.89   26.74
   3   8  -4  -29.99   26.88
   3   8  -3   33.01   24.91
   3   8  -2   46.04   24.12
   3   8  -1   19.15   16.68
   3   8   0  119.97   23.69
   3   8   1    7.08   10.25
   3   8   2   40.22   12.00
   3   8   2   27.28    9.65
   3   8   3   22.60   10.37
   3   8   3   17.57    8.43
   3   8   4  100.21   18.31
   3   8   4  119.75   48.77
   3   8   4   77.68   18.05
   3   8   5   46.57   34.14
   3   8   5   54.32   16.06
   3   8   6    2.09   28.68
   3   8   6  -11.91   15.59
   3   8   6   22.61   33.13
   3   8   7  -16.42   29.84
   3   8   7   22.41   39.99
   3   8   8   97.07   39.68
   3   8   8   75.76   39.36
   3   8   9  -18.63   25.88
   3   8   9   62.73   42.33
   3   8  10   -9.38   30.55
   3   8  10  -33.60   37.65
   3   8  11   78.38   38.44
   3   8  11   41.62   41.89
   3   8  12  122.78   50.67
   3   8  12   36.43   43.34
   3   8  13  -15.21   28.01
   3   8  13   13.80   35.38
   3   9  -6  -88.49   41.90
   3   9  -5   75.53   41.06
   3   9  -4   25.74   26.19
   3   9  -3  -10.67   30.79
   3   9  -2   20.46   25.32
   3   9  -1  -32.45   20.69
   3   9   0   22.23   17.04
   3   9   1   -3.19   13.58
   3   9   2    3.27   12.31
   3   9   3   -9.91   10.09
   3   9   4   16.95   13.07
   3   9   5  -47.38   49.12
   3   9   6   25.11   32.82
   3   9   6  -19.21   37.42
   3   9   7    8.19   29.06
   3   9   7    3.97   40.53
   3   9   8  -29.97   45.72
   3   9   8   35.47   34.13
   3   9   9   28.38   31.80
   3   9   9   20.36   34.20
   3   9  10   37.39   34.41
   3   9  10   14.46   33.40
   3   9  11   -0.10   36.35
   3   9  11    7.09   32.52
   3   9  12   18.61   33.33
   3   9  12   28.72   35.69
   3  10   5   69.85   43.45
   3  10   6   67.18   48.00
   3  10   6   49.95   48.17
   3  10   7  -39.73   42.33
   3  10   7   17.34   42.11
   3  10   8   38.49   44.28
   3  10   8   33.37   40.10
   3  10   9   38.61   35.77
   3  10   9  -47.26   50.83
   3  10  10  -14.62   35.49
   3  10  10    1.47   39.99
   3  10  11  -70.56   46.16
   3  10  11  -25.18   35.40
   3  11   6   50.81   41.19
   3  11   7    2.76   32.70
   3  11   7   45.74   50.51
   3  11   8  -60.84   57.78
   3  11   8    7.71   46.24
   3  11   9   79.25   37.83
   3  11   9 -102.07   60.71
   4  -5   2  626.52   70.54
   4  -5   3  423.23   59.93
   4  -5   4  555.37   71.51
   4  -5   4  522.82   59.24
   4  -5   5  304.04   47.94
   4  -5   5  320.03   44.41
   4  -5   6  311.51   42.16
   4  -4   1 1685.75  114.65
   4  -4   2 1821.12  108.85
   4  -4   3  849.92   91.50
   4  -4   3  692.95   64.27
   4  -4   4  352.81   59.87
   4  -4   4  331.80   40.87
   4  -4   5  533.86   45.93
   4  -4   6  175.97   26.66
   4  -4   7  232.64   30.23
   4  -4   8  508.00   50.77
   4  -3 -11   84.01   45.37
   4  -3 -10  278.59   74.06
   4  -3  -9  685.45  114.69
   4  -3  -7  411.09   39.60
   4  -3  -6  260.16   23.48
   4  -3   0 2499.03  142.89
   4  -3   1 2426.83  124.71
   4  -3   2 2344.57  148.92
   4  -3   2 2108.09  110.77
   4  -3   3  833.12   61.19
   4  -3   4  375.61   36.98
   4  -3   5  284.32   29.71
   4  -3   6   55.87   10.63
   4  -2 -11  289.67   88.56
   4  -2 -10  319.20   81.31
   4  -2  -9  252.23   79.85
   4  -2  -8 1330.60  149.44
   4  -2  -7  378.86   76.19
   4  -2  -7  258.73   39.39
   4  -2  -6  529.16   49.81
   4  -2  -5  943.67   57.48
   4  -2  -4  222.95   24.57
   4  -2  -1 2824.66  168.71
   4  -2   0 2631.37  143.67
   4  -2   1 2491.70  127.84
   4  -2   2 3033.74  125.31
   4  -2   3 2330.68   96.65
   4  -1 -11  343.87   91.39
   4  -1 -10  318.70   85.25
   4  -1  -9  278.41   78.26
   4  -1  -8  412.71   84.01
   4  -1  -7  385.01   79.74
   4  -1  -7  202.62   41.60
   4  -1  -6  359.09   48.58
   4  -1  -6  592.64   86.14
   4  -1  -5  687.56   64.16
   4  -1  -5  816.90   98.88
   4  -1  -4 1019.11   70.31
   4  -1  -3 1281.84   74.64
   4  -1  -2 1500.03   82.03
   4   0 -11  478.75  103.18
   4   0 -10  535.03  106.12
   4   0  -9  549.84  100.15
   4   0  -8  290.59   79.23
   4   0  -7  302.50   70.79
   4   0  -6  539.72   85.91
   4   0  -5 1316.57   98.82
   4   0  -5 1543.89  128.74
   4   0  -4  752.44   71.12
   4   0  -4  867.35   91.38
   4   0  -3 3253.68  139.26
   4   0  -2 2574.83  119.30
   4   0  -1  736.20   64.34
   4   0   0 2241.59  116.35
   4   1 -11  373.25   91.86
   4   1 -10  366.69   97.36
   4   1  -9  337.58   83.54
   4   1  -8  446.67   84.13
   4   1  -7  359.24   83.12
   4   1  -6  374.39   69.39
   4   1  -5  573.69   81.62
   4   1  -4  872.41   87.40
   4   1  -4  903.67   91.07
   4   1  -3 1471.78  106.88
   4   1  -3 1438.14  108.51
   4   1  -2 1657.76  109.77
   4   1  -1 1433.65   98.61
   4   1   0 1734.56  114.83
   4   1   1 2320.50  135.05
   4   1   6 1604.52  121.82
   4   2 -11  136.12   62.71
   4   2 -10  281.07   81.95
   4   2  -9  427.46   90.46
   4   2  -8  546.95   92.38
   4   2  -7 1263.21  129.88
   4   2  -6  290.02   58.08
   4   2  -5  700.40   89.22
   4   2  -4  760.75   81.47
   4   2  -3  571.26   64.69
   4   2  -2  867.03   91.12
   4   2  -1 2822.20  151.88
   4   2   0 3857.56  178.91
   4   2   1 1027.36   92.27
   4   2   2 4266.86  200.09
   4   2   6  583.34   70.33
   4   2   9  134.97   19.91
   4   2  10  651.57   46.94
   4   2  11  342.35   38.40
   4   3 -10  158.10   59.61
   4   3  -9  244.40   67.12
   4   3  -8  366.10   77.02
   4   3  -7  705.34   98.37
   4   3  -6  636.92   89.49
   4   3  -5  445.94   67.28
   4   3  -4  237.73   42.34
   4   3  -3  435.66   56.57
   4   3  -2  452.10   55.97
   4   3   6  439.12   54.88
   4   3   7  238.12   44.23
   4   3   8  323.84   38.79
   4   3   9  343.64   40.24
   4   3  10  708.68   59.83
   4   3  11  507.48   53.57
   4   3  12  282.39   42.16
   4   4 -10  265.60   78.62
   4   4  -9  255.27   71.09
   4   4  -8  291.55   73.39
   4   4  -7  341.72   72.07
   4   4  -6  459.58   73.89
   4   4  -5  488.61   71.76
   4   4  -4 1220.03  101.66
   4   4  -3   42.47   26.82
   4   4  -2 1845.00  104.12
   4   4   6  240.38   38.99
   4   4   7  341.16   51.83
   4   4   7  509.08   56.04
   4   4   8  338.44   48.79
   4   4   9  643.99   63.86
   4   4  10  624.38   63.83
   4   4  11  329.20   51.01
   4   4  12  386.37   53.97
   4   5  -9   -8.02   39.22
   4   5  -8   48.22   30.84
   4   5  -7  150.14   50.68
   4   5  -6  131.58   44.02
   4   5  -5  335.08   61.71
   4   5  -4  519.29   65.08
   4   5  -3  384.04   54.67
   4   5  -2  470.56   49.26
   4   5  -1  330.11   37.54
   4   5   6  354.49   40.93
   4   5   7  469.59   55.08
   4   5   7  760.82   75.77
   4   5   8  245.41   44.58
   4   5   8  461.53   60.47
   4   5   9  383.42   56.05
   4   5  10  399.93   58.35
   4   5  11  102.01   34.28
   4   5  12  203.42   44.82
   4   6  -8  240.49   59.95
   4   6  -7  156.87   59.38
   4   6  -6  512.00   82.39
   4   6  -5  148.19   37.84
   4   6  -4  274.77   51.99
   4   6  -3 1567.26  101.82
   4   6  -2  -11.40   17.72
   4   6  -1  890.65   55.15
   4   6   6  216.98   26.04
   4   6   7  210.43   32.05
   4   6   7  472.77   66.44
   4   6   8  867.56   89.98
   4   6   8  536.60   60.99
   4   6   9  387.59   63.80
   4   6  10  158.44   46.71
   4   6  11  313.84   60.56
   4   6  12   93.37   35.50
   4   6  13   96.24   34.28
   4   7  -7   40.50   35.81
   4   7  -6   64.48   32.67
   4   7  -5   30.02   25.76
   4   7  -4  151.84   39.61
   4   7  -3  230.79   42.80
   4   7  -2  311.78   40.84
   4   7  -1  380.51   35.12
   4   7   6  154.65   17.07
   4   7   7  272.34   33.98
   4   7   7  632.49   83.85
   4   7   8  625.17   84.21
   4   7   9  302.10   60.36
   4   7  10  185.56   47.23
   4   7  11  185.73   53.16
   4   7  12   68.37   37.96
   4   7  13  111.05   41.22
   4   8  -6   90.30   39.88
   4   8  -5  168.66   49.70
   4   8  -4   52.89   33.08
   4   8  -3  110.36   36.33
   4   8  -2  215.97   34.61
   4   8  -1  329.23   33.46
   4   8   7  282.17   61.93
   4   8   8  183.32   53.74
   4   8   9  137.71   50.40
   4   8  10  114.82   46.87
   4   8  11  212.87   61.01
   4   8  12   98.79   42.94
   4   9   7  134.28   52.05
   4   9   8   95.10   41.83
   4   9   9   24.70   30.63
   4   9  10   76.17   43.16
   4   9  11  179.38   60.10
   4  10   8   96.35   54.87
   4  10   9  131.41   56.04
   4  10  10   70.95   46.50
   5  -5   3  -27.85   24.31
   5  -4   2   69.70   27.99
   5  -4   3   36.61   22.43
   5  -4   4   10.71   16.14
   5  -4   5   -6.39   16.60
   5  -3   1   23.86   27.89
   5  -3   2   97.47   34.28
   5  -3   3   36.77   17.45
   5  -3   4   14.74   15.01
   5  -2  -5   31.32   13.32
   5  -1 -10    7.96   44.97
   5  -1  -9  104.87   54.78
   5  -1  -8   51.13   43.32
   5  -1  -5   29.25   18.50
   5  -1  -4    3.34   16.08
   5  -1  -3   33.18   17.81
   5   0 -10   27.31   43.85
   5   0  -9  111.11   65.90
   5   0  -8   19.81   32.25
   5   0  -7  -15.26   32.05
   5   0  -5   53.38   31.41
   5   0  -4    9.97   21.01
   5   0  -3   78.65   24.91
   5   0  -2   -2.38   19.96
   5   0  -1  153.21   39.31
   5   1 -10  -79.41   56.94
   5   1  -9   93.00   57.14
   5   1  -8   -6.41   30.99
   5   1  -7   28.28   49.29
   5   1  -6  -52.28   37.72
   5   1  -5   23.37   29.55
   5   1  -2    7.08   20.45
   5   1  -1   19.96   22.79
   5   1   0   11.98   25.84
   5   2  -9  103.96   61.04
   5   2  -8  185.04   70.26
   5   2  -7   34.03   44.49
   5   2  -6   24.25   28.01
   5   2  -5   -9.61   27.62
   5   2  -4   66.48   34.85
   5   3  -9   12.03   44.78
   5   3  -8   45.35   47.66
   5   3  -7  -72.75   54.73
   5   3  -6  -58.81   28.67
   5   3  -5   43.60   35.39
   5   3  -4    2.03   25.38
   5   4  -8   60.32   37.55
   5   4  -7   22.98   35.18
   5   4  -6   66.83   43.72
   5   4  -5   99.62   39.91
   5   4  -4  -18.36   28.95
   5   4  -3   40.42   25.08
   5   5  -8   77.16   51.55
   5   5  -7    0.71   31.48
   5   5  -6  -37.51   29.63
   5   5  -5    5.14   24.68
   5   5  -4    1.02   21.97
   5   5  -3   15.80   22.05
   5   6  -7   65.60   34.93
   5   6  -6   57.09   31.70
   5   6  -5   22.38   26.91
   5   6  -4  -23.27   24.89
   5   6  -3  -75.33   34.03
   5   6  11    0.26   20.86
   5   7  11    0.82   24.79
   5   8  11   30.70   30.40
   6   0  -2 1413.11  112.45
   6   2  -8  192.42   64.32
   6   3  -7  160.74   55.92
   6   4  -7  462.03   82.48
   6   4  -6  308.77   69.44
   6   5  -6  251.00   63.27
   6   5  -5  188.82   50.87
   0   0   0    0.00    0.00


TITL C1_JH_PDG_47_2 in P1
REM P1 (#1 in standard setting)
CELL 0.71073   7.237151  10.159593  11.864451  77.8151  78.7482  85.7726
ZERR    4.00   0.000402   0.000827   0.000827   0.0065   0.0053   0.0055
LATT -1
SFAC C H N O
UNIT 44.00 40.00 4.00 4.00
TREF
HKLF 4
END
_computing_structure_solution     'SHELXT 2014/5 (Sheldrick, 2014)'
;
_shelx_hkl_checksum              94983
_shelx_fab_file
;
    9    2    3     -0.90      0.00
    9    1    4      0.36      0.00
    9    1    3      0.55      0.00
    9    1    2     -0.23      0.00
    9    0    3      0.54      0.00
    9    0    2      2.03      0.00
    8    6    6      0.52      0.00
    8    6    5      0.00      0.00
    8    6    4     -1.17      0.00
    8    6    3     -1.66      0.00
    8    6    2     -0.36      0.00
    8    6    1      1.66      0.00
    8    5    8     -1.20      0.00
    8    5    7     -0.77      0.00
    8    5    6      0.07      0.00
    8    5    5      0.68      0.00
    8    5    4      1.11      0.00
    8    5    3      1.34      0.00
    8    5    2      0.48      0.00
    8    5    1     -1.54      0.00
    8    5    0     -2.81      0.00
   -8   -5    1     -2.09      0.00
    8    4    8      0.89      0.00
    8    4    7      0.01      0.00
    8    4    6     -0.62      0.00
    8    4    5     -0.07      0.00
    8    4    4      0.39      0.00
    8    4    3     -0.39      0.00
    8    4    2     -0.91      0.00
    8    4    1      0.43      0.00
    8    4    0      2.17      0.00
   -8   -4    1      1.97      0.00
   -8   -4    2      0.19      0.00
    8    3    9     -0.53      0.00
    8    3    8     -0.03      0.00
    8    3    7      0.86      0.00
    8    3    6      0.62      0.00
    8    3    5     -0.80      0.00
    8    3    4     -1.11      0.00
    8    3    3      0.13      0.00
    8    3    2      0.55      0.00
    8    3    1     -0.67      0.00
    8    3    0     -1.66      0.00
   -8   -3    1     -1.23      0.00
   -8   -3    2     -0.11      0.00
   -8   -3    3      0.54      0.00
    8    2    9     -0.51      0.00
    8    2    8     -0.33      0.00
    8    2    7      0.08      0.00
    8    2    6      0.51      0.00
    8    2    5      0.49      0.00
    8    2    4     -0.33      0.00
    8    2    3     -0.77      0.00
    8    2    2      0.42      0.00
    8    2    1      2.01      0.00
    8    2    0      1.83      0.00
   -8   -2    1      0.19      0.00
   -8   -2    2     -0.51      0.00
   -8   -2    3      0.63      0.00
    8    1    9     -0.03      0.00
    8    1    8     -0.35      0.00
    8    1    7     -0.91      0.00
    8    1    6     -0.90      0.00
    8    1    5      0.36      0.00
    8    1    4      1.31      0.00
    8    1    3      0.17      0.00
    8    1    2     -1.65      0.00
    8    1    1     -2.00      0.00
    8    1    0     -1.16      0.00
   -8   -1    1     -0.29      0.00
   -8   -1    2      0.01      0.00
   -8   -1    3     -0.89      0.00
   -8   -1    4     -2.16      0.00
    8    0    8      0.90      0.00
    8    0    7      0.57      0.00
    8    0    6     -0.60      0.00
    8    0    5     -1.57      0.00
    8    0    4     -0.56      0.00
    8    0    3      1.91      0.00
    8    0    2      2.54      0.00
    8    0    1      0.52      0.00
    8    0    0     -0.74      0.00
   -8    0    1      0.80      0.00
   -8    0    2      2.72      0.00
   -8    0    3      2.38      0.00
   -8    0    4      0.64      0.00
    8   -1    8      0.90      0.00
    8   -1    7      0.74      0.00
    8   -1    6      1.51      0.00
    8   -1    5      1.61      0.00
    8   -1    4     -0.41      0.00
    8   -1    3     -2.32      0.00
    8   -1    2     -1.66      0.00
    8   -1    1      0.17      0.00
   -8    1    0      0.57      0.00
   -8    1    1     -0.82      0.00
   -8    1    2     -2.69      0.00
   -8    1    3     -3.12      0.00
   -8    1    4     -1.26      0.00
    8   -2    7     -1.68      0.00
    8   -2    6     -1.26      0.00
    8   -2    5      0.03      0.00
    8   -2    4      1.14      0.00
    8   -2    3      0.61      0.00
    8   -2    2     -0.41      0.00
    8   -2    1      0.45      0.00
   -8    2    0      2.22      0.00
   -8    2    1      1.95      0.00
   -8    2    2      0.16      0.00
   -8    2    3     -0.10      0.00
    8   -3    6      0.22      0.00
    8   -3    5     -0.93      0.00
    8   -3    4     -1.03      0.00
    8   -3    3      0.49      0.00
    8   -3    2      0.84      0.00
    8   -3    1     -1.07      0.00
   -8    3    0     -2.69      0.00
   -8    3    1     -2.03      0.00
   -8    3    2     -0.10      0.00
   -8    3    3      0.90      0.00
    8   -4    5      0.67      0.00
    8   -4    4      0.39      0.00
    8   -4    3     -0.12      0.00
    8   -4    2      0.01      0.00
    8   -4    1      0.39      0.00
   -8    4    0      0.01      0.00
   -8    4    1     -0.31      0.00
   -8    4    2      0.64      0.00
    8   -5    2      0.20      0.00
    8   -5    1      1.53      0.00
    7    8    7     -3.16      0.00
    7    8    6     -3.65      0.00
    7    8    5     -3.07      0.00
    7    8    4     -3.14      0.00
    7    8    3     -3.43      0.00
    7    8    2     -2.36      0.00
    7    8    1     -0.27      0.00
    7    7    9     -2.28      0.00
    7    7    8     -0.34      0.00
    7    7    7      2.39      0.00
    7    7    6      3.19      0.00
    7    7    5      3.29      0.00
    7    7    4      4.30      0.00
    7    7    3      4.40      0.00
    7    7    2      1.89      0.00
    7    7    1     -1.05      0.00
    7    7    0     -1.68      0.00
   -7   -7    1     -0.59      0.00
    7    6   10      1.66      0.00
    7    6    9      2.50      0.00
    7    6    8      1.60      0.00
    7    6    7     -0.13      0.00
    7    6    6     -1.44      0.00
    7    6    5     -2.35      0.00
    7    6    4     -2.93      0.00
    7    6    3     -2.37      0.00
    7    6    2     -0.34      0.00
    7    6    1      1.83      0.00
    7    6    0      2.46      0.00
   -7   -6    1      1.26      0.00
   -7   -6    2     -1.01      0.00
   -7   -6    3     -2.91      0.00
    7    5   10     -0.56      0.00
    7    5    9     -1.43      0.00
    7    5    8     -0.81      0.00
    7    5    7      0.14      0.00
    7    5    6      0.38      0.00
    7    5    5      0.04      0.00
    7    5    4      0.11      0.00
    7    5    3      0.73      0.00
    7    5    2      0.39      0.00
    7    5    1     -1.46      0.00
    7    5    0     -2.69      0.00
   -7   -5    1     -1.33      0.00
   -7   -5    2      1.62      0.00
   -7   -5    3      3.57      0.00
   -7   -5    4      3.27      0.00
    7    4   11     -1.17      0.00
    7    4   10     -0.51      0.00
    7    4    9     -0.79      0.00
    7    4    8     -1.89      0.00
    7    4    7     -2.10      0.00
    7    4    6     -0.11      0.00
    7    4    5      2.45      0.00
    7    4    4      2.26      0.00
    7    4    3     -0.63      0.00
    7    4    2     -2.10      0.00
    7    4    1     -0.12      0.00
    7    4    0      2.14      0.00
   -7   -4    1      1.17      0.00
   -7   -4    2     -1.61      0.00
   -7   -4    3     -2.43      0.00
   -7   -4    4     -1.13      0.00
   -7   -4    5     -0.66      0.00
    7    3   11     -0.68      0.00
    7    3   10      0.59      0.00
    7    3    9      2.05      0.00
    7    3    8      2.84      0.00
    7    3    7      2.24      0.00
    7    3    6     -0.18      0.00
    7    3    5     -2.58      0.00
    7    3    4     -2.30      0.00
    7    3    3     -0.09      0.00
    7    3    2      0.96      0.00
    7    3    1      0.07      0.00
    7    3    0     -0.91      0.00
   -7   -3    1     -0.62      0.00
   -7   -3    2      0.28      0.00
   -7   -3    3      0.25      0.00
   -7   -3    4     -0.70      0.00
   -7   -3    5     -0.84      0.00
    7    2   11      1.50      0.00
    7    2   10     -0.75      0.00
    7    2    9     -1.76      0.00
    7    2    8     -0.68      0.00
    7    2    7      0.69      0.00
    7    2    6      0.92      0.00
    7    2    5      0.35      0.00
    7    2    4      0.35      0.00
    7    2    3      1.57      0.00
    7    2    2      2.66      0.00
    7    2    1      1.94      0.00
    7    2    0      0.06      0.00
   -7   -2    1     -0.68      0.00
   -7   -2    2      0.69      0.00
   -7   -2    3      2.34      0.00
   -7   -2    4      1.90      0.00
   -7   -2    5     -0.08      0.00
   -7   -2    6     -0.83      0.00
    7    1   11     -0.71      0.00
    7    1   10     -0.04      0.00
    7    1    9     -0.01      0.00
    7    1    8     -1.07      0.00
    7    1    7     -2.07      0.00
    7    1    6     -1.31      0.00
    7    1    5      0.23      0.00
    7    1    4     -0.37      0.00
    7    1    3     -2.80      0.00
    7    1    2     -3.51      0.00
    7    1    1     -1.67      0.00
    7    1    0      0.19      0.00
   -7   -1    1      0.60      0.00
   -7   -1    2     -0.15      0.00
   -7   -1    3     -1.24      0.00
   -7   -1    4     -1.00      0.00
   -7   -1    5      0.99      0.00
   -7   -1    6      2.21      0.00
    7    0   11     -1.49      0.00
    7    0   10     -0.69      0.00
    7    0    9      0.82      0.00
    7    0    8      1.54      0.00
    7    0    7      1.22      0.00
    7    0    6      0.66      0.00
    7    0    5      1.20      0.00
    7    0    4      3.07      0.00
    7    0    3      3.79      0.00
    7    0    2      1.55      0.00
    7    0    1     -0.97      0.00
    7    0    0     -0.53      0.00
   -7    0    1      1.31      0.00
   -7    0    2      0.87      0.00
   -7    0    3     -1.78      0.00
   -7    0    4     -3.36      0.00
   -7    0    5     -2.38      0.00
   -7    0    6     -0.85      0.00
    7   -1   10      3.16      0.00
    7   -1    9      2.64      0.00
    7   -1    8      0.61      0.00
    7   -1    7     -0.80      0.00
    7   -1    6     -1.25      0.00
    7   -1    5     -2.36      0.00
    7   -1    4     -3.67      0.00
    7   -1    3     -2.86      0.00
    7   -1    2     -0.38      0.00
    7   -1    1      0.89      0.00
   -7    1    0      0.18      0.00
   -7    1    1     -1.04      0.00
   -7    1    2     -1.17      0.00
   -7    1    3      0.71      0.00
   -7    1    4      3.16      0.00
   -7    1    5      2.96      0.00
   -7    1    6      0.28      0.00
    7   -2   10     -2.03      0.00
    7   -2    9     -3.95      0.00
    7   -2    8     -3.80      0.00
    7   -2    7     -1.56      0.00
    7   -2    6      0.88      0.00
    7   -2    5      2.08      0.00
    7   -2    4      1.49      0.00
    7   -2    3      0.20      0.00
    7   -2    2      0.39      0.00
    7   -2    1      1.72      0.00
   -7    2    0      1.19      0.00
   -7    2    1     -1.27      0.00
   -7    2    2     -1.92      0.00
   -7    2    3      0.51      0.00
   -7    2    4      2.68      0.00
   -7    2    5      1.98      0.00
   -7    2    6     -0.05      0.00
    7   -3    9      0.66      0.00
    7   -3    8      2.66      0.00
    7   -3    7      3.88      0.00
    7   -3    6      2.88      0.00
    7   -3    5      1.20      0.00
    7   -3    4      0.75      0.00
    7   -3    3      0.52      0.00
    7   -3    2     -0.85      0.00
    7   -3    1     -1.77      0.00
   -7    3    0     -0.51      0.00
   -7    3    1      1.66      0.00
   -7    3    2      2.25      0.00
   -7    3    3      0.07      0.00
   -7    3    4     -3.62      0.00
   -7    3    5     -4.99      0.00
   -7    3    6     -1.91      0.00
    7   -4    8     -1.16      0.00
    7   -4    7     -3.63      0.00
    7   -4    6     -5.06      0.00
    7   -4    5     -4.13      0.00
    7   -4    4     -1.77      0.00
    7   -4    3      0.34      0.00
    7   -4    2      0.74      0.00
    7   -4    1     -0.75      0.00
   -7    4    0     -1.84      0.00
   -7    4    1     -0.52      0.00
   -7    4    2      1.66      0.00
   -7    4    3      2.17      0.00
   -7    4    4      1.50      0.00
   -7    4    5      1.15      0.00
   -7    4    6      0.73      0.00
    7   -5    7      4.01      0.00
    7   -5    6      4.25      0.00
    7   -5    5      2.95      0.00
    7   -5    4      1.02      0.00
    7   -5    3      0.13      0.00
    7   -5    2      1.11      0.00
    7   -5    1      2.26      0.00
   -7    5    0      1.37      0.00
   -7    5    1     -1.04      0.00
   -7    5    2     -2.80      0.00
   -7    5    3     -3.03      0.00
   -7    5    4     -1.82      0.00
   -7    5    5      0.19      0.00
    7   -6    5     -0.78      0.00
    7   -6    4     -0.16      0.00
    7   -6    3     -1.24      0.00
    7   -6    2     -2.40      0.00
    7   -6    1     -1.81      0.00
   -7    6    0      0.35      0.00
   -7    6    1      1.80      0.00
   -7    6    2      1.33      0.00
   -7    6    3      0.57      0.00
   -7    6    4      0.82      0.00
    7   -7    2      0.95      0.00
    7   -7    1      0.63      0.00
   -7    7    0      0.29      0.00
   -7    7    1      0.07      0.00
    6   10    5      1.92      0.00
    6   10    4      3.09      0.00
    6   10    3      1.96      0.00
    6    9    8     -2.22      0.00
    6    9    7      0.67      0.00
    6    9    6      1.75      0.00
    6    9    5     -0.89      0.00
    6    9    4     -3.36      0.00
    6    9    3     -2.62      0.00
    6    9    2     -1.02      0.00
    6    9    1     -1.20      0.00
    6    9    0     -1.73      0.00
   -6   -9    1     -0.88      0.00
    6    8   10      0.96      0.00
    6    8    9      2.96      0.00
    6    8    8      2.56      0.00
    6    8    7      1.05      0.00
    6    8    6      0.37      0.00
    6    8    5      0.65      0.00
    6    8    4      1.37      0.00
    6    8    3      2.30      0.00
    6    8    2      2.74      0.00
    6    8    1      2.13      0.00
    6    8    0      1.35      0.00
   -6   -8    1      1.47      0.00
   -6   -8    2      1.59      0.00
   -6   -8    3      0.29      0.00
    6    7   11      2.56      0.00
    6    7   10     -0.36      0.00
    6    7    9     -2.75      0.00
    6    7    8     -2.48      0.00
    6    7    7     -1.90      0.00
    6    7    6     -1.97      0.00
    6    7    5     -1.17      0.00
    6    7    4     -0.23      0.00
    6    7    3     -1.10      0.00
    6    7    2     -2.57      0.00
    6    7    1     -2.53      0.00
    6    7    0     -1.99      0.00
   -6   -7    1     -2.29      0.00
   -6   -7    2     -1.96      0.00
   -6   -7    3     -0.21      0.00
   -6   -7    4      0.56      0.00
    6    6   11     -2.02      0.00
    6    6   10     -0.76      0.00
    6    6    9      1.95      0.00
    6    6    8      3.55      0.00
    6    6    7      2.97      0.00
    6    6    6      1.29      0.00
    6    6    5      0.25      0.00
    6    6    4      0.28      0.00
    6    6    3      0.48      0.00
    6    6    2      0.53      0.00
    6    6    1      1.18      0.00
    6    6    0      2.45      0.00
   -6   -6    1      2.66      0.00
   -6   -6    2      0.85      0.00
   -6   -6    3     -0.63      0.00
   -6   -6    4      0.74      0.00
   -6   -6    5      2.91      0.00
    6    5   12      0.86      0.00
    6    5   11      0.84      0.00
    6    5   10      0.42      0.00
    6    5    9     -1.13      0.00
    6    5    8     -3.10      0.00
    6    5    7     -3.13      0.00
    6    5    6     -1.06      0.00
    6    5    5      0.57      0.00
    6    5    4      0.94      0.00
    6    5    3      1.24      0.00
    6    5    2      1.12      0.00
    6    5    1     -0.39      0.00
    6    5    0     -1.85      0.00
   -6   -5    1     -1.23      0.00
   -6   -5    2      0.38      0.00
   -6   -5    3      0.34      0.00
   -6   -5    4     -1.34      0.00
   -6   -5    5     -2.45      0.00
   -6   -5    6     -2.19      0.00
    6    4   12     -0.57      0.00
    6    4   11     -0.27      0.00
    6    4   10     -0.21      0.00
    6    4    9      0.19      0.00
    6    4    8      1.16      0.00
    6    4    7      1.90      0.00
    6    4    6      1.78      0.00
    6    4    5      0.40      0.00
    6    4    4     -2.09      0.00
    6    4    3     -3.71      0.00
    6    4    2     -2.38      0.00
    6    4    1      0.57      0.00
    6    4    0      1.58      0.00
   -6   -4    1     -0.01      0.00
   -6   -4    2     -0.81      0.00
   -6   -4    3      1.09      0.00
   -6   -4    4      2.80      0.00
   -6   -4    5      1.82      0.00
   -6   -4    6      0.49      0.00
   -6   -4    7      1.07      0.00
    6    3   12     -0.70      0.00
    6    3   11      0.26      0.00
    6    3   10      0.91      0.00
    6    3    9      0.10      0.00
    6    3    8     -0.92      0.00
    6    3    7     -1.10      0.00
    6    3    6     -1.05      0.00
    6    3    5     -0.73      0.00
    6    3    4      0.43      0.00
    6    3    3      1.52      0.00
    6    3    2      1.42      0.00
    6    3    1      0.60      0.00
    6    3    0      0.02      0.00
   -6   -3    1     -0.29      0.00
   -6   -3    2     -1.15      0.00
   -6   -3    3     -2.78      0.00
   -6   -3    4     -3.78      0.00
   -6   -3    5     -2.90      0.00
   -6   -3    6     -1.18      0.00
   -6   -3    7     -0.38      0.00
    6    2   12      0.57      0.00
    6    2   11     -1.43      0.00
    6    2   10     -2.03      0.00
    6    2    9      0.08      0.00
    6    2    8      2.16      0.00
    6    2    7      1.57      0.00
    6    2    6     -0.39      0.00
    6    2    5     -0.55      0.00
    6    2    4      1.76      0.00
    6    2    3      3.47      0.00
    6    2    2      1.68      0.00
    6    2    1     -1.87      0.00
    6    2    0     -2.79      0.00
   -6   -2    1      0.24      0.00
   -6   -2    2      4.02      0.00
   -6   -2    3      5.00      0.00
   -6   -2    4      3.32      0.00
   -6   -2    5      2.05      0.00
   -6   -2    6      2.22      0.00
   -6   -2    7      1.68      0.00
   -6   -2    8     -0.27      0.00
    6    1   12      0.70      0.00
    6    1   11      1.34      0.00
    6    1   10      1.19      0.00
    6    1    9      0.57      0.00
    6    1    8     -0.13      0.00
    6    1    7     -0.48      0.00
    6    1    6     -0.43      0.00
    6    1    5     -1.12      0.00
    6    1    4     -3.00      0.00
    6    1    3     -3.55      0.00
    6    1    2     -0.92      0.00
    6    1    1      2.29      0.00
    6    1    0      2.53      0.00
   -6   -1    1     -0.24      0.00
   -6   -1    2     -3.56      0.00
   -6   -1    3     -4.86      0.00
   -6   -1    4     -3.45      0.00
   -6   -1    5     -1.52      0.00
   -6   -1    6     -1.09      0.00
   -6   -1    7     -1.03      0.00
   -6   -1    8      0.13      0.00
    6    0   12     -1.45      0.00
    6    0   11     -0.34      0.00
    6    0   10      1.15      0.00
    6    0    9      0.37      0.00
    6    0    8     -1.61      0.00
    6    0    7     -1.45      0.00
    6    0    6      1.49      0.00
    6    0    5      4.53      0.00
    6    0    4      4.51      0.00
    6    0    3      0.91      0.00
    6    0    2     -2.81      0.00
    6    0    1     -2.85      0.00
    6    0    0      0.01      0.00
   -6    0    1      1.86      0.00
   -6    0    2      1.38      0.00
   -6    0    3      0.87      0.00
   -6    0    4      2.19      0.00
   -6    0    5      3.79      0.00
   -6    0    6      2.78      0.00
   -6    0    7     -0.39      0.00
   -6    0    8     -2.11      0.00
    6   -1   12     -0.14      0.00
    6   -1   11      0.07      0.00
    6   -1   10     -0.26      0.00
    6   -1    9     -0.95      0.00
    6   -1    8     -1.43      0.00
    6   -1    7     -1.73      0.00
    6   -1    6     -2.63      0.00
    6   -1    5     -3.86      0.00
    6   -1    4     -3.33      0.00
    6   -1    3     -0.58      0.00
    6   -1    2      1.55      0.00
    6   -1    1      1.08      0.00
   -6    1    0     -0.71      0.00
   -6    1    1     -1.86      0.00
   -6    1    2     -1.36      0.00
   -6    1    3      0.01      0.00
   -6    1    4     -0.53      0.00
   -6    1    5     -3.54      0.00
   -6    1    6     -4.69      0.00
   -6    1    7     -1.30      0.00
   -6    1    8      2.60      0.00
    6   -2   11      1.06      0.00
    6   -2   10     -0.56      0.00
    6   -2    9     -0.31      0.00
    6   -2    8      2.60      0.00
    6   -2    7      4.98      0.00
    6   -2    6      4.26      0.00
    6   -2    5      1.75      0.00
    6   -2    4      0.27      0.00
    6   -2    3      1.15      0.00
    6   -2    2      2.98      0.00
    6   -2    1      2.84      0.00
   -6    2    0      0.37      0.00
   -6    2    1     -1.06      0.00
   -6    2    2      0.52      0.00
   -6    2    3      2.93      0.00
   -6    2    4      3.61      0.00
   -6    2    5      2.70      0.00
   -6    2    6      1.56      0.00
   -6    2    7      0.69      0.00
   -6    2    8     -0.20      0.00
    6   -3   10     -1.13      0.00
    6   -3    9     -1.09      0.00
    6   -3    8     -1.64      0.00
    6   -3    7     -2.37      0.00
    6   -3    6     -2.16      0.00
    6   -3    5     -0.98      0.00
    6   -3    4     -0.68      0.00
    6   -3    3     -2.43      0.00
    6   -3    2     -4.17      0.00
    6   -3    1     -3.31      0.00
   -6    3    0     -0.65      0.00
   -6    3    1      1.21      0.00
   -6    3    2      0.90      0.00
   -6    3    3     -1.74      0.00
   -6    3    4     -4.76      0.00
   -6    3    5     -4.50      0.00
   -6    3    6     -0.94      0.00
   -6    3    7      1.07      0.00
   -6    3    8     -0.45      0.00
    6   -4   10      0.96      0.00
    6   -4    9      2.12      0.00
    6   -4    8      1.93      0.00
    6   -4    7      0.53      0.00
    6   -4    6     -0.10      0.00
    6   -4    5      1.05      0.00
    6   -4    4      2.94      0.00
    6   -4    3      3.68      0.00
    6   -4    2      2.38      0.00
    6   -4    1      0.67      0.00
   -6    4    0      0.90      0.00
   -6    4    1      2.07      0.00
   -6    4    2      1.35      0.00
   -6    4    3     -0.33      0.00
   -6    4    4      0.21      0.00
   -6    4    5      2.57      0.00
   -6    4    6      3.51      0.00
   -6    4    7      2.41      0.00
   -6    4    8      1.29      0.00
    6   -5    9     -0.54      0.00
    6   -5    8     -0.17      0.00
    6   -5    7     -0.35      0.00
    6   -5    6     -1.60      0.00
    6   -5    5     -3.15      0.00
    6   -5    4     -3.72      0.00
    6   -5    3     -2.65      0.00
    6   -5    2     -0.82      0.00
    6   -5    1     -0.28      0.00
   -6    5    0     -1.63      0.00
   -6    5    1     -3.03      0.00
   -6    5    2     -2.92      0.00
   -6    5    3     -1.63      0.00
   -6    5    4     -0.24      0.00
   -6    5    5     -0.21      0.00
   -6    5    6     -2.21      0.00
   -6    5    7     -4.05      0.00
    6   -6    8     -1.14      0.00
    6   -6    7     -0.85      0.00
    6   -6    6      1.78      0.00
    6   -6    5      3.70      0.00
    6   -6    4      3.02      0.00
    6   -6    3      1.35      0.00
    6   -6    2      0.92      0.00
    6   -6    1      1.69      0.00
   -6    6    0      1.93      0.00
   -6    6    1      1.14      0.00
   -6    6    2      1.12      0.00
   -6    6    3      2.68      0.00
   -6    6    4      3.78      0.00
   -6    6    5      2.85      0.00
   -6    6    6      1.44      0.00
   -6    6    7      1.28      0.00
    6   -7    6      0.14      0.00
    6   -7    5     -0.91      0.00
    6   -7    4     -1.69      0.00
    6   -7    3     -1.79      0.00
    6   -7    2     -1.60      0.00
    6   -7    1     -1.00      0.00
   -6    7    0      0.21      0.00
   -6    7    1      0.81      0.00
   -6    7    2     -0.34      0.00
   -6    7    3     -2.17      0.00
   -6    7    4     -3.11      0.00
   -6    7    5     -3.09      0.00
   -6    7    6     -2.48      0.00
    6   -8    4      1.40      0.00
    6   -8    3      2.29      0.00
    6   -8    2      1.23      0.00
    6   -8    1     -0.74      0.00
   -6    8    0     -2.06      0.00
   -6    8    1     -1.71      0.00
   -6    8    2      0.08      0.00
   -6    8    3      1.46      0.00
   -6    8    4      1.16      0.00
    5   11    5      2.65      0.00
    5   11    4      1.21      0.00
    5   11    3      0.98      0.00
    5   10    9      0.29      0.00
    5   10    8     -1.61      0.00
    5   10    7     -3.67      0.00
    5   10    6     -3.53      0.00
    5   10    5     -1.42      0.00
    5   10    4     -0.09      0.00
    5   10    3     -0.63      0.00
    5   10    2     -1.45      0.00
    5   10    1     -1.25      0.00
    5   10    0     -0.81      0.00
   -5  -10    1     -0.89      0.00
    5    9   10     -2.94      0.00
    5    9    9     -3.54      0.00
    5    9    8      0.78      0.00
    5    9    7      5.64      0.00
    5    9    6      5.06      0.00
    5    9    5      0.52      0.00
    5    9    4     -1.98      0.00
    5    9    3     -0.78      0.00
    5    9    2      0.98      0.00
    5    9    1      1.44      0.00
    5    9    0      1.45      0.00
   -5   -9    1      1.58      0.00
   -5   -9    2      1.54      0.00
   -5   -9    3      1.12      0.00
    5    8   11     -0.29      0.00
    5    8   10      2.83      0.00
    5    8    9      3.35      0.00
    5    8    8      0.48      0.00
    5    8    7     -2.82      0.00
    5    8    6     -3.86      0.00
    5    8    5     -2.10      0.00
    5    8    4      0.76      0.00
    5    8    3      1.57      0.00
    5    8    2     -0.78      0.00
    5    8    1     -3.17      0.00
    5    8    0     -2.53      0.00
   -5   -8    1     -0.56      0.00
   -5   -8    2     -0.79      0.00
   -5   -8    3     -2.16      0.00
   -5   -8    4     -0.59      0.00
   -5   -8    5      3.32      0.00
    5    7   12      4.71      0.00
    5    7   11      2.44      0.00
    5    7   10     -1.55      0.00
    5    7    9     -2.42      0.00
    5    7    8     -0.81      0.00
    5    7    7      0.51      0.00
    5    7    6      1.62      0.00
    5    7    5      2.47      0.00
    5    7    4      1.67      0.00
    5    7    3      0.40      0.00
    5    7    2      1.13      0.00
    5    7    1      2.42      0.00
    5    7    0      1.49      0.00
   -5   -7    1      0.01      0.00
   -5   -7    2      0.93      0.00
   -5   -7    3      1.95      0.00
   -5   -7    4     -0.35      0.00
   -5   -7    5     -3.47      0.00
   -5   -7    6     -3.28      0.00
    5    6   13     -1.69      0.00
    5    6   12     -4.23      0.00
    5    6   11     -4.06      0.00
    5    6   10     -0.54      0.00
    5    6    9      2.91      0.00
    5    6    8      2.89      0.00
    5    6    7      0.00      0.00
    5    6    6     -2.02      0.00
    5    6    5     -1.45      0.00
    5    6    4     -0.71      0.00
    5    6    3     -1.81      0.00
    5    6    2     -2.73      0.00
    5    6    1     -1.21      0.00
    5    6    0      1.00      0.00
   -5   -6    1      0.79      0.00
   -5   -6    2     -1.00      0.00
   -5   -6    3     -0.81      0.00
   -5   -6    4      1.58      0.00
   -5   -6    5      2.57      0.00
   -5   -6    6      1.02      0.00
   -5   -6    7     -0.36      0.00
    5    5   13      1.19      0.00
    5    5   12      1.76      0.00
    5    5   11      2.48      0.00
    5    5   10      1.15      0.00
    5    5    9     -2.55      0.00
    5    5    8     -4.33      0.00
    5    5    7     -1.35      0.00
    5    5    6      2.17      0.00
    5    5    5      1.69      0.00
    5    5    4     -0.22      0.00
    5    5    3      0.39      0.00
    5    5    2      1.87      0.00
    5    5    1      1.23      0.00
    5    5    0     -0.40      0.00
   -5   -5    1     -0.87      0.00
   -5   -5    2     -0.87      0.00
   -5   -5    3     -1.38      0.00
   -5   -5    4     -1.34      0.00
   -5   -5    5     -0.39      0.00
   -5   -5    6      0.09      0.00
   -5   -5    7      0.15      0.00
   -5   -5    8      0.78      0.00
    5    4   13     -0.56      0.00
    5    4   12     -0.55      0.00
    5    4   11     -1.22      0.00
    5    4   10     -0.95      0.00
    5    4    9      1.13      0.00
    5    4    8      2.85      0.00
    5    4    7      2.10      0.00
    5    4    6     -0.15      0.00
    5    4    5     -1.72      0.00
    5    4    4     -1.64      0.00
    5    4    3     -0.40      0.00
    5    4    2      0.41      0.00
    5    4    1     -0.24      0.00
    5    4    0     -1.16      0.00
   -5   -4    1     -0.26      0.00
   -5   -4    2      2.23      0.00
   -5   -4    3      3.29      0.00
   -5   -4    4      1.04      0.00
   -5   -4    5     -1.86      0.00
   -5   -4    6     -2.07      0.00
   -5   -4    7     -0.87      0.00
   -5   -4    8     -0.99      0.00
    5    3   13      0.03      0.00
    5    3   12      1.01      0.00
    5    3   11      2.13      0.00
    5    3   10      1.35      0.00
    5    3    9     -0.38      0.00
    5    3    8     -0.63      0.00
    5    3    7      0.16      0.00
    5    3    6      0.30      0.00
    5    3    5      0.09      0.00
    5    3    4      0.28      0.00
    5    3    3      0.59      0.00
    5    3    2      1.08      0.00
    5    3    1      1.68      0.00
    5    3    0      1.20      0.00
   -5   -3    1     -0.85      0.00
   -5   -3    2     -2.79      0.00
   -5   -3    3     -2.61      0.00
   -5   -3    4     -0.39      0.00
   -5   -3    5      2.01      0.00
   -5   -3    6      3.39      0.00
   -5   -3    7      3.88      0.00
   -5   -3    8      3.47      0.00
   -5   -3    9      2.25      0.00
    5    2   13     -0.87      0.00
    5    2   12     -2.92      0.00
    5    2   11     -3.88      0.00
    5    2   10     -2.17      0.00
    5    2    9      0.04      0.00
    5    2    8     -0.23      0.00
    5    2    7     -2.21      0.00
    5    2    6     -2.61      0.00
    5    2    5     -0.01      0.00
    5    2    4      2.97      0.00
    5    2    3      2.24      0.00
    5    2    2     -2.00      0.00
    5    2    1     -4.48      0.00
    5    2    0     -1.91      0.00
   -5   -2    1      2.53      0.00
   -5   -2    2      3.75      0.00
   -5   -2    3      1.21      0.00
   -5   -2    4     -1.19      0.00
   -5   -2    5     -1.21      0.00
   -5   -2    6     -1.46      0.00
   -5   -2    7     -3.98      0.00
   -5   -2    8     -5.76      0.00
   -5   -2    9     -3.93      0.00
    5    1   13      1.40      0.00
    5    1   12      3.03      0.00
    5    1   11      3.78      0.00
    5    1   10      3.83      0.00
    5    1    9      3.59      0.00
    5    1    8      2.47      0.00
    5    1    7      0.80      0.00
    5    1    6      0.02      0.00
    5    1    5     -0.09      0.00
    5    1    4     -0.61      0.00
    5    1    3     -0.75      0.00
    5    1    2      0.27      0.00
    5    1    1      1.16      0.00
    5    1    0      0.53      0.00
   -5   -1    1     -1.09      0.00
   -5   -1    2     -2.01      0.00
   -5   -1    3     -1.26      0.00
   -5   -1    4     -0.14      0.00
   -5   -1    5     -0.30      0.00
   -5   -1    6     -0.45      0.00
   -5   -1    7      1.41      0.00
   -5   -1    8      3.56      0.00
   -5   -1    9      2.98      0.00
   -5   -1   10      0.36      0.00
    5    0   13     -0.68      0.00
    5    0   12     -0.85      0.00
    5    0   11     -1.42      0.00
    5    0   10     -3.93      0.00
    5    0    9     -6.71      0.00
    5    0    8     -5.51      0.00
    5    0    7     -0.21      0.00
    5    0    6      3.82      0.00
    5    0    5      2.41      0.00
    5    0    4     -2.34      0.00
    5    0    3     -4.53      0.00
    5    0    2     -1.41      0.00
    5    0    1      2.94      0.00
    5    0    0      3.14      0.00
   -5    0    1     -0.09      0.00
   -5    0    2     -1.74      0.00
   -5    0    3      0.38      0.00
   -5    0    4      3.76      0.00
   -5    0    5      4.56      0.00
   -5    0    6      1.73      0.00
   -5    0    7     -1.69      0.00
   -5    0    8     -2.50      0.00
   -5    0    9     -1.17      0.00
   -5    0   10      0.11      0.00
    5   -1   12     -0.51      0.00
    5   -1   11      0.99      0.00
    5   -1   10      2.96      0.00
    5   -1    9      3.79      0.00
    5   -1    8      2.48      0.00
    5   -1    7      0.18      0.00
    5   -1    6     -1.27      0.00
    5   -1    5     -0.67      0.00
    5   -1    4      1.66      0.00
    5   -1    3      3.17      0.00
    5   -1    2      1.78      0.00
    5   -1    1     -0.84      0.00
   -5    1    0     -1.65      0.00
   -5    1    1     -0.30      0.00
   -5    1    2      1.11      0.00
   -5    1    3      0.11      0.00
   -5    1    4     -3.61      0.00
   -5    1    5     -6.15      0.00
   -5    1    6     -3.56      0.00
   -5    1    7      1.86      0.00
   -5    1    8      4.56      0.00
   -5    1    9      3.45      0.00
   -5    1   10      1.47      0.00
    5   -2   12      1.32      0.00
    5   -2   11     -0.86      0.00
    5   -2   10     -2.19      0.00
    5   -2    9     -0.55      0.00
    5   -2    8      1.90      0.00
    5   -2    7      1.35      0.00
    5   -2    6     -1.65      0.00
    5   -2    5     -3.02      0.00
    5   -2    4     -1.03      0.00
    5   -2    3      1.66      0.00
    5   -2    2      1.34      0.00
    5   -2    1     -1.83      0.00
   -5    2    0     -3.51      0.00
   -5    2    1     -1.24      0.00
   -5    2    2      2.16      0.00
   -5    2    3      3.34      0.00
   -5    2    4      2.64      0.00
   -5    2    5      1.85      0.00
   -5    2    6      1.30      0.00
   -5    2    7      0.13      0.00
   -5    2    8     -2.15      0.00
   -5    2    9     -4.24      0.00
   -5    2   10     -4.18      0.00
    5   -3   11     -1.18      0.00
    5   -3   10     -0.97      0.00
    5   -3    9     -0.92      0.00
    5   -3    8     -0.51      0.00
    5   -3    7      0.91      0.00
    5   -3    6      2.26      0.00
    5   -3    5      1.69      0.00
    5   -3    4     -0.95      0.00
    5   -3    3     -2.99      0.00
    5   -3    2     -1.43      0.00
    5   -3    1      2.54      0.00
   -5    3    0      4.45      0.00
   -5    3    1      2.37      0.00
   -5    3    2     -1.55      0.00
   -5    3    3     -4.22      0.00
   -5    3    4     -3.59      0.00
   -5    3    5     -0.38      0.00
   -5    3    6      1.34      0.00
   -5    3    7     -0.40      0.00
   -5    3    8     -1.76      0.00
   -5    3    9      0.50      0.00
   -5    3   10      3.39      0.00
    5   -4   11      1.40      0.00
    5   -4   10      3.11      0.00
    5   -4    9      2.47      0.00
    5   -4    8     -1.02      0.00
    5   -4    7     -4.08      0.00
    5   -4    6     -3.45      0.00
    5   -4    5     -0.04      0.00
    5   -4    4      2.49      0.00
    5   -4    3      1.71      0.00
    5   -4    2     -1.30      0.00
    5   -4    1     -2.99      0.00
   -5    4    0     -1.83      0.00
   -5    4    1     -0.24      0.00
   -5    4    2     -0.25      0.00
   -5    4    3     -0.60      0.00
   -5    4    4      0.15      0.00
   -5    4    5      1.34      0.00
   -5    4    6      2.07      0.00
   -5    4    7      2.29      0.00
   -5    4    8      1.79      0.00
   -5    4    9      0.43      0.00
   -5    4   10     -0.97      0.00
    5   -5   10     -2.19      0.00
    5   -5    9     -1.62      0.00
    5   -5    8      1.11      0.00
    5   -5    7      2.94      0.00
    5   -5    6      2.10      0.00
    5   -5    5      0.23      0.00
    5   -5    4     -0.38      0.00
    5   -5    3      0.74      0.00
    5   -5    2      2.06      0.00
    5   -5    1      1.79      0.00
   -5    5    0      0.13      0.00
   -5    5    1     -1.01      0.00
   -5    5    2     -0.28      0.00
   -5    5    3      1.99      0.00
   -5    5    4      3.52      0.00
   -5    5    5      1.52      0.00
   -5    5    6     -3.09      0.00
   -5    5    7     -5.43      0.00
   -5    5    8     -3.27      0.00
   -5    5    9     -0.13      0.00
    5   -6    9      1.05      0.00
    5   -6    8     -1.28      0.00
    5   -6    7     -1.97      0.00
    5   -6    6     -0.64      0.00
    5   -6    5      0.23      0.00
    5   -6    4     -0.31      0.00
    5   -6    3     -0.87      0.00
    5   -6    2     -0.57      0.00
    5   -6    1     -0.30      0.00
   -5    6    0     -0.70      0.00
   -5    6    1     -0.65      0.00
   -5    6    2      0.50      0.00
   -5    6    3      0.86      0.00
   -5    6    4     -0.84      0.00
   -5    6    5     -2.00      0.00
   -5    6    6      0.26      0.00
   -5    6    7      4.12      0.00
   -5    6    8      5.28      0.00
   -5    6    9      2.93      0.00
    5   -7    8     -0.52      0.00
    5   -7    7      1.82      0.00
    5   -7    6      2.36      0.00
    5   -7    5      0.46      0.00
    5   -7    4     -1.65      0.00
    5   -7    3     -1.96      0.00
    5   -7    2     -0.64      0.00
    5   -7    1      1.32      0.00
   -5    7    0      2.73      0.00
   -5    7    1      2.23      0.00
   -5    7    2      0.09      0.00
   -5    7    3     -1.42      0.00
   -5    7    4     -1.24      0.00
   -5    7    5     -0.82      0.00
   -5    7    6     -1.62      0.00
   -5    7    7     -3.26      0.00
   -5    7    8     -4.25      0.00
    5   -8    6     -2.63      0.00
    5   -8    5     -0.94      0.00
    5   -8    4      2.32      0.00
    5   -8    3      3.03      0.00
    5   -8    2      0.37      0.00
    5   -8    1     -3.02      0.00
   -5    8    0     -4.60      0.00
   -5    8    1     -3.67      0.00
   -5    8    2     -1.41      0.00
   -5    8    3      0.14      0.00
   -5    8    4      0.44      0.00
   -5    8    5      1.04      0.00
   -5    8    6      2.84      0.00
   -5    8    7      4.21      0.00
    5   -9    4     -1.73      0.00
    5   -9    3     -2.02      0.00
    5   -9    2     -0.64      0.00
    5   -9    1      1.81      0.00
   -5    9    0      4.19      0.00
   -5    9    1      5.16      0.00
   -5    9    2      4.00      0.00
   -5    9    3      1.54      0.00
   -5    9    4     -0.26      0.00
   -5    9    5     -0.68      0.00
   -5   10    0     -1.67      0.00
   -5   10    1     -3.71      0.00
    4   11    8     -4.20      0.00
    4   11    7      0.38      0.00
    4   11    6      4.93      0.00
    4   11    5      4.67      0.00
    4   11    4      1.07      0.00
    4   11    3     -1.45      0.00
    4   11    2     -1.73      0.00
    4   11    1     -1.47      0.00
    4   11    0     -1.32      0.00
    4   10   10      0.87      0.00
    4   10    9      2.72      0.00
    4   10    8      2.56      0.00
    4   10    7      0.17      0.00
    4   10    6     -2.20      0.00
    4   10    5     -2.33      0.00
    4   10    4     -0.04      0.00
    4   10    3      2.36      0.00
    4   10    2      2.46      0.00
    4   10    1      0.53      0.00
    4   10    0     -1.12      0.00
   -4  -10    1     -1.10      0.00
   -4  -10    2      0.07      0.00
   -4  -10    3      1.08      0.00
    4    9   11      0.40      0.00
    4    9   10     -1.30      0.00
    4    9    9     -1.66      0.00
    4    9    8     -0.02      0.00
    4    9    7      0.83      0.00
    4    9    6     -0.13      0.00
    4    9    5     -1.08      0.00
    4    9    4     -1.27      0.00
    4    9    3     -1.42      0.00
    4    9    2     -1.24      0.00
    4    9    1     -0.03      0.00
    4    9    0      1.19      0.00
   -4   -9    1      1.19      0.00
   -4   -9    2      0.57      0.00
   -4   -9    3      0.07      0.00
   -4   -9    4     -0.82      0.00
   -4   -9    5     -1.67      0.00
    4    8   12     -0.11      0.00
    4    8   11      0.11      0.00
    4    8   10     -0.02      0.00
    4    8    9     -0.32      0.00
    4    8    8     -0.16      0.00
    4    8    7     -0.01      0.00
    4    8    6     -0.07      0.00
    4    8    5      0.80      0.00
    4    8    4      2.29      0.00
    4    8    3      2.15      0.00
    4    8    2      0.50      0.00
    4    8    1      0.07      0.00
    4    8    0      1.30      0.00
   -4   -8    1      1.52      0.00
   -4   -8    2     -0.10      0.00
   -4   -8    3     -0.85      0.00
   -4   -8    4      0.75      0.00
   -4   -8    5      2.19      0.00
   -4   -8    6      1.31      0.00
    4    7   13      0.96      0.00
    4    7   12     -0.14      0.00
    4    7   11     -1.23      0.00
    4    7   10      0.21      0.00
    4    7    9      2.08      0.00
    4    7    8      1.14      0.00
    4    7    7     -0.62      0.00
    4    7    6     -0.16      0.00
    4    7    5      0.47      0.00
    4    7    4     -1.39      0.00
    4    7    3     -3.68      0.00
    4    7    2     -3.79      0.00
    4    7    1     -2.82      0.00
    4    7    0     -2.26      0.00
   -4   -7    1     -1.42      0.00
   -4   -7    2     -0.46      0.00
   -4   -7    3     -1.00      0.00
   -4   -7    4     -2.27      0.00
   -4   -7    5     -1.93      0.00
   -4   -7    6     -0.82      0.00
   -4   -7    7     -1.13      0.00
    4    6   13      0.63      0.00
    4    6   12      0.68      0.00
    4    6   11      0.73      0.00
    4    6   10      0.43      0.00
    4    6    9     -0.41      0.00
    4    6    8     -1.46      0.00
    4    6    7     -1.72      0.00
    4    6    6     -0.59      0.00
    4    6    5      0.67      0.00
    4    6    4      1.17      0.00
    4    6    3      2.49      0.00
    4    6    2      5.07      0.00
    4    6    1      5.76      0.00
    4    6    0      2.80      0.00
   -4   -6    1     -0.39      0.00
   -4   -6    2      0.00      0.00
   -4   -6    3      2.66      0.00
   -4   -6    4      3.50      0.00
   -4   -6    5      1.94      0.00
   -4   -6    6      1.11      0.00
   -4   -6    7      2.11      0.00
   -4   -6    8      2.75      0.00
    4    5   14     -1.02      0.00
    4    5   13     -2.10      0.00
    4    5   12     -1.61      0.00
    4    5   11     -0.08      0.00
    4    5   10     -0.25      0.00
    4    5    9     -1.68      0.00
    4    5    8     -0.60      0.00
    4    5    7      2.57      0.00
    4    5    6      3.00      0.00
    4    5    5     -0.08      0.00
    4    5    4     -2.62      0.00
    4    5    3     -3.19      0.00
    4    5    2     -3.52      0.00
    4    5    1     -3.47      0.00
    4    5    0     -2.04      0.00
   -4   -5    1     -0.83      0.00
   -4   -5    2     -1.62      0.00
   -4   -5    3     -2.83      0.00
   -4   -5    4     -2.56      0.00
   -4   -5    5     -2.13      0.00
   -4   -5    6     -2.68      0.00
   -4   -5    7     -2.76      0.00
   -4   -5    8     -2.17      0.00
   -4   -5    9     -2.67      0.00
    4    4   14      1.22      0.00
    4    4   13      1.45      0.00
    4    4   12      0.63      0.00
    4    4   11     -0.37      0.00
    4    4   10      0.19      0.00
    4    4    9      1.73      0.00
    4    4    8      1.88      0.00
    4    4    7     -0.16      0.00
    4    4    6     -2.68      0.00
    4    4    5     -2.78      0.00
    4    4    4      0.94      0.00
    4    4    3      5.33      0.00
    4    4    2      5.58      0.00
    4    4    1      2.29      0.00
    4    4    0      0.70      0.00
   -4   -4    1      2.56      0.00
   -4   -4    2      4.21      0.00
   -4   -4    3      3.01      0.00
   -4   -4    4      1.10      0.00
   -4   -4    5      1.48      0.00
   -4   -4    6      3.07      0.00
   -4   -4    7      3.05      0.00
   -4   -4    8      2.12      0.00
   -4   -4    9      2.53      0.00
   -4   -4   10      3.07      0.00
    4    3   14     -1.29      0.00
    4    3   13     -0.68      0.00
    4    3   12      0.53      0.00
    4    3   11      0.50      0.00
    4    3   10     -0.62      0.00
    4    3    9     -0.78      0.00
    4    3    8     -0.15      0.00
    4    3    7     -0.39      0.00
    4    3    6     -0.59      0.00
    4    3    5      0.35      0.00
    4    3    4      0.28      0.00
    4    3    3     -2.16      0.00
    4    3    2     -4.57      0.00
    4    3    1     -5.20      0.00
    4    3    0     -5.23      0.00
   -4   -3    1     -5.25      0.00
   -4   -3    2     -3.94      0.00
   -4   -3    3     -1.46      0.00
   -4   -3    4     -0.23      0.00
   -4   -3    5     -1.12      0.00
   -4   -3    6     -1.97      0.00
   -4   -3    7     -1.75      0.00
   -4   -3    8     -2.05      0.00
   -4   -3    9     -2.99      0.00
   -4   -3   10     -2.67      0.00
    4    2   14      1.04      0.00
    4    2   13      0.26      0.00
    4    2   12     -0.30      0.00
    4    2   11      0.63      0.00
    4    2   10      1.54      0.00
    4    2    9      0.50      0.00
    4    2    8     -1.24      0.00
    4    2    7     -1.11      0.00
    4    2    6      1.33      0.00
    4    2    5      3.85      0.00
    4    2    4      3.52      0.00
    4    2    3      0.64      0.00
    4    2    2      0.02      0.00
    4    2    1      4.50      0.00
    4    2    0      9.41      0.00
   -4   -2    1      8.81      0.00
   -4   -2    2      3.58      0.00
   -4   -2    3     -0.50      0.00
   -4   -2    4     -0.22      0.00
   -4   -2    5      1.94      0.00
   -4   -2    6      2.00      0.00
   -4   -2    7      0.44      0.00
   -4   -2    8      0.84      0.00
   -4   -2    9      3.17      0.00
   -4   -2   10      3.99      0.00
   -4   -2   11      2.53      0.00
    4    1   14     -1.63      0.00
    4    1   13     -1.33      0.00
    4    1   12     -0.90      0.00
    4    1   11     -0.79      0.00
    4    1   10     -0.41      0.00
    4    1    9     -0.21      0.00
    4    1    8     -1.18      0.00
    4    1    7     -2.06      0.00
    4    1    6     -1.59      0.00
    4    1    5     -1.22      0.00
    4    1    4     -2.15      0.00
    4    1    3     -3.40      0.00
    4    1    2     -4.42      0.00
    4    1    1     -5.52      0.00
    4    1    0     -6.07      0.00
   -4   -1    1     -5.26      0.00
   -4   -1    2     -3.42      0.00
   -4   -1    3     -1.88      0.00
   -4   -1    4     -1.80      0.00
   -4   -1    5     -2.57      0.00
   -4   -1    6     -2.43      0.00
   -4   -1    7     -1.39      0.00
   -4   -1    8     -1.30      0.00
   -4   -1    9     -2.51      0.00
   -4   -1   10     -3.44      0.00
   -4   -1   11     -2.98      0.00
    4    0   13      2.79      0.00
    4    0   12      2.45      0.00
    4    0   11      0.54      0.00
    4    0   10     -1.41      0.00
    4    0    9     -0.53      0.00
    4    0    8      3.26      0.00
    4    0    7      5.91      0.00
    4    0    6      3.89      0.00
    4    0    5     -1.12      0.00
    4    0    4     -3.02      0.00
    4    0    3      2.18      0.00
    4    0    2      9.80      0.00
    4    0    1     10.81      0.00
    4    0    0      4.40      0.00
   -4    0    1     -0.80      0.00
   -4    0    2      0.54      0.00
   -4    0    3      4.51      0.00
   -4    0    4      5.62      0.00
   -4    0    5      3.39      0.00
   -4    0    6      1.20      0.00
   -4    0    7      1.49      0.00
   -4    0    8      2.89      0.00
   -4    0    9      2.88      0.00
   -4    0   10      1.86      0.00
   -4    0   11      1.48      0.00
    4   -1   13     -1.56      0.00
    4   -1   12     -1.21      0.00
    4   -1   11     -0.41      0.00
    4   -1   10     -0.35      0.00
    4   -1    9     -1.87      0.00
    4   -1    8     -3.32      0.00
    4   -1    7     -2.93      0.00
    4   -1    6     -1.49      0.00
    4   -1    5     -0.37      0.00
    4   -1    4     -0.46      0.00
    4   -1    3     -3.00      0.00
    4   -1    2     -7.02      0.00
    4   -1    1     -8.50      0.00
   -4    1    0     -5.62      0.00
   -4    1    1     -1.56      0.00
   -4    1    2     -0.34      0.00
   -4    1    3     -2.47      0.00
   -4    1    4     -4.75      0.00
   -4    1    5     -4.04      0.00
   -4    1    6     -1.49      0.00
   -4    1    7     -0.69      0.00
   -4    1    8     -1.92      0.00
   -4    1    9     -2.59      0.00
   -4    1   10     -2.07      0.00
   -4    1   11     -1.61      0.00
    4   -2   13      0.29      0.00
    4   -2   12     -0.51      0.00
    4   -2   11     -0.36      0.00
    4   -2   10      1.69      0.00
    4   -2    9      3.93      0.00
    4   -2    8      3.17      0.00
    4   -2    7     -0.34      0.00
    4   -2    6     -2.17      0.00
    4   -2    5      0.60      0.00
    4   -2    4      5.59      0.00
    4   -2    3      7.75      0.00
    4   -2    2      5.42      0.00
    4   -2    1      2.78      0.00
   -4    2    0      3.80      0.00
   -4    2    1      6.02      0.00
   -4    2    2      5.00      0.00
   -4    2    3      1.64      0.00
   -4    2    4     -0.02      0.00
   -4    2    5      1.19      0.00
   -4    2    6      3.26      0.00
   -4    2    7      3.76      0.00
   -4    2    8      2.13      0.00
   -4    2    9      0.52      0.00
   -4    2   10      0.98      0.00
   -4    2   11      2.27      0.00
    4   -3   12     -0.85      0.00
    4   -3   11     -0.90      0.00
    4   -3   10     -1.02      0.00
    4   -3    9     -0.86      0.00
    4   -3    8      0.15      0.00
    4   -3    7      0.82      0.00
    4   -3    6     -0.27      0.00
    4   -3    5     -2.76      0.00
    4   -3    4     -5.30      0.00
    4   -3    3     -6.22      0.00
    4   -3    2     -4.73      0.00
    4   -3    1     -2.95      0.00
   -4    3    0     -3.62      0.00
   -4    3    1     -5.77      0.00
   -4    3    2     -6.15      0.00
   -4    3    3     -3.49      0.00
   -4    3    4      0.00      0.00
   -4    3    5      0.55      0.00
   -4    3    6     -2.89      0.00
   -4    3    7     -6.02      0.00
   -4    3    8     -4.53      0.00
   -4    3    9     -0.70      0.00
   -4    3   10      0.43      0.00
   -4    3   11     -1.23      0.00
    4   -4   12      0.96      0.00
    4   -4   11      1.94      0.00
    4   -4   10      1.29      0.00
    4   -4    9     -1.38      0.00
    4   -4    8     -3.50      0.00
    4   -4    7     -1.90      0.00
    4   -4    6      2.35      0.00
    4   -4    5      4.91      0.00
    4   -4    4      3.87      0.00
    4   -4    3      1.75      0.00
    4   -4    2      1.88      0.00
    4   -4    1      4.30      0.00
   -4    4    0      5.81      0.00
   -4    4    1      4.54      0.00
   -4    4    2      2.48      0.00
   -4    4    3      1.89      0.00
   -4    4    4      2.51      0.00
   -4    4    5      3.35      0.00
   -4    4    6      3.99      0.00
   -4    4    7      3.82      0.00
   -4    4    8      2.68      0.00
   -4    4    9      1.59      0.00
   -4    4   10      1.35      0.00
   -4    4   11      1.60      0.00
    4   -5   11     -0.22      0.00
    4   -5   10     -0.65      0.00
    4   -5    9      0.81      0.00
    4   -5    8      2.10      0.00
    4   -5    7      0.73      0.00
    4   -5    6     -1.72      0.00
    4   -5    5     -2.30      0.00
    4   -5    4     -1.09      0.00
    4   -5    3     -0.47      0.00
    4   -5    2     -2.03      0.00
    4   -5    1     -4.63      0.00
   -4    5    0     -5.38      0.00
   -4    5    1     -3.33      0.00
   -4    5    2     -0.66      0.00
   -4    5    3      0.15      0.00
   -4    5    4     -1.59      0.00
   -4    5    5     -4.48      0.00
   -4    5    6     -5.52      0.00
   -4    5    7     -3.31      0.00
   -4    5    8     -0.51      0.00
   -4    5    9     -0.32      0.00
   -4    5   10     -2.00      0.00
   -4    5   11     -2.71      0.00
    4   -6   10      0.05      0.00
    4   -6    9     -0.08      0.00
    4   -6    8     -0.13      0.00
    4   -6    7      0.76      0.00
    4   -6    6      1.26      0.00
    4   -6    5      0.30      0.00
    4   -6    4     -0.51      0.00
    4   -6    3      0.74      0.00
    4   -6    2      3.23      0.00
    4   -6    1      4.21      0.00
   -4    6    0      2.90      0.00
   -4    6    1      1.45      0.00
   -4    6    2      1.41      0.00
   -4    6    3      1.76      0.00
   -4    6    4      1.51      0.00
   -4    6    5      1.51      0.00
   -4    6    6      2.45      0.00
   -4    6    7      3.18      0.00
   -4    6    8      2.33      0.00
   -4    6    9      0.77      0.00
   -4    6   10      0.49      0.00
    4   -7    9     -1.32      0.00
    4   -7    8     -0.79      0.00
    4   -7    7      0.75      0.00
    4   -7    6      1.28      0.00
    4   -7    5      0.14      0.00
    4   -7    4     -1.06      0.00
    4   -7    3     -1.56      0.00
    4   -7    2     -2.04      0.00
    4   -7    1     -2.22      0.00
   -4    7    0     -1.52      0.00
   -4    7    1     -1.04      0.00
   -4    7    2     -1.83      0.00
   -4    7    3     -2.93      0.00
   -4    7    4     -2.83      0.00
   -4    7    5     -1.57      0.00
   -4    7    6     -0.72      0.00
   -4    7    7     -1.28      0.00
   -4    7    8     -2.14      0.00
   -4    7    9     -1.80      0.00
   -4    7   10     -0.80      0.00
    4   -8    7     -1.29      0.00
    4   -8    6     -3.06      0.00
    4   -8    5     -1.80      0.00
    4   -8    4      0.45      0.00
    4   -8    3      0.94      0.00
    4   -8    2      0.47      0.00
    4   -8    1      0.86      0.00
   -4    8    0      1.82      0.00
   -4    8    1      2.35      0.00
   -4    8    2      2.49      0.00
   -4    8    3      2.49      0.00
   -4    8    4      2.20      0.00
   -4    8    5      1.83      0.00
   -4    8    6      1.86      0.00
   -4    8    7      1.92      0.00
   -4    8    8      1.48      0.00
   -4    8    9      0.99      0.00
    4   -9    6      1.33      0.00
    4   -9    5      1.90      0.00
    4   -9    4      1.83      0.00
    4   -9    3      1.08      0.00
    4   -9    2      0.03      0.00
    4   -9    1     -0.90      0.00
   -4    9    0     -1.63      0.00
   -4    9    1     -2.28      0.00
   -4    9    2     -2.91      0.00
   -4    9    3     -2.97      0.00
   -4    9    4     -1.83      0.00
   -4    9    5     -0.50      0.00
   -4    9    6     -0.94      0.00
   -4    9    7     -2.56      0.00
   -4    9    8     -2.77      0.00
    4  -10    3     -1.76      0.00
    4  -10    2     -0.44      0.00
    4  -10    1      0.83      0.00
   -4   10    0      1.10      0.00
   -4   10    1      1.08      0.00
   -4   10    2      1.38      0.00
   -4   10    3      1.52      0.00
   -4   10    4      1.06      0.00
   -4   10    5      0.56      0.00
   -4   10    6      0.73      0.00
    3   12    6     -2.25      0.00
    3   12    5     -1.74      0.00
    3   12    4     -0.23      0.00
    3   12    3      1.05      0.00
    3   12    2      0.92      0.00
    3   12    1     -0.19      0.00
    3   11    9     -1.10      0.00
    3   11    8      0.22      0.00
    3   11    7      2.48      0.00
    3   11    6      2.59      0.00
    3   11    5      0.07      0.00
    3   11    4     -2.05      0.00
    3   11    3     -1.45      0.00
    3   11    2      0.46      0.00
    3   11    1      1.15      0.00
    3   11    0      0.71      0.00
   -3  -11    1      0.50      0.00
   -3  -11    2      0.41      0.00
    3   10   11     -0.85      0.00
    3   10   10     -0.03      0.00
    3   10    9      0.61      0.00
    3   10    8      0.46      0.00
    3   10    7     -0.22      0.00
    3   10    6     -0.46      0.00
    3   10    5      0.76      0.00
    3   10    4      2.50      0.00
    3   10    3      2.09      0.00
    3   10    2     -0.66      0.00
    3   10    1     -2.43      0.00
    3   10    0     -1.42      0.00
   -3  -10    1      0.39      0.00
   -3  -10    2      1.00      0.00
   -3  -10    3      0.88      0.00
   -3  -10    4      1.12      0.00
    3    9   12      1.46      0.00
    3    9   11      1.00      0.00
    3    9   10      0.05      0.00
    3    9    9      0.15      0.00
    3    9    8      0.29      0.00
    3    9    7     -0.64      0.00
    3    9    6     -1.40      0.00
    3    9    5     -1.14      0.00
    3    9    4     -0.82      0.00
    3    9    3     -0.83      0.00
    3    9    2     -0.30      0.00
    3    9    1      0.69      0.00
    3    9    0      0.83      0.00
   -3   -9    1      0.05      0.00
   -3   -9    2     -0.38      0.00
   -3   -9    3     -0.67      0.00
   -3   -9    4     -2.09      0.00
   -3   -9    5     -3.73      0.00
   -3   -9    6     -3.55      0.00
    3    8   13      0.33      0.00
    3    8   12     -0.21      0.00
    3    8   11     -0.72      0.00
    3    8   10     -0.98      0.00
    3    8    9     -0.64      0.00
    3    8    8     -0.02      0.00
    3    8    7      0.21      0.00
    3    8    6      0.48      0.00
    3    8    5      1.07      0.00
    3    8    4      0.89      0.00
    3    8    3     -0.05      0.00
    3    8    2      0.01      0.00
    3    8    1      0.94      0.00
    3    8    0      0.58      0.00
   -3   -8    1     -1.08      0.00
   -3   -8    2     -1.74      0.00
   -3   -8    3     -0.24      0.00
   -3   -8    4      2.29      0.00
   -3   -8    5      4.11      0.00
   -3   -8    6      4.30      0.00
   -3   -8    7      2.96      0.00
    3    7   13     -0.76      0.00
    3    7   12     -1.44      0.00
    3    7   11     -0.34      0.00
    3    7   10      1.93      0.00
    3    7    9      1.93      0.00
    3    7    8     -0.31      0.00
    3    7    7     -1.15      0.00
    3    7    6     -0.06      0.00
    3    7    5     -0.04      0.00
    3    7    4     -1.68      0.00
    3    7    3     -2.53      0.00
    3    7    2     -1.35      0.00
    3    7    1      0.80      0.00
    3    7    0      2.47      0.00
   -3   -7    1      2.72      0.00
   -3   -7    2      1.30      0.00
   -3   -7    3     -0.66      0.00
   -3   -7    4     -1.55      0.00
   -3   -7    5     -1.72      0.00
   -3   -7    6     -2.39      0.00
   -3   -7    7     -2.49      0.00
   -3   -7    8     -0.77      0.00
    3    6   14      1.06      0.00
    3    6   13      0.86      0.00
    3    6   12      0.37      0.00
    3    6   11     -0.39      0.00
    3    6   10     -1.03      0.00
    3    6    9     -1.18      0.00
    3    6    8     -0.77      0.00
    3    6    7      0.21      0.00
    3    6    6      0.79      0.00
    3    6    5      0.26      0.00
    3    6    4      0.56      0.00
    3    6    3      2.93      0.00
    3    6    2      3.62      0.00
    3    6    1     -0.47      0.00
    3    6    0     -5.03      0.00
   -3   -6    1     -4.35      0.00
   -3   -6    2     -0.07      0.00
   -3   -6    3      2.12      0.00
   -3   -6    4      1.03      0.00
   -3   -6    5     -0.02      0.00
   -3   -6    6      0.54      0.00
   -3   -6    7      0.97      0.00
   -3   -6    8      0.55      0.00
   -3   -6    9      0.71      0.00
    3    5   14     -0.71      0.00
    3    5   13     -0.14      0.00
    3    5   12      1.49      0.00
    3    5   11      1.79      0.00
    3    5   10     -0.23      0.00
    3    5    9     -1.28      0.00
    3    5    8      0.76      0.00
    3    5    7      2.53      0.00
    3    5    6      1.03      0.00
    3    5    5     -1.45      0.00
    3    5    4     -2.19      0.00
    3    5    3     -1.73      0.00
    3    5    2     -0.81      0.00
    3    5    1      0.75      0.00
    3    5    0      1.76      0.00
   -3   -5    1      0.80      0.00
   -3   -5    2     -0.81      0.00
   -3   -5    3     -0.77      0.00
   -3   -5    4      0.23      0.00
   -3   -5    5      0.14      0.00
   -3   -5    6     -0.39      0.00
   -3   -5    7     -0.01      0.00
   -3   -5    8     -0.27      0.00
   -3   -5    9     -1.95      0.00
   -3   -5   10     -2.25      0.00
    3    4   14     -0.68      0.00
    3    4   13     -1.97      0.00
    3    4   12     -2.81      0.00
    3    4   11     -1.56      0.00
    3    4   10      0.83      0.00
    3    4    9      1.75      0.00
    3    4    8      0.40      0.00
    3    4    7     -1.99      0.00
    3    4    6     -3.18      0.00
    3    4    5     -0.70      0.00
    3    4    4      4.02      0.00
    3    4    3      4.90      0.00
    3    4    2      0.31      0.00
    3    4    1     -2.81      0.00
    3    4    0     -0.06      0.00
   -3   -4    1      3.41      0.00
   -3   -4    2      2.19      0.00
   -3   -4    3     -1.28      0.00
   -3   -4    4     -2.07      0.00
   -3   -4    5     -0.20      0.00
   -3   -4    6      0.82      0.00
   -3   -4    7      0.09      0.00
   -3   -4    8     -0.16      0.00
   -3   -4    9      0.49      0.00
   -3   -4   10      0.16      0.00
    3    3   14      0.41      0.00
    3    3   13      2.50      0.00
    3    3   12      3.16      0.00
    3    3   11      1.64      0.00
    3    3   10      0.38      0.00
    3    3    9      0.47      0.00
    3    3    8     -0.10      0.00
    3    3    7     -1.23      0.00
    3    3    6     -0.28      0.00
    3    3    5      1.76      0.00
    3    3    4      1.09      0.00
    3    3    3     -2.08      0.00
    3    3    2     -4.27      0.00
    3    3    1     -4.31      0.00
    3    3    0     -3.19      0.00
   -3   -3    1     -1.17      0.00
   -3   -3    2      1.50      0.00
   -3   -3    3      2.96      0.00
   -3   -3    4      1.68      0.00
   -3   -3    5     -0.70      0.00
   -3   -3    6     -1.42      0.00
   -3   -3    7     -0.67      0.00
   -3   -3    8     -0.11      0.00
   -3   -3    9      0.60      0.00
   -3   -3   10      1.80      0.00
   -3   -3   11      1.91      0.00
    3    2   14      0.85      0.00
    3    2   13     -1.06      0.00
    3    2   12     -2.07      0.00
    3    2   11     -1.98      0.00
    3    2   10     -2.18      0.00
    3    2    9     -2.34      0.00
    3    2    8     -1.03      0.00
    3    2    7      1.57      0.00
    3    2    6      3.43      0.00
    3    2    5      1.72      0.00
    3    2    4     -3.33      0.00
    3    2    3     -4.99      0.00
    3    2    2      2.09      0.00
    3    2    1     10.75      0.00
    3    2    0      9.42      0.00
   -3   -2    1     -0.34      0.00
   -3   -2    2     -6.86      0.00
   -3   -2    3     -5.20      0.00
   -3   -2    4     -0.45      0.00
   -3   -2    5      2.02      0.00
   -3   -2    6      1.90      0.00
   -3   -2    7      1.54      0.00
   -3   -2    8      1.80      0.00
   -3   -2    9      1.36      0.00
   -3   -2   10     -0.20      0.00
   -3   -2   11     -1.36      0.00
    3    1   14     -1.75      0.00
    3    1   13     -0.14      0.00
    3    1   12      2.03      0.00
    3    1   11      3.06      0.00
    3    1   10      2.45      0.00
    3    1    9      0.62      0.00
    3    1    8     -0.72      0.00
    3    1    7     -0.12      0.00
    3    1    6      0.99      0.00
    3    1    5      0.83      0.00
    3    1    4      0.06      0.00
    3    1    3     -1.15      0.00
    3    1    2     -3.64      0.00
    3    1    1     -5.25      0.00
    3    1    0     -2.84      0.00
   -3   -1    1      1.94      0.00
   -3   -1    2      4.42      0.00
   -3   -1    3      3.13      0.00
   -3   -1    4      0.67      0.00
   -3   -1    5     -0.64      0.00
   -3   -1    6     -1.31      0.00
   -3   -1    7     -2.57      0.00
   -3   -1    8     -3.57      0.00
   -3   -1    9     -3.04      0.00
   -3   -1   10     -1.72      0.00
   -3   -1   11     -0.64      0.00
   -3   -1   12      0.19      0.00
    3    0   14      1.79      0.00
    3    0   13      0.82      0.00
    3    0   12     -2.21      0.00
    3    0   11     -4.20      0.00
    3    0   10     -2.58      0.00
    3    0    9      0.90      0.00
    3    0    8      2.09      0.00
    3    0    7     -0.47      0.00
    3    0    6     -4.60      0.00
    3    0    5     -6.11      0.00
    3    0    4     -1.15      0.00
    3    0    3      7.93      0.00
    3    0    2     10.95      0.00
    3    0    1      2.81      0.00
    3    0    0     -7.03      0.00
   -3    0    1     -7.78      0.00
   -3    0    2     -2.15      0.00
   -3    0    3      0.97      0.00
   -3    0    4     -0.29      0.00
   -3    0    5     -1.69      0.00
   -3    0    6     -0.22      0.00
   -3    0    7      2.88      0.00
   -3    0    8      4.18      0.00
   -3    0    9      2.69      0.00
   -3    0   10      1.15      0.00
   -3    0   11      1.35      0.00
   -3    0   12      1.80      0.00
    3   -1   14     -0.61      0.00
    3   -1   13      0.28      0.00
    3   -1   12      1.57      0.00
    3   -1   11      2.20      0.00
    3   -1   10      1.41      0.00
    3   -1    9      0.73      0.00
    3   -1    8      1.99      0.00
    3   -1    7      3.62      0.00
    3   -1    6      3.29      0.00
    3   -1    5      1.72      0.00
    3   -1    4     -0.30      0.00
    3   -1    3     -3.29      0.00
    3   -1    2     -5.12      0.00
    3   -1    1     -2.66      0.00
   -3    1    0      2.44      0.00
   -3    1    1      5.47      0.00
   -3    1    2      4.68      0.00
   -3    1    3      2.22      0.00
   -3    1    4      0.83      0.00
   -3    1    5      0.84      0.00
   -3    1    6      0.23      0.00
   -3    1    7     -1.61      0.00
   -3    1    8     -2.63      0.00
   -3    1    9     -1.76      0.00
   -3    1   10     -0.70      0.00
   -3    1   11     -0.80      0.00
   -3    1   12     -1.42      0.00
    3   -2   13     -1.19      0.00
    3   -2   12     -1.71      0.00
    3   -2   11     -0.64      0.00
    3   -2   10     -0.04      0.00
    3   -2    9     -2.04      0.00
    3   -2    8     -5.31      0.00
    3   -2    7     -5.89      0.00
    3   -2    6     -2.03      0.00
    3   -2    5      3.28      0.00
    3   -2    4      4.81      0.00
    3   -2    3      0.64      0.00
    3   -2    2     -4.13      0.00
    3   -2    1     -2.83      0.00
   -3    2    0      2.28      0.00
   -3    2    1      2.55      0.00
   -3    2    2     -3.05      0.00
   -3    2    3     -6.66      0.00
   -3    2    4     -4.27      0.00
   -3    2    5      0.15      0.00
   -3    2    6      2.11      0.00
   -3    2    7      1.12      0.00
   -3    2    8     -0.67      0.00
   -3    2    9     -0.93      0.00
   -3    2   10      0.29      0.00
   -3    2   11      1.04      0.00
   -3    2   12      0.73      0.00
    3   -3   13     -0.63      0.00
    3   -3   12      0.14      0.00
    3   -3   11      0.59      0.00
    3   -3   10      1.20      0.00
    3   -3    9      3.05      0.00
    3   -3    8      4.38      0.00
    3   -3    7      2.74      0.00
    3   -3    6     -0.44      0.00
    3   -3    5     -2.10      0.00
    3   -3    4     -1.56      0.00
    3   -3    3      0.43      0.00
    3   -3    2      2.45      0.00
    3   -3    1      2.05      0.00
   -3    3    0     -0.67      0.00
   -3    3    1     -1.89      0.00
   -3    3    2      0.50      0.00
   -3    3    3      3.78      0.00
   -3    3    4      4.08      0.00
   -3    3    5      0.91      0.00
   -3    3    6     -2.12      0.00
   -3    3    7     -1.41      0.00
   -3    3    8      1.75      0.00
   -3    3    9      3.01      0.00
   -3    3   10      1.21      0.00
   -3    3   11     -0.92      0.00
   -3    3   12     -1.42      0.00
    3   -4   12      2.01      0.00
    3   -4   11      2.20      0.00
    3   -4   10      0.42      0.00
    3   -4    9     -2.42      0.00
    3   -4    8     -3.23      0.00
    3   -4    7     -0.78      0.00
    3   -4    6      1.65      0.00
    3   -4    5      0.59      0.00
    3   -4    4     -2.52      0.00
    3   -4    3     -3.02      0.00
    3   -4    2      0.41      0.00
    3   -4    1      3.26      0.00
   -3    4    0      1.51      0.00
   -3    4    1     -2.18      0.00
   -3    4    2     -2.89      0.00
   -3    4    3     -0.88      0.00
   -3    4    4      0.47      0.00
   -3    4    5      0.35      0.00
   -3    4    6     -0.18      0.00
   -3    4    7     -0.67      0.00
   -3    4    8     -0.97      0.00
   -3    4    9     -0.88      0.00
   -3    4   10     -0.44      0.00
   -3    4   11      0.47      0.00
   -3    4   12      1.56      0.00
    3   -5   11     -3.98      0.00
    3   -5   10     -4.54      0.00
    3   -5    9     -1.85      0.00
    3   -5    8      0.88      0.00
    3   -5    7      1.76      0.00
    3   -5    6      1.84      0.00
    3   -5    5      1.93      0.00
    3   -5    4      1.68      0.00
    3   -5    3      0.36      0.00
    3   -5    2     -2.16      0.00
    3   -5    1     -3.70      0.00
   -3    5    0     -1.60      0.00
   -3    5    1      2.61      0.00
   -3    5    2      4.38      0.00
   -3    5    3      2.37      0.00
   -3    5    4     -0.48      0.00
   -3    5    5     -1.29      0.00
   -3    5    6     -0.14      0.00
   -3    5    7      0.88      0.00
   -3    5    8      0.48      0.00
   -3    5    9     -0.56      0.00
   -3    5   10     -1.15      0.00
   -3    5   11     -1.43      0.00
   -3    5   12     -1.75      0.00
    3   -6   10      4.48      0.00
    3   -6    9      3.92      0.00
    3   -6    8      1.10      0.00
    3   -6    7     -2.26      0.00
    3   -6    6     -4.37      0.00
    3   -6    5     -3.77      0.00
    3   -6    4     -0.63      0.00
    3   -6    3      2.72      0.00
    3   -6    2      3.79      0.00
    3   -6    1      2.14      0.00
   -3    6    0     -0.36      0.00
   -3    6    1     -1.82      0.00
   -3    6    2     -2.30      0.00
   -3    6    3     -2.71      0.00
   -3    6    4     -2.88      0.00
   -3    6    5     -1.87      0.00
   -3    6    6      0.41      0.00
   -3    6    7      2.27      0.00
   -3    6    8      1.88      0.00
   -3    6    9      0.27      0.00
   -3    6   10      0.24      0.00
   -3    6   11      1.79      0.00
    3   -7    9     -2.03      0.00
    3   -7    8      0.52      0.00
    3   -7    7      3.89      0.00
    3   -7    6      4.49      0.00
    3   -7    5      1.93      0.00
    3   -7    4     -0.80      0.00
    3   -7    3     -1.89      0.00
    3   -7    2     -1.67      0.00
    3   -7    1     -0.57      0.00
   -3    7    0      0.65      0.00
   -3    7    1      0.89      0.00
   -3    7    2      0.56      0.00
   -3    7    3      1.14      0.00
   -3    7    4      2.64      0.00
   -3    7    5      3.03      0.00
   -3    7    6      0.83      0.00
   -3    7    7     -2.35      0.00
   -3    7    8     -3.38      0.00
   -3    7    9     -1.91      0.00
   -3    7   10     -0.70      0.00
   -3    7   11     -1.09      0.00
    3   -8    8     -2.00      0.00
    3   -8    7     -4.50      0.00
    3   -8    6     -4.24      0.00
    3   -8    5     -1.00      0.00
    3   -8    4      1.41      0.00
    3   -8    3      0.91      0.00
    3   -8    2     -0.45      0.00
    3   -8    1     -0.63      0.00
   -3    8    0     -0.18      0.00
   -3    8    1     -0.10      0.00
   -3    8    2     -0.36      0.00
   -3    8    3     -0.91      0.00
   -3    8    4     -1.75      0.00
   -3    8    5     -1.95      0.00
   -3    8    6     -0.74      0.00
   -3    8    7      0.89      0.00
   -3    8    8      1.74      0.00
   -3    8    9      1.90      0.00
   -3    8   10      1.66      0.00
    3   -9    7      2.41      0.00
    3   -9    6      2.26      0.00
    3   -9    5      1.49      0.00
    3   -9    4      0.40      0.00
    3   -9    3     -0.12      0.00
    3   -9    2      0.39      0.00
    3   -9    1      0.94      0.00
   -3    9    0      0.57      0.00
   -3    9    1     -0.20      0.00
   -3    9    2     -0.25      0.00
   -3    9    3      0.93      0.00
   -3    9    4      2.66      0.00
   -3    9    5      3.12      0.00
   -3    9    6      1.56      0.00
   -3    9    7     -0.13      0.00
   -3    9    8     -0.17      0.00
   -3    9    9      0.49      0.00
    3  -10    5     -0.73      0.00
    3  -10    4     -1.39      0.00
    3  -10    3     -1.13      0.00
    3  -10    2     -0.54      0.00
    3  -10    1     -0.61      0.00
   -3   10    0     -0.70      0.00
   -3   10    1     -0.13      0.00
   -3   10    2      0.18      0.00
   -3   10    3     -0.65      0.00
   -3   10    4     -1.82      0.00
   -3   10    5     -2.30      0.00
   -3   10    6     -2.22      0.00
   -3   10    7     -2.08      0.00
   -3   10    8     -1.82      0.00
    3  -11    2      0.86      0.00
    3  -11    1     -0.35      0.00
   -3   11    0     -0.89      0.00
   -3   11    1     -0.26      0.00
   -3   11    2      0.83      0.00
   -3   11    3      1.23      0.00
   -3   11    4      0.27      0.00
   -3   11    5     -0.84      0.00
    2   12    7      1.03      0.00
    2   12    6     -0.21      0.00
    2   12    5     -0.03      0.00
    2   12    4      1.36      0.00
    2   12    3      2.22      0.00
    2   12    2      1.83      0.00
    2   12    1      1.21      0.00
    2   12    0      0.82      0.00
    2   11    9     -1.40      0.00
    2   11    8     -1.90      0.00
    2   11    7     -1.54      0.00
    2   11    6     -1.12      0.00
    2   11    5     -1.18      0.00
    2   11    4     -1.05      0.00
    2   11    3     -0.45      0.00
    2   11    2     -0.61      0.00
    2   11    1     -1.83      0.00
    2   11    0     -2.21      0.00
   -2  -11    1     -0.84      0.00
   -2  -11    2      0.59      0.00
   -2  -11    3      0.78      0.00
    2   10   11      0.14      0.00
    2   10   10      0.83      0.00
    2   10    9      1.83      0.00
    2   10    8      2.54      0.00
    2   10    7      2.35      0.00
    2   10    6      1.54      0.00
    2   10    5      1.18      0.00
    2   10    4      0.95      0.00
    2   10    3     -0.16      0.00
    2   10    2     -1.01      0.00
    2   10    1      0.06      0.00
    2   10    0      1.87      0.00
   -2  -10    1      2.06      0.00
   -2  -10    2      0.68      0.00
   -2  -10    3     -0.33      0.00
   -2  -10    4      0.06      0.00
   -2  -10    5      1.00      0.00
    2    9   12      0.54      0.00
    2    9   11     -0.40      0.00
    2    9   10     -1.30      0.00
    2    9    9     -1.37      0.00
    2    9    8     -1.66      0.00
    2    9    7     -2.28      0.00
    2    9    6     -2.03      0.00
    2    9    5     -0.92      0.00
    2    9    4     -0.35      0.00
    2    9    3     -0.56      0.00
    2    9    2     -0.26      0.00
    2    9    1      0.74      0.00
    2    9    0      0.83      0.00
   -2   -9    1     -0.45      0.00
   -2   -9    2     -1.53      0.00
   -2   -9    3     -1.95      0.00
   -2   -9    4     -2.90      0.00
   -2   -9    5     -3.81      0.00
   -2   -9    6     -2.75      0.00
   -2   -9    7     -0.14      0.00
    2    8   13      0.27      0.00
    2    8   12      0.15      0.00
    2    8   11      0.23      0.00
    2    8   10      0.44      0.00
    2    8    9      0.64      0.00
    2    8    8      0.85      0.00
    2    8    7      1.29      0.00
    2    8    6      1.72      0.00
    2    8    5      1.14      0.00
    2    8    4      0.00      0.00
    2    8    3      0.40      0.00
    2    8    2      1.66      0.00
    2    8    1      0.57      0.00
    2    8    0     -2.26      0.00
   -2   -8    1     -2.52      0.00
   -2   -8    2      0.57      0.00
   -2   -8    3      3.69      0.00
   -2   -8    4      5.05      0.00
   -2   -8    5      5.05      0.00
   -2   -8    6      3.35      0.00
   -2   -8    7     -0.05      0.00
   -2   -8    8     -2.58      0.00
    2    7   13     -0.70      0.00
    2    7   12     -1.34      0.00
    2    7   11     -0.32      0.00
    2    7   10      0.27      0.00
    2    7    9     -1.17      0.00
    2    7    8     -2.57      0.00
    2    7    7     -1.84      0.00
    2    7    6     -0.43      0.00
    2    7    5     -0.48      0.00
    2    7    4     -1.72      0.00
    2    7    3     -2.41      0.00
    2    7    2     -1.36      0.00
    2    7    1      0.87      0.00
    2    7    0      2.27      0.00
   -2   -7    1      1.35      0.00
   -2   -7    2     -1.17      0.00
   -2   -7    3     -3.16      0.00
   -2   -7    4     -3.60      0.00
   -2   -7    5     -3.40      0.00
   -2   -7    6     -2.91      0.00
   -2   -7    7     -1.07      0.00
   -2   -7    8      1.26      0.00
   -2   -7    9      1.41      0.00
    2    6   14     -0.43      0.00
    2    6   13     -0.53      0.00
    2    6   12     -0.24      0.00
    2    6   11      0.70      0.00
    2    6   10      2.09      0.00
    2    6    9      3.05      0.00
    2    6    8      3.17      0.00
    2    6    7      2.45      0.00
    2    6    6      0.87      0.00
    2    6    5      0.12      0.00
    2    6    4      2.54      0.00
    2    6    3      5.62      0.00
    2    6    2      4.09      0.00
    2    6    1     -0.74      0.00
    2    6    0     -2.25      0.00
   -2   -6    1      0.68      0.00
   -2   -6    2      3.01      0.00
   -2   -6    3      2.43      0.00
   -2   -6    4      1.42      0.00
   -2   -6    5      1.83      0.00
   -2   -6    6      2.62      0.00
   -2   -6    7      2.59      0.00
   -2   -6    8      1.95      0.00
   -2   -6    9      1.18      0.00
   -2   -6   10      0.28      0.00
    2    5   14     -0.94      0.00
    2    5   13      1.11      0.00
    2    5   12      1.82      0.00
    2    5   11     -0.94      0.00
    2    5   10     -4.36      0.00
    2    5    9     -4.20      0.00
    2    5    8     -1.59      0.00
    2    5    7     -0.82      0.00
    2    5    6     -2.27      0.00
    2    5    5     -3.19      0.00
    2    5    4     -2.96      0.00
    2    5    3     -2.85      0.00
    2    5    2     -3.15      0.00
    2    5    1     -3.43      0.00
    2    5    0     -3.42      0.00
   -2   -5    1     -2.81      0.00
   -2   -5    2     -1.53      0.00
   -2   -5    3     -0.43      0.00
   -2   -5    4     -0.82      0.00
   -2   -5    5     -2.54      0.00
   -2   -5    6     -3.75      0.00
   -2   -5    7     -3.82      0.00
   -2   -5    8     -3.68      0.00
   -2   -5    9     -2.85      0.00
   -2   -5   10     -0.47      0.00
   -2   -5   11      1.35      0.00
    2    4   14      0.81      0.00
    2    4   13     -0.58      0.00
    2    4   12     -0.46      0.00
    2    4   11      1.76      0.00
    2    4   10      3.46      0.00
    2    4    9      3.10      0.00
    2    4    8      1.73      0.00
    2    4    7      0.69      0.00
    2    4    6      1.46      0.00
    2    4    5      4.30      0.00
    2    4    4      5.22      0.00
    2    4    3      1.49      0.00
    2    4    2     -1.14      0.00
    2    4    1      2.99      0.00
    2    4    0      8.25      0.00
   -2   -4    1      6.62      0.00
   -2   -4    2      0.73      0.00
   -2   -4    3     -1.65      0.00
   -2   -4    4      0.82      0.00
   -2   -4    5      3.85      0.00
   -2   -4    6      4.71      0.00
   -2   -4    7      4.10      0.00
   -2   -4    8      3.25      0.00
   -2   -4    9      2.25      0.00
   -2   -4   10      1.18      0.00
   -2   -4   11      0.64      0.00
    2    3   14      0.43      0.00
    2    3   13      0.50      0.00
    2    3   12     -0.51      0.00
    2    3   11     -1.37      0.00
    2    3   10     -1.37      0.00
    2    3    9     -2.28      0.00
    2    3    8     -4.57      0.00
    2    3    7     -5.03      0.00
    2    3    6     -2.03      0.00
    2    3    5      0.75      0.00
    2    3    4     -0.32      0.00
    2    3    3     -4.34      0.00
    2    3    2     -7.93      0.00
    2    3    1     -8.36      0.00
    2    3    0     -5.38      0.00
   -2   -3    1     -1.67      0.00
   -2   -3    2     -0.24      0.00
   -2   -3    3     -1.61      0.00
   -2   -3    4     -3.95      0.00
   -2   -3    5     -4.98      0.00
   -2   -3    6     -4.10      0.00
   -2   -3    7     -2.82      0.00
   -2   -3    8     -2.16      0.00
   -2   -3    9     -1.82      0.00
   -2   -3   10     -1.99      0.00
   -2   -3   11     -2.61      0.00
   -2   -3   12     -2.22      0.00
    2    2   14     -0.20      0.00
    2    2   13     -0.12      0.00
    2    2   12      0.24      0.00
    2    2   11     -0.06      0.00
    2    2   10      0.43      0.00
    2    2    9      3.08      0.00
    2    2    8      6.29      0.00
    2    2    7      7.60      0.00
    2    2    6      5.13      0.00
    2    2    5     -1.44      0.00
    2    2    4     -5.78      0.00
    2    2    3      1.57      0.00
    2    2    2     16.15      0.00
    2    2    1     19.78      0.00
    2    2    0      7.39      0.00
   -2   -2    1     -4.26      0.00
   -2   -2    2     -2.70      0.00
   -2   -2    3      4.90      0.00
   -2   -2    4      7.81      0.00
   -2   -2    5      5.85      0.00
   -2   -2    6      3.64      0.00
   -2   -2    7      2.78      0.00
   -2   -2    8      2.43      0.00
   -2   -2    9      2.12      0.00
   -2   -2   10      1.94      0.00
   -2   -2   11      1.70      0.00
   -2   -2   12      1.11      0.00
    2    1   14     -1.35      0.00
    2    1   13     -0.56      0.00
    2    1   12      0.44      0.00
    2    1   11      0.23      0.00
    2    1   10     -1.91      0.00
    2    1    9     -4.63      0.00
    2    1    8     -5.31      0.00
    2    1    7     -4.05      0.00
    2    1    6     -3.26      0.00
    2    1    5     -3.09      0.00
    2    1    4     -2.82      0.00
    2    1    3     -4.32      0.00
    2    1    2     -8.01      0.00
    2    1    1     -9.94      0.00
    2    1    0     -7.84      0.00
   -2   -1    1     -4.75      0.00
   -2   -1    2     -3.86      0.00
   -2   -1    3     -4.52      0.00
   -2   -1    4     -4.60      0.00
   -2   -1    5     -3.94      0.00
   -2   -1    6     -4.03      0.00
   -2   -1    7     -4.67      0.00
   -2   -1    8     -4.01      0.00
   -2   -1    9     -2.28      0.00
   -2   -1   10     -1.32      0.00
   -2   -1   11     -1.04      0.00
   -2   -1   12     -0.37      0.00
   -2   -1   13      0.19      0.00
    2    0   14      2.07      0.00
    2    0   13      1.15      0.00
    2    0   12     -0.95      0.00
    2    0   11     -0.68      0.00
    2    0   10      2.27      0.00
    2    0    9      4.45      0.00
    2    0    8      3.87      0.00
    2    0    7      1.96      0.00
    2    0    6      1.22      0.00
    2    0    5      4.34      0.00
    2    0    4     10.74      0.00
    2    0    3     12.37      0.00
    2    0    2      3.74      0.00
    2    0    1     -4.81      0.00
    2    0    0     -0.14      0.00
   -2    0    1     11.36      0.00
   -2    0    2     13.68      0.00
   -2    0    3      6.19      0.00
   -2    0    4      0.49      0.00
   -2    0    5      1.18      0.00
   -2    0    6      4.13      0.00
   -2    0    7      5.49      0.00
   -2    0    8      4.36      0.00
   -2    0    9      2.06      0.00
   -2    0   10      1.14      0.00
   -2    0   11      2.03      0.00
   -2    0   12      2.32      0.00
   -2    0   13      0.79      0.00
    2   -1   14     -1.08      0.00
    2   -1   13     -1.19      0.00
    2   -1   12     -0.63      0.00
    2   -1   11      0.09      0.00
    2   -1   10      0.10      0.00
    2   -1    9     -0.47      0.00
    2   -1    8     -1.92      0.00
    2   -1    7     -4.81      0.00
    2   -1    6     -7.47      0.00
    2   -1    5     -7.83      0.00
    2   -1    4     -6.72      0.00
    2   -1    3     -5.16      0.00
    2   -1    2     -3.11      0.00
    2   -1    1     -2.71      0.00
   -2    1    0     -5.76      0.00
   -2    1    1     -8.71      0.00
   -2    1    2     -7.63      0.00
   -2    1    3     -4.41      0.00
   -2    1    4     -2.97      0.00
   -2    1    5     -3.71      0.00
   -2    1    6     -4.71      0.00
   -2    1    7     -4.71      0.00
   -2    1    8     -3.67      0.00
   -2    1    9     -2.32      0.00
   -2    1   10     -1.64      0.00
   -2    1   11     -2.10      0.00
   -2    1   12     -2.85      0.00
   -2    1   13     -2.24      0.00
    2   -2   13      0.54      0.00
    2   -2   12      1.57      0.00
    2   -2   11      1.82      0.00
    2   -2   10     -0.06      0.00
    2   -2    9     -1.57      0.00
    2   -2    8      0.86      0.00
    2   -2    7      6.80      0.00
    2   -2    6     11.88      0.00
    2   -2    5     11.49      0.00
    2   -2    4      4.37      0.00
    2   -2    3     -3.67      0.00
    2   -2    2     -2.26      0.00
    2   -2    1      9.32      0.00
   -2    2    0     16.81      0.00
   -2    2    1     10.45      0.00
   -2    2    2     -0.11      0.00
   -2    2    3     -1.70      0.00
   -2    2    4      3.99      0.00
   -2    2    5      7.72      0.00
   -2    2    6      6.70      0.00
   -2    2    7      4.21      0.00
   -2    2    8      3.08      0.00
   -2    2    9      3.26      0.00
   -2    2   10      3.04      0.00
   -2    2   11      1.86      0.00
   -2    2   12      1.08      0.00
   -2    2   13      1.22      0.00
    2   -3   13     -1.56      0.00
    2   -3   12     -1.27      0.00
    2   -3   11     -1.40      0.00
    2   -3   10     -1.05      0.00
    2   -3    9     -0.67      0.00
    2   -3    8     -2.73      0.00
    2   -3    7     -6.61      0.00
    2   -3    6     -8.35      0.00
    2   -3    5     -6.54      0.00
    2   -3    4     -3.16      0.00
    2   -3    3     -0.60      0.00
    2   -3    2     -1.54      0.00
    2   -3    1     -6.49      0.00
   -2    3    0    -10.44      0.00
   -2    3    1     -8.44      0.00
   -2    3    2     -2.95      0.00
   -2    3    3     -0.21      0.00
   -2    3    4     -2.16      0.00
   -2    3    5     -5.44      0.00
   -2    3    6     -6.32      0.00
   -2    3    7     -4.78      0.00
   -2    3    8     -3.51      0.00
   -2    3    9     -3.55      0.00
   -2    3   10     -3.31      0.00
   -2    3   11     -1.94      0.00
   -2    3   12     -0.53      0.00
   -2    3   13     -0.07      0.00
    2   -4   12      3.26      0.00
    2   -4   11      2.05      0.00
    2   -4   10      0.74      0.00
    2   -4    9      0.93      0.00
    2   -4    8      2.83      0.00
    2   -4    7      4.58      0.00
    2   -4    6      3.96      0.00
    2   -4    5      1.48      0.00
    2   -4    4      0.73      0.00
    2   -4    3      4.13      0.00
    2   -4    2      8.28      0.00
    2   -4    1      7.39      0.00
   -2    4    0      2.54      0.00
   -2    4    1      0.85      0.00
   -2    4    2      3.88      0.00
   -2    4    3      5.71      0.00
   -2    4    4      3.73      0.00
   -2    4    5      1.76      0.00
   -2    4    6      2.54      0.00
   -2    4    7      4.51      0.00
   -2    4    8      5.19      0.00
   -2    4    9      3.76      0.00
   -2    4   10      1.56      0.00
   -2    4   11      0.57      0.00
   -2    4   12      0.75      0.00
   -2    4   13      0.62      0.00
    2   -5   12     -3.95      0.00
    2   -5   11     -3.95      0.00
    2   -5   10     -1.80      0.00
    2   -5    9     -0.42      0.00
    2   -5    8     -0.78      0.00
    2   -5    7     -1.05      0.00
    2   -5    6     -0.93      0.00
    2   -5    5     -1.72      0.00
    2   -5    4     -3.24      0.00
    2   -5    3     -4.90      0.00
    2   -5    2     -6.27      0.00
    2   -5    1     -5.46      0.00
   -2    5    0     -2.01      0.00
   -2    5    1      0.29      0.00
   -2    5    2     -1.32      0.00
   -2    5    3     -4.04      0.00
   -2    5    4     -4.11      0.00
   -2    5    5     -2.39      0.00
   -2    5    6     -2.19      0.00
   -2    5    7     -3.92      0.00
   -2    5    8     -4.73      0.00
   -2    5    9     -3.10      0.00
   -2    5   10     -0.98      0.00
   -2    5   11     -0.40      0.00
   -2    5   12     -0.77      0.00
   -2    5   13     -0.74      0.00
    2   -6   11      1.57      0.00
    2   -6   10      1.23      0.00
    2   -6    9      1.28      0.00
    2   -6    8      1.29      0.00
    2   -6    7      0.54      0.00
    2   -6    6      0.39      0.00
    2   -6    5      2.58      0.00
    2   -6    4      5.69      0.00
    2   -6    3      6.23      0.00
    2   -6    2      3.49      0.00
    2   -6    1      0.68      0.00
   -2    6    0      0.47      0.00
   -2    6    1      1.52      0.00
   -2    6    2      1.33      0.00
   -2    6    3      0.41      0.00
   -2    6    4      0.86      0.00
   -2    6    5      2.97      0.00
   -2    6    6      5.03      0.00
   -2    6    7      5.03      0.00
   -2    6    8      2.80      0.00
   -2    6    9      0.95      0.00
   -2    6   10      1.40      0.00
   -2    6   11      2.33      0.00
   -2    6   12      1.60      0.00
    2   -7   10      1.72      0.00
    2   -7    9     -0.08      0.00
    2   -7    8     -1.91      0.00
    2   -7    7     -2.47      0.00
    2   -7    6     -2.88      0.00
    2   -7    5     -3.79      0.00
    2   -7    4     -4.57      0.00
    2   -7    3     -4.30      0.00
    2   -7    2     -2.39      0.00
    2   -7    1      0.05      0.00
   -2    7    0      0.55      0.00
   -2    7    1     -0.94      0.00
   -2    7    2     -1.70      0.00
   -2    7    3     -0.80      0.00
   -2    7    4     -0.44      0.00
   -2    7    5     -2.21      0.00
   -2    7    6     -4.56      0.00
   -2    7    7     -4.82      0.00
   -2    7    8     -2.84      0.00
   -2    7    9     -1.12      0.00
   -2    7   10     -1.15      0.00
   -2    7   11     -1.75      0.00
   -2    7   12     -1.48      0.00
    2   -8    9     -1.12      0.00
    2   -8    8      1.21      0.00
    2   -8    7      2.67      0.00
    2   -8    6      3.17      0.00
    2   -8    5      3.37      0.00
    2   -8    4      3.14      0.00
    2   -8    3      2.37      0.00
    2   -8    2      1.38      0.00
    2   -8    1      0.33      0.00
   -2    8    0     -0.50      0.00
   -2    8    1     -0.43      0.00
   -2    8    2      0.67      0.00
   -2    8    3      1.80      0.00
   -2    8    4      2.34      0.00
   -2    8    5      2.78      0.00
   -2    8    6      3.32      0.00
   -2    8    7      3.41      0.00
   -2    8    8      3.04      0.00
   -2    8    9      2.32      0.00
   -2    8   10      0.98      0.00
   -2    8   11     -0.09      0.00
    2   -9    7     -1.88      0.00
    2   -9    6     -0.94      0.00
    2   -9    5     -0.20      0.00
    2   -9    4     -1.18      0.00
    2   -9    3     -2.28      0.00
    2   -9    2     -1.75      0.00
    2   -9    1     -0.34      0.00
   -2    9    0      0.65      0.00
   -2    9    1      1.03      0.00
   -2    9    2      0.72      0.00
   -2    9    3     -0.28      0.00
   -2    9    4     -1.58      0.00
   -2    9    5     -2.87      0.00
   -2    9    6     -3.76      0.00
   -2    9    7     -3.71      0.00
   -2    9    8     -2.80      0.00
   -2    9    9     -1.61      0.00
   -2    9   10     -0.56      0.00
    2  -10    6     -0.09      0.00
    2  -10    5     -0.99      0.00
    2  -10    4     -0.29      0.00
    2  -10    3      1.51      0.00
    2  -10    2      2.18      0.00
    2  -10    1      1.24      0.00
   -2   10    0      0.01      0.00
   -2   10    1     -0.85      0.00
   -2   10    2     -1.38      0.00
   -2   10    3     -0.90      0.00
   -2   10    4      0.87      0.00
   -2   10    5      2.47      0.00
   -2   10    6      2.69      0.00
   -2   10    7      2.37      0.00
   -2   10    8      2.30      0.00
   -2   10    9      1.77      0.00
    2  -11    3     -0.83      0.00
    2  -11    2     -1.74      0.00
    2  -11    1     -2.10      0.00
   -2   11    0     -0.93      0.00
   -2   11    1      1.03      0.00
   -2   11    2      1.91      0.00
   -2   11    3      0.54      0.00
   -2   11    4     -2.09      0.00
   -2   11    5     -3.11      0.00
   -2   11    6     -1.46      0.00
   -2   11    7      0.08      0.00
   -2   12    1     -0.38      0.00
   -2   12    2     -1.47      0.00
   -2   12    3     -0.66      0.00
   -2   12    4      1.27      0.00
    1   12    7      1.35      0.00
    1   12    6      1.69      0.00
    1   12    5      1.07      0.00
    1   12    4      0.14      0.00
    1   12    3     -0.05      0.00
    1   12    2      0.80      0.00
    1   12    1      1.30      0.00
    1   12    0     -0.36      0.00
   -1  -12    1     -3.30      0.00
    1   11    9      0.75      0.00
    1   11    8     -1.14      0.00
    1   11    7     -2.26      0.00
    1   11    6     -1.97      0.00
    1   11    5     -0.82      0.00
    1   11    4      0.25      0.00
    1   11    3      0.12      0.00
    1   11    2     -1.32      0.00
    1   11    1     -1.80      0.00
    1   11    0      0.74      0.00
   -1  -11    1      4.51      0.00
   -1  -11    2      6.02      0.00
   -1  -11    3      4.41      0.00
   -1  -11    4      1.44      0.00
    1   10   11     -1.42      0.00
    1   10   10     -0.92      0.00
    1   10    9     -0.57      0.00
    1   10    8      0.31      0.00
    1   10    7      1.27      0.00
    1   10    6      1.47      0.00
    1   10    5      0.98      0.00
    1   10    4      0.17      0.00
    1   10    3     -0.43      0.00
    1   10    2     -0.15      0.00
    1   10    1      0.40      0.00
    1   10    0     -0.35      0.00
   -1  -10    1     -2.54      0.00
   -1  -10    2     -4.26      0.00
   -1  -10    3     -3.41      0.00
   -1  -10    4     -0.06      0.00
   -1  -10    5      2.96      0.00
   -1  -10    6      2.78      0.00
    1    9   12      1.59      0.00
    1    9   11     -0.08      0.00
    1    9   10     -0.27      0.00
    1    9    9      0.79      0.00
    1    9    8      0.67      0.00
    1    9    7     -0.87      0.00
    1    9    6     -1.77      0.00
    1    9    5     -1.20      0.00
    1    9    4     -0.45      0.00
    1    9    3     -0.05      0.00
    1    9    2      0.96      0.00
    1    9    1      2.17      0.00
    1    9    0      1.71      0.00
   -1   -9    1      0.09      0.00
   -1   -9    2     -0.57      0.00
   -1   -9    3     -0.89      0.00
   -1   -9    4     -2.57      0.00
   -1   -9    5     -3.87      0.00
   -1   -9    6     -2.20      0.00
   -1   -9    7      1.10      0.00
    1    8   13      0.68      0.00
    1    8   12      0.60      0.00
    1    8   11      0.44      0.00
    1    8   10     -0.34      0.00
    1    8    9     -1.02      0.00
    1    8    8     -0.65      0.00
    1    8    7      0.70      0.00
    1    8    6      1.54      0.00
    1    8    5      0.85      0.00
    1    8    4      0.17      0.00
    1    8    3      0.70      0.00
    1    8    2      0.23      0.00
    1    8    1     -2.39      0.00
    1    8    0     -3.44      0.00
   -1   -8    1     -0.38      0.00
   -1   -8    2      3.54      0.00
   -1   -8    3      4.67      0.00
   -1   -8    4      3.70      0.00
   -1   -8    5      2.16      0.00
   -1   -8    6     -0.05      0.00
   -1   -8    7     -2.21      0.00
   -1   -8    8     -2.36      0.00
    1    7   13     -4.49      0.00
    1    7   12     -3.79      0.00
    1    7   11     -1.27      0.00
    1    7   10      0.19      0.00
    1    7    9     -0.02      0.00
    1    7    8      0.15      0.00
    1    7    7      1.15      0.00
    1    7    6      1.28      0.00
    1    7    5     -0.07      0.00
    1    7    4     -1.34      0.00
    1    7    3     -0.96      0.00
    1    7    2      0.74      0.00
    1    7    1      1.96      0.00
    1    7    0      1.49      0.00
   -1   -7    1     -0.35      0.00
   -1   -7    2     -2.40      0.00
   -1   -7    3     -3.11      0.00
   -1   -7    4     -1.80      0.00
   -1   -7    5      0.14      0.00
   -1   -7    6      1.20      0.00
   -1   -7    7      1.62      0.00
   -1   -7    8      1.65      0.00
   -1   -7    9      0.84      0.00
    1    6   14      1.20      0.00
    1    6   13      3.50      0.00
    1    6   12      4.82      0.00
    1    6   11      4.38      0.00
    1    6   10      2.63      0.00
    1    6    9      0.43      0.00
    1    6    8     -1.32      0.00
    1    6    7     -2.47      0.00
    1    6    6     -2.86      0.00
    1    6    5     -1.24      0.00
    1    6    4      1.81      0.00
    1    6    3      2.34      0.00
    1    6    2     -0.65      0.00
    1    6    1     -2.29      0.00
    1    6    0     -0.16      0.00
   -1   -6    1      1.95      0.00
   -1   -6    2      1.32      0.00
   -1   -6    3     -0.20      0.00
   -1   -6    4     -0.89      0.00
   -1   -6    5     -1.06      0.00
   -1   -6    6     -0.79      0.00
   -1   -6    7     -0.10      0.00
   -1   -6    8     -0.05      0.00
   -1   -6    9     -1.06      0.00
   -1   -6   10     -1.57      0.00
    1    5   14      1.38      0.00
    1    5   13      0.92      0.00
    1    5   12     -2.03      0.00
    1    5   11     -4.82      0.00
    1    5   10     -3.67      0.00
    1    5    9      0.64      0.00
    1    5    8      3.18      0.00
    1    5    7      2.10      0.00
    1    5    6      0.83      0.00
    1    5    5      1.76      0.00
    1    5    4      2.78      0.00
    1    5    3      1.12      0.00
    1    5    2     -2.51      0.00
    1    5    1     -4.58      0.00
    1    5    0     -3.04      0.00
   -1   -5    1      0.08      0.00
   -1   -5    2      1.65      0.00
   -1   -5    3      1.20      0.00
   -1   -5    4     -0.02      0.00
   -1   -5    5     -0.90      0.00
   -1   -5    6     -0.96      0.00
   -1   -5    7     -0.68      0.00
   -1   -5    8     -0.54      0.00
   -1   -5    9      0.21      0.00
   -1   -5   10      1.33      0.00
   -1   -5   11      0.99      0.00
    1    4   14     -1.74      0.00
    1    4   13     -2.27      0.00
    1    4   12     -0.82      0.00
    1    4   11      0.64      0.00
    1    4   10      0.28      0.00
    1    4    9     -0.79      0.00
    1    4    8     -1.20      0.00
    1    4    7     -1.21      0.00
    1    4    6     -1.24      0.00
    1    4    5     -2.53      0.00
    1    4    4     -5.76      0.00
    1    4    3     -6.12      0.00
    1    4    2      1.39      0.00
    1    4    1     10.17      0.00
    1    4    0      9.05      0.00
   -1   -4    1      0.09      0.00
   -1   -4    2     -4.88      0.00
   -1   -4    3     -2.15      0.00
   -1   -4    4      2.15      0.00
   -1   -4    5      3.47      0.00
   -1   -4    6      2.52      0.00
   -1   -4    7      1.18      0.00
   -1   -4    8      0.39      0.00
   -1   -4    9      0.34      0.00
   -1   -4   10      0.52      0.00
   -1   -4   11      0.23      0.00
   -1   -4   12     -0.31      0.00
    1    3   14      0.85      0.00
    1    3   13      0.55      0.00
    1    3   12      1.45      0.00
    1    3   11      2.82      0.00
    1    3   10      1.87      0.00
    1    3    9     -1.91      0.00
    1    3    8     -4.20      0.00
    1    3    7     -0.94      0.00
    1    3    6      5.57      0.00
    1    3    5      9.15      0.00
    1    3    4      6.44      0.00
    1    3    3     -0.45      0.00
    1    3    2     -5.68      0.00
    1    3    1     -4.97      0.00
    1    3    0     -0.64      0.00
   -1   -3    1      1.64      0.00
   -1   -3    2      0.37      0.00
   -1   -3    3     -1.64      0.00
   -1   -3    4     -2.21      0.00
   -1   -3    5     -1.30      0.00
   -1   -3    6     -0.19      0.00
   -1   -3    7     -0.17      0.00
   -1   -3    8     -0.80      0.00
   -1   -3    9     -0.92      0.00
   -1   -3   10     -0.47      0.00
   -1   -3   11      0.44      0.00
   -1   -3   12      1.75      0.00
    1    2   14      0.46      0.00
    1    2   13      0.82      0.00
    1    2   12     -1.28      0.00
    1    2   11     -3.24      0.00
    1    2   10     -0.72      0.00
    1    2    9      4.61      0.00
    1    2    8      6.68      0.00
    1    2    7      2.59      0.00
    1    2    6     -6.17      0.00
    1    2    5    -14.02      0.00
    1    2    4    -11.57      0.00
    1    2    3      2.15      0.00
    1    2    2     11.24      0.00
    1    2    1      3.70      0.00
    1    2    0     -8.00      0.00
   -1   -2    1     -6.55      0.00
   -1   -2    2      3.37      0.00
   -1   -2    3      6.81      0.00
   -1   -2    4      2.11      0.00
   -1   -2    5     -2.51      0.00
   -1   -2    6     -3.29      0.00
   -1   -2    7     -1.75      0.00
   -1   -2    8      0.00      0.00
   -1   -2    9      0.43      0.00
   -1   -2   10     -0.92      0.00
   -1   -2   11     -2.63      0.00
   -1   -2   12     -2.98      0.00
   -1   -2   13     -1.98      0.00
    1    1   14     -2.25      0.00
    1    1   13     -1.12      0.00
    1    1   12      0.97      0.00
    1    1   11      1.68      0.00
    1    1   10     -0.64      0.00
    1    1    9     -3.64      0.00
    1    1    8     -3.37      0.00
    1    1    7      0.16      0.00
    1    1    6      4.10      0.00
    1    1    5      7.52      0.00
    1    1    4     10.50      0.00
    1    1    3     11.33      0.00
    1    1    2      8.01      0.00
    1    1    1      0.87      0.00
    1    1    0     -6.26      0.00
   -1   -1    1     -8.33      0.00
   -1   -1    2     -4.71      0.00
   -1   -1    3      0.02      0.00
   -1   -1    4      2.40      0.00
   -1   -1    5      2.80      0.00
   -1   -1    6      2.22      0.00
   -1   -1    7      1.24      0.00
   -1   -1    8      0.73      0.00
   -1   -1    9      0.84      0.00
   -1   -1   10      1.22      0.00
   -1   -1   11      1.83      0.00
   -1   -1   12      2.10      0.00
   -1   -1   13      1.46      0.00
    1    0   14      2.38      0.00
    1    0   13      1.09      0.00
    1    0   12     -0.74      0.00
    1    0   11     -0.67      0.00
    1    0   10      0.79      0.00
    1    0    9      1.57      0.00
    1    0    8      0.39      0.00
    1    0    7     -2.42      0.00
    1    0    6     -4.06      0.00
    1    0    5     -2.76      0.00
    1    0    4     -4.83      0.00
    1    0    3    -16.79      0.00
    1    0    2    -26.30      0.00
    1    0    1    -12.99      0.00
    1    0    0     15.19      0.00
   -1    0    1     26.13      0.00
   -1    0    2     10.67      0.00
   -1    0    3     -6.88      0.00
   -1    0    4     -8.94      0.00
   -1    0    5     -3.24      0.00
   -1    0    6     -0.45      0.00
   -1    0    7     -0.29      0.00
   -1    0    8     -0.17      0.00
   -1    0    9     -0.08      0.00
   -1    0   10      0.38      0.00
   -1    0   11      1.16      0.00
   -1    0   12      0.77      0.00
   -1    0   13     -0.87      0.00
    1   -1   14     -0.21      0.00
    1   -1   13     -1.13      0.00
    1   -1   12     -0.43      0.00
    1   -1   11      1.35      0.00
    1   -1   10      1.91      0.00
    1   -1    9      0.48      0.00
    1   -1    8     -1.44      0.00
    1   -1    7     -1.43      0.00
    1   -1    6      1.56      0.00
    1   -1    5      5.99      0.00
    1   -1    4     10.65      0.00
    1   -1    3     15.01      0.00
    1   -1    2     14.38      0.00
    1   -1    1      4.02      0.00
   -1    1    0     -9.29      0.00
   -1    1    1    -12.61      0.00
   -1    1    2     -4.83      0.00
   -1    1    3      3.08      0.00
   -1    1    4      4.65      0.00
   -1    1    5      3.16      0.00
   -1    1    6      2.46      0.00
   -1    1    7      1.87      0.00
   -1    1    8      0.23      0.00
   -1    1    9     -1.17      0.00
   -1    1   10     -1.34      0.00
   -1    1   11     -1.39      0.00
   -1    1   12     -1.66      0.00
   -1    1   13     -0.76      0.00
   -1    1   14      0.94      0.00
    1   -2   13      0.59      0.00
    1   -2   12      1.50      0.00
    1   -2   11     -1.01      0.00
    1   -2   10     -4.46      0.00
    1   -2    9     -3.90      0.00
    1   -2    8      0.56      0.00
    1   -2    7      3.68      0.00
    1   -2    6      1.37      0.00
    1   -2    5     -6.43      0.00
    1   -2    4    -15.19      0.00
    1   -2    3    -15.44      0.00
    1   -2    2     -2.65      0.00
    1   -2    1     10.87      0.00
   -1    2    0      9.06      0.00
   -1    2    1     -3.36      0.00
   -1    2    2     -8.26      0.00
   -1    2    3     -2.31      0.00
   -1    2    4      2.44      0.00
   -1    2    5      0.37      0.00
   -1    2    6     -3.03      0.00
   -1    2    7     -2.80      0.00
   -1    2    8      0.10      0.00
   -1    2    9      1.88      0.00
   -1    2   10      0.41      0.00
   -1    2   11     -1.95      0.00
   -1    2   12     -1.59      0.00
   -1    2   13      0.66      0.00
   -1    2   14      1.33      0.00
    1   -3   13     -0.60      0.00
    1   -3   12     -0.64      0.00
    1   -3   11      0.90      0.00
    1   -3   10      4.13      0.00
    1   -3    9      5.84      0.00
    1   -3    8      3.74      0.00
    1   -3    7      0.85      0.00
    1   -3    6      1.12      0.00
    1   -3    5      4.35      0.00
    1   -3    4      7.72      0.00
    1   -3    3      7.87      0.00
    1   -3    2      3.03      0.00
    1   -3    1     -3.02      0.00
   -1    3    0     -3.90      0.00
   -1    3    1      0.18      0.00
   -1    3    2      3.09      0.00
   -1    3    3      2.10      0.00
   -1    3    4      0.11      0.00
   -1    3    5     -0.04      0.00
   -1    3    6      0.79      0.00
   -1    3    7      0.03      0.00
   -1    3    8     -2.30      0.00
   -1    3    9     -2.79      0.00
   -1    3   10      0.37      0.00
   -1    3   11      4.09      0.00
   -1    3   12      4.41      0.00
   -1    3   13      1.57      0.00
   -1    3   14     -0.95      0.00
    1   -4   12      1.35      0.00
    1   -4   11     -1.47      0.00
    1   -4   10     -4.76      0.00
    1   -4    9     -6.87      0.00
    1   -4    8     -6.96      0.00
    1   -4    7     -5.37      0.00
    1   -4    6     -3.49      0.00
    1   -4    5     -2.27      0.00
    1   -4    4     -0.93      0.00
    1   -4    3      0.42      0.00
    1   -4    2     -1.09      0.00
    1   -4    1     -5.30      0.00
   -1    4    0     -5.55      0.00
   -1    4    1      1.07      0.00
   -1    4    2      6.53      0.00
   -1    4    3      3.82      0.00
   -1    4    4     -2.31      0.00
   -1    4    5     -4.11      0.00
   -1    4    6     -1.15      0.00
   -1    4    7      2.59      0.00
   -1    4    8      4.06      0.00
   -1    4    9      2.33      0.00
   -1    4   10     -0.96      0.00
   -1    4   11     -3.08      0.00
   -1    4   12     -3.20      0.00
   -1    4   13     -2.26      0.00
   -1    4   14     -1.02      0.00
    1   -5   12     -3.04      0.00
    1   -5   11     -0.20      0.00
    1   -5   10      4.51      0.00
    1   -5    9      7.59      0.00
    1   -5    8      8.24      0.00
    1   -5    7      6.73      0.00
    1   -5    6      2.81      0.00
    1   -5    5     -1.33      0.00
    1   -5    4     -2.45      0.00
    1   -5    3     -0.83      0.00
    1   -5    2      1.39      0.00
    1   -5    1      3.34      0.00
   -1    5    0      3.46      0.00
   -1    5    1      0.13      0.00
   -1    5    2     -4.07      0.00
   -1    5    3     -4.45      0.00
   -1    5    4     -0.78      0.00
   -1    5    5      2.45      0.00
   -1    5    6      1.97      0.00
   -1    5    7     -0.68      0.00
   -1    5    8     -2.03      0.00
   -1    5    9     -1.21      0.00
   -1    5   10      0.18      0.00
   -1    5   11      1.18      0.00
   -1    5   12      1.89      0.00
   -1    5   13      2.12      0.00
    1   -6   11      0.62      0.00
    1   -6   10     -1.66      0.00
    1   -6    9     -4.39      0.00
    1   -6    8     -6.21      0.00
    1   -6    7     -5.94      0.00
    1   -6    6     -2.76      0.00
    1   -6    5      1.88      0.00
    1   -6    4      3.93      0.00
    1   -6    3      1.25      0.00
    1   -6    2     -2.67      0.00
    1   -6    1     -2.75      0.00
   -1    6    0      0.41      0.00
   -1    6    1      1.76      0.00
   -1    6    2      0.44      0.00
   -1    6    3      0.28      0.00
   -1    6    4      2.09      0.00
   -1    6    5      2.48      0.00
   -1    6    6      0.22      0.00
   -1    6    7     -2.06      0.00
   -1    6    8     -1.69      0.00
   -1    6    9      0.88      0.00
   -1    6   10      2.32      0.00
   -1    6   11      0.39      0.00
   -1    6   12     -2.59      0.00
   -1    6   13     -3.10      0.00
    1   -7   10      1.22      0.00
    1   -7    9      0.90      0.00
    1   -7    8      1.74      0.00
    1   -7    7      2.87      0.00
    1   -7    6      2.63      0.00
    1   -7    5      0.83      0.00
    1   -7    4     -1.24      0.00
    1   -7    3     -1.57      0.00
    1   -7    2      0.22      0.00
    1   -7    1      1.41      0.00
   -1    7    0      0.25      0.00
   -1    7    1     -0.79      0.00
   -1    7    2      0.16      0.00
   -1    7    3      0.65      0.00
   -1    7    4     -1.24      0.00
   -1    7    5     -2.86      0.00
   -1    7    6     -1.30      0.00
   -1    7    7      1.54      0.00
   -1    7    8      1.67      0.00
   -1    7    9     -0.84      0.00
   -1    7   10     -1.98      0.00
   -1    7   11     -0.04      0.00
   -1    7   12      2.33      0.00
   -1    7   13      2.59      0.00
    1   -8    9     -0.34      0.00
    1   -8    8      0.30      0.00
    1   -8    7     -0.94      0.00
    1   -8    6     -2.32      0.00
    1   -8    5     -2.06      0.00
    1   -8    4     -0.68      0.00
    1   -8    3      0.34      0.00
    1   -8    2      0.46      0.00
    1   -8    1     -0.01      0.00
   -1    8    0     -0.71      0.00
   -1    8    1     -1.06      0.00
   -1    8    2     -0.65      0.00
   -1    8    3      0.21      0.00
   -1    8    4      0.99      0.00
   -1    8    5      1.35      0.00
   -1    8    6      0.96      0.00
   -1    8    7      0.30      0.00
   -1    8    8      0.24      0.00
   -1    8    9      0.14      0.00
   -1    8   10     -0.85      0.00
   -1    8   11     -1.54      0.00
   -1    8   12     -0.94      0.00
    1   -9    7      1.32      0.00
    1   -9    6      2.58      0.00
    1   -9    5      1.47      0.00
    1   -9    4     -0.59      0.00
    1   -9    3     -0.80      0.00
    1   -9    2      0.46      0.00
    1   -9    1      1.19      0.00
   -1    9    0      1.45      0.00
   -1    9    1      1.79      0.00
   -1    9    2      1.37      0.00
   -1    9    3     -0.07      0.00
   -1    9    4     -1.43      0.00
   -1    9    5     -1.97      0.00
   -1    9    6     -1.88      0.00
   -1    9    7     -1.37      0.00
   -1    9    8     -0.37      0.00
   -1    9    9      0.96      0.00
   -1    9   10      1.79      0.00
   -1    9   11      1.32      0.00
    1  -10    6     -1.21      0.00
    1  -10    5      0.20      0.00
    1  -10    4      1.70      0.00
    1  -10    3      1.55      0.00
    1  -10    2     -0.02      0.00
    1  -10    1     -1.46      0.00
   -1   10    0     -2.17      0.00
   -1   10    1     -2.40      0.00
   -1   10    2     -1.75      0.00
   -1   10    3      0.25      0.00
   -1   10    4      2.26      0.00
   -1   10    5      2.31      0.00
   -1   10    6      0.91      0.00
   -1   10    7      0.14      0.00
   -1   10    8      0.09      0.00
   -1   10    9     -0.39      0.00
   -1   10   10     -0.85      0.00
    1  -11    4     -1.58      0.00
    1  -11    3     -1.04      0.00
    1  -11    2     -0.53      0.00
    1  -11    1      0.48      0.00
   -1   11    0      1.90      0.00
   -1   11    1      2.27      0.00
   -1   11    2      0.70      0.00
   -1   11    3     -1.90      0.00
   -1   11    4     -3.15      0.00
   -1   11    5     -1.38      0.00
   -1   11    6      1.67      0.00
   -1   11    7      2.49      0.00
   -1   11    8      0.84      0.00
    1  -12    1      0.03      0.00
   -1   12    0     -0.51      0.00
   -1   12    1     -0.74      0.00
   -1   12    2      0.32      0.00
   -1   12    3      2.04      0.00
   -1   12    4      2.47      0.00
   -1   12    5      0.81      0.00
   -1   12    6     -1.43      0.00
    0   12    7     -0.08      0.00
    0   12    6     -0.07      0.00
    0   12    5     -0.28      0.00
    0   12    4     -0.24      0.00
    0   12    3      0.35      0.00
    0   12    2      1.23      0.00
    0   12    1      1.63      0.00
    0   12    0      1.15      0.00
    0  -12    1      0.40      0.00
    0   11    9      0.44      0.00
    0   11    8     -0.37      0.00
    0   11    7     -0.12      0.00
    0   11    6      0.44      0.00
    0   11    5      0.40      0.00
    0   11    4      0.15      0.00
    0   11    3      0.04      0.00
    0   11    2     -0.13      0.00
    0   11    1     -0.17      0.00
    0   11    0      0.04      0.00
    0  -11    1      0.09      0.00
    0  -11    2      0.04      0.00
    0  -11    3      0.00      0.00
    0  -11    4     -0.53      0.00
    0   10   10     -1.33      0.00
    0   10    9     -1.63      0.00
    0   10    8     -0.69      0.00
    0   10    7      0.45      0.00
    0   10    6      1.05      0.00
    0   10    5      1.17      0.00
    0   10    4      0.46      0.00
    0   10    3     -0.97      0.00
    0   10    2     -1.69      0.00
    0   10    1     -0.90      0.00
    0   10    0      0.32      0.00
    0  -10    1      0.55      0.00
    0  -10    2      0.11      0.00
    0  -10    3      0.51      0.00
    0  -10    4      1.82      0.00
    0  -10    5      1.99      0.00
    0  -10    6      0.03      0.00
    0    9   12     -1.15      0.00
    0    9   11     -1.37      0.00
    0    9   10      0.09      0.00
    0    9    9      1.21      0.00
    0    9    8      0.48      0.00
    0    9    7     -1.12      0.00
    0    9    6     -1.84      0.00
    0    9    5     -1.45      0.00
    0    9    4     -0.65      0.00
    0    9    3      0.40      0.00
    0    9    2      1.44      0.00
    0    9    1      0.96      0.00
    0    9    0     -1.15      0.00
    0   -9    1     -2.32      0.00
    0   -9    2     -1.52      0.00
    0   -9    3     -1.17      0.00
    0   -9    4     -2.03      0.00
    0   -9    5     -1.63      0.00
    0   -9    6      0.62      0.00
    0   -9    7      2.17      0.00
    0    8   12      0.66      0.00
    0    8   11      0.76      0.00
    0    8   10      1.03      0.00
    0    8    9      1.53      0.00
    0    8    8      1.43      0.00
    0    8    7      0.81      0.00
    0    8    6      0.40      0.00
    0    8    5      0.52      0.00
    0    8    4      1.30      0.00
    0    8    3      2.07      0.00
    0    8    2      1.61      0.00
    0    8    1      0.70      0.00
    0    8    0      1.23      0.00
    0   -8    1      2.61      0.00
    0   -8    2      2.77      0.00
    0   -8    3      1.75      0.00
    0   -8    4      0.90      0.00
    0   -8    5      0.33      0.00
    0   -8    6     -0.19      0.00
    0   -8    7     -0.07      0.00
    0   -8    8      0.69      0.00
    0    7   13     -0.44      0.00
    0    7   12      1.41      0.00
    0    7   11      1.15      0.00
    0    7   10     -1.81      0.00
    0    7    9     -3.56      0.00
    0    7    8     -1.30      0.00
    0    7    7      2.02      0.00
    0    7    6      2.04      0.00
    0    7    5     -0.90      0.00
    0    7    4     -3.25      0.00
    0    7    3     -3.76      0.00
    0    7    2     -4.21      0.00
    0    7    1     -5.03      0.00
    0    7    0     -4.31      0.00
    0   -7    1     -2.09      0.00
    0   -7    2     -0.77      0.00
    0   -7    3     -0.85      0.00
    0   -7    4     -0.88      0.00
    0   -7    5     -0.80      0.00
    0   -7    6     -1.16      0.00
    0   -7    7     -1.41      0.00
    0   -7    8     -1.27      0.00
    0    6   13      0.91      0.00
    0    6   12     -0.28      0.00
    0    6   11     -0.06      0.00
    0    6   10      1.49      0.00
    0    6    9      1.92      0.00
    0    6    8      0.06      0.00
    0    6    7     -2.35      0.00
    0    6    6     -2.32      0.00
    0    6    5      1.06      0.00
    0    6    4      4.63      0.00
    0    6    3      5.42      0.00
    0    6    2      5.55      0.00
    0    6    1      7.37      0.00
    0    6    0      7.79      0.00
    0   -6    1      4.14      0.00
    0   -6    2      0.10      0.00
    0   -6    3     -0.19      0.00
    0   -6    4      1.84      0.00
    0   -6    5      2.97      0.00
    0   -6    6      2.73      0.00
    0   -6    7      1.97      0.00
    0   -6    8      0.80      0.00
    0   -6   11      0.93      0.00
    0    5   14      0.47      0.00
    0    5   13     -0.52      0.00
    0    5   12     -2.17      0.00
    0    5   11     -2.40      0.00
    0    5   10     -0.66      0.00
    0    5    9      0.65      0.00
    0    5    8     -0.42      0.00
    0    5    7     -2.05      0.00
    0    5    6     -1.59      0.00
    0    5    5     -0.34      0.00
    0    5    4     -1.97      0.00
    0    5    3     -7.16      0.00
    0    5    2    -11.58      0.00
    0    5    1    -10.77      0.00
    0    5    0     -5.93      0.00
    0   -5    1     -2.24      0.00
    0   -5    2     -2.04      0.00
    0   -5    3     -3.66      0.00
    0   -5    4     -5.04      0.00
    0   -5    5     -4.80      0.00
    0   -5    6     -2.79      0.00
    0   -5    7     -1.05      0.00
    0   -5    8     -0.80      0.00
    0   -5    9     -0.60      0.00
    0   -5   10      0.13      0.00
    0   -5   11      0.09      0.00
    0    4   14     -0.42      0.00
    0    4   13      0.48      0.00
    0    4   12      1.79      0.00
    0    4   11      1.62      0.00
    0    4   10      0.44      0.00
    0    4    9      0.45      0.00
    0    4    8      2.14      0.00
    0    4    7      4.08      0.00
    0    4    6      4.40      0.00
    0    4    5      2.08      0.00
    0    4    4      0.56      0.00
    0    4    3      5.77      0.00
    0    4    2     14.85      0.00
    0    4    1     16.15      0.00
    0    4    0      7.14      0.00
    0   -4    1     -0.35      0.00
    0   -4    2      1.53      0.00
    0   -4    3      7.04      0.00
    0   -4    4      8.59      0.00
    0   -4    5      5.82      0.00
    0   -4    6      2.03      0.00
    0   -4    7     -0.09      0.00
    0   -4    8      0.45      0.00
    0   -4    9      2.17      0.00
    0   -4   10      2.42      0.00
    0   -4   11      0.71      0.00
    0   -4   12     -0.87      0.00
    0    3   14     -1.18      0.00
    0    3   13     -1.82      0.00
    0    3   12     -0.92      0.00
    0    3   11     -0.28      0.00
    0    3   10     -1.74      0.00
    0    3    9     -3.88      0.00
    0    3    8     -3.80      0.00
    0    3    7     -1.65      0.00
    0    3    6     -0.46      0.00
    0    3    5     -2.13      0.00
    0    3    4     -5.93      0.00
    0    3    3     -9.69      0.00
    0    3    2    -11.28      0.00
    0    3    1    -10.95      0.00
    0    3    0    -10.76      0.00
    0   -3    1    -10.55      0.00
    0   -3    2     -8.59      0.00
    0   -3    3     -5.76      0.00
    0   -3    4     -3.82      0.00
    0   -3    5     -2.44      0.00
    0   -3    6     -1.35      0.00
    0   -3    7     -1.37      0.00
    0   -3    8     -2.11      0.00
    0   -3    9     -2.67      0.00
    0   -3   10     -2.84      0.00
    0   -3   11     -2.09      0.00
    0   -3   12     -0.48      0.00
    0   -3   13      0.38      0.00
    0    2   14      0.60      0.00
    0    2   13      1.55      0.00
    0    2   12      0.91      0.00
    0    2   11      1.22      0.00
    0    2   10      3.99      0.00
    0    2    9      6.15      0.00
    0    2    8      4.83      0.00
    0    2    7      1.01      0.00
    0    2    6     -2.73      0.00
    0    2    5     -2.42      0.00
    0    2    4      4.98      0.00
    0    2    3     14.12      0.00
    0    2    2     16.50      0.00
    0    2    1     15.65      0.00
    0    2    0     20.63      0.00
    0   -2    1     25.99      0.00
    0   -2    2     19.56      0.00
    0   -2    3      4.96      0.00
    0   -2    4     -3.86      0.00
    0   -2    5     -3.28      0.00
    0   -2    6      0.41      0.00
    0   -2    7      3.09      0.00
    0   -2    8      4.21      0.00
    0   -2    9      3.53      0.00
    0   -2   10      2.13      0.00
    0   -2   11      1.91      0.00
    0   -2   12      2.53      0.00
    0   -2   13      2.15      0.00
    0    1   14      0.57      0.00
    0    1   13      0.55      0.00
    0    1   12     -0.54      0.00
    0    1   11     -2.26      0.00
    0    1   10     -4.29      0.00
    0    1    9     -5.36      0.00
    0    1    8     -4.55      0.00
    0    1    7     -3.09      0.00
    0    1    6     -1.56      0.00
    0    1    5      1.53      0.00
    0    1    4      4.65      0.00
    0    1    3     -0.33      0.00
    0    1    2    -20.18      0.00
    0    1    1    -46.67      0.00
    0    1    0    -58.15      0.00
    0   -1    1    -42.93      0.00
    0   -1    2    -15.08      0.00
    0   -1    3      2.98      0.00
    0   -1    4      5.47      0.00
    0   -1    5      1.34      0.00
    0   -1    6     -1.97      0.00
    0   -1    7     -3.27      0.00
    0   -1    8     -3.44      0.00
    0   -1    9     -3.19      0.00
    0   -1   10     -2.70      0.00
    0   -1   11     -2.21      0.00
    0   -1   12     -2.22      0.00
    0   -1   13     -2.30      0.00
    0    0   14      0.48      0.00
    0    0   13     -0.22      0.00
    0    0   12      0.84      0.00
    0    0   11      2.63      0.00
    0    0   10      3.32      0.00
    0    0    9      3.17      0.00
    0    0    8      3.16      0.00
    0    0    7      3.69      0.00
    0    0    6      4.66      0.00
    0    0    5      2.34      0.00
    0    0    4     -7.13      0.00
    0    0    3    -11.73      0.00
    0    0    2     12.32      0.00
    0    0    1     60.18      0.00
    0   -6   10     -0.10      0.00
    0   -6    9     -0.26      0.00
    0   -7   10     -0.78      0.00
    0   -7    9     -1.08      0.00
    0   -8    9      0.77      0.00
    0   10   11     -0.59      0.00
    9    0    0     -0.20      0.00
   -9    1    0      0.54      0.00
    9    1    0     -0.84      0.00
   -9    2    0     -0.03      0.00
    9    2    0      0.86      0.00
    9    3    0     -0.31      0.00
   -8    5    0      1.86      0.00
   -8    6    0     -1.52      0.00
    8    6    0      2.35      0.00
   -7    8    0     -1.06      0.00
    7    8    0      0.82      0.00
   -6    9    0      0.81      0.00
    6   10    0      0.86      0.00
   -4   11    0     -0.89      0.00
    5   11    0      0.31      0.00
   -3   12    0      1.47      0.00
   -2   12    0      0.98      0.00
    3   12    0     -0.95      0.00
   -3  -12    1     -1.03      0.00
   -2  -12    1      0.06      0.00
    2  -12    1      1.12      0.00
   -4  -11    1     -0.81      0.00
    4  -11    1      0.21      0.00
    5  -10    1      0.52      0.00
    6   -9    1      0.69      0.00
   -7   -8    1      0.44      0.00
    7   -8    1     -0.05      0.00
   -8   -6    1      1.47      0.00
    8   -6    1     -1.95      0.00
    9   -3    1      0.75      0.00
   -9   -2    1      0.23      0.00
    9   -2    1     -0.33      0.00
   -9   -1    1     -0.32      0.00
    9   -1    1     -1.18      0.00
   -9    0    1     -0.87      0.00
    9    0    1      1.61      0.00
   -9    1    1      1.33      0.00
    9    1    1     -0.91      0.00
    9    2    1      0.21      0.00
    9    3    1      0.11      0.00
    9    4    1     -0.18      0.00
   -8    5    1      0.79      0.00
   -8    6    1      0.15      0.00
    8    7    1     -0.60      0.00
   -7    8    1     -1.34      0.00
   -6    9    1      0.77      0.00
    7    9    1      1.13      0.00
    6   10    1      0.29      0.00
   -4   11    1     -1.03      0.00
    5   11    1      2.00      0.00
   -3   12    1      1.25      0.00
    4   12    1      1.65      0.00
   -2  -12    2     -0.59      0.00
   -1  -12    2     -4.39      0.00
    0  -12    2      0.05      0.00
    1  -12    2      0.14      0.00
    2  -12    2      0.73      0.00
   -4  -11    2     -0.44      0.00
    4  -11    2      1.25      0.00
   -5  -10    2     -0.74      0.00
    5  -10    2      1.53      0.00
   -6   -9    2      0.11      0.00
    6   -9    2     -0.13      0.00
    7   -8    2      0.76      0.00
   -7   -7    2      0.22      0.00
    8   -6    2     -0.71      0.00
   -8   -5    2     -0.66      0.00
    9   -3    2      1.02      0.00
    9   -2    2      0.26      0.00
    9   -1    2     -2.10      0.00
    9    2    2     -0.87      0.00
    9    3    2      0.50      0.00
    9    4    2     -0.14      0.00
   -8    5    2     -0.63      0.00
   -7    7    2     -0.23      0.00
    8    7    2      0.87      0.00
   -6    9    2      0.69      0.00
    7    9    2      1.80      0.00
   -5   10    2     -4.02      0.00
    6   10    2      0.34      0.00
   -4   11    2     -0.20      0.00
    5   11    2      2.08      0.00
   -3   12    2      0.03      0.00
    4   12    2      1.20      0.00
   -1  -12    3     -2.67      0.00
    0  -12    3     -0.02      0.00
    1  -12    3      0.23      0.00
   -3  -11    3     -0.12      0.00
    3  -11    3      1.41      0.00
   -5  -10    3      0.00      0.00
    5  -10    3      1.49      0.00
    6   -9    3     -1.34      0.00
   -7   -7    3      0.41      0.00
    7   -7    3      0.72      0.00
    8   -6    3      0.65      0.00
    8   -5    3     -0.64      0.00
   -8   -4    3     -0.80      0.00
    9   -3    3      0.03      0.00
    9   -2    3      0.64      0.00
    9   -1    3     -0.99      0.00
    9    3    3      0.15      0.00
   -8    4    3      1.81      0.00
    9    4    3      0.20      0.00
   -8    5    3     -1.66      0.00
   -7    7    3     -0.21      0.00
    8    7    3      1.30      0.00
   -6    9    3      0.31      0.00
    7    9    3      0.74      0.00
   -5   10    3     -2.51      0.00
   -4   11    3      0.88      0.00
   -3   12    3     -0.62      0.00
    4   12    3     -0.19      0.00
   -2  -11    4      0.35      0.00
    2  -11    4     -0.39      0.00
    3  -11    4      0.89      0.00
   -4  -10    4      1.27      0.00
    4  -10    4     -1.56      0.00
   -5   -9    4     -0.05      0.00
   -6   -8    4     -1.20      0.00
    7   -7    4      0.23      0.00
   -7   -6    4     -2.58      0.00
    8   -5    4     -0.61      0.00
   -8   -3    4      0.19      0.00
   -8   -2    4      1.67      0.00
    9   -2    4      0.06      0.00
    9   -1    4      0.74      0.00
    9    0    4     -0.62      0.00
   -8    2    4      1.38      0.00
    9    2    4     -0.27      0.00
   -8    3    4     -0.21      0.00
    9    3    4     -0.14      0.00
   -8    4    4      1.60      0.00
    9    4    4      0.18      0.00
    9    5    4      0.31      0.00
   -7    7    4      0.28      0.00
    8    7    4      0.39      0.00
   -6    9    4     -0.07      0.00
    7    9    4      0.47      0.00
   -5   10    4     -0.59      0.00
   -4   11    4      1.06      0.00
   -3   12    4      0.10      0.00
    4   12    4     -2.09      0.00
   -1  -11    5     -0.90      0.00
    0  -11    5     -1.23      0.00
    1  -11    5     -1.51      0.00
    2  -11    5     -0.12      0.00
   -3  -10    5      1.44      0.00
    4  -10    5     -0.37      0.00
    5   -9    5     -0.15      0.00
    6   -8    5     -0.36      0.00
   -6   -7    5     -0.63      0.00
    7   -7    5      0.21      0.00
   -7   -5    5      1.58      0.00
    8   -5    5     -0.30      0.00
   -8   -2    5      0.94      0.00
    9   -2    5     -0.43      0.00
   -8   -1    5     -1.66      0.00
    9   -1    5      0.82      0.00
   -8    0    5     -0.30      0.00
    9    0    5     -0.25      0.00
   -8    1    5      0.87      0.00
    9    1    5     -0.30      0.00
   -8    2    5      1.99      0.00
    9    2    5     -0.22      0.00
   -8    3    5     -2.06      0.00
    9    3    5      0.39      0.00
    9    4    5      0.01      0.00
   -7    6    5      1.02      0.00
    8    7    5     -0.30      0.00
   -6    8    5      0.51      0.00
    7    9    5      1.89      0.00
   -5   10    5      0.45      0.00
   -4   11    5     -0.13      0.00
   -2   12    5      2.08      0.00
    4   12    5     -3.46      0.00
   -2  -10    6      1.11      0.00
    3  -10    6     -0.49      0.00
   -4   -9    6     -1.02      0.00
    5   -9    6      1.22      0.00
   -5   -8    6      4.45      0.00
    6   -8    6     -0.82      0.00
   -6   -6    6      2.38      0.00
    7   -6    6     -2.66      0.00
   -7   -4    6     -1.42      0.00
    8   -4    6      0.71      0.00
   -7   -3    6      0.31      0.00
    9   -1    6     -0.26      0.00
    9    0    6      0.46      0.00
    9    1    6     -0.30      0.00
    9    2    6     -0.50      0.00
    9    3    6      0.74      0.00
    9    4    6      0.25      0.00
   -7    5    6      1.20      0.00
    8    7    6     -0.12      0.00
   -6    8    6      1.05      0.00
   -5    9    6     -1.10      0.00
    7    9    6      2.79      0.00
    6   10    6     -0.21      0.00
   -3   11    6      0.04      0.00
    5   11    6      2.55      0.00
   -2   12    6      1.24      0.00
    4   12    6     -3.13      0.00
   -1  -10    7      0.07      0.00
    0  -10    7     -1.98      0.00
    1  -10    7     -1.14      0.00
    2  -10    7      0.69      0.00
   -3   -9    7     -1.97      0.00
    4   -9    7      0.50      0.00
   -4   -8    7     -0.06      0.00
    5   -8    7     -1.05      0.00
   -5   -7    7     -0.95      0.00
    6   -7    7      0.41      0.00
    7   -6    7     -3.36      0.00
   -6   -5    7     -1.39      0.00
    8   -4    7      0.93      0.00
    8   -3    7      0.09      0.00
   -7   -2    7      0.16      0.00
   -7   -1    7      1.04      0.00
   -7    0    7     -0.64      0.00
    9    0    7      0.62      0.00
   -7    1    7     -1.13      0.00
    9    1    7      0.01      0.00
   -7    2    7     -0.72      0.00
    9    2    7     -0.36      0.00
   -7    3    7      1.93      0.00
    9    3    7      0.17      0.00
   -7    4    7     -0.26      0.00
    8    6    7      0.50      0.00
   -6    7    7     -1.32      0.00
    8    7    7     -0.15      0.00
   -5    9    7     -2.12      0.00
    7    9    7      1.92      0.00
   -4   10    7      1.30      0.00
    6   10    7     -1.01      0.00
   -3   11    7      2.26      0.00
    5   11    7      0.72      0.00
   -2   12    7      0.22      0.00
   -1   12    7     -2.37      0.00
    3   12    7     -1.53      0.00
    4   12    7     -0.85      0.00
   -2   -9    8      1.60      0.00
   -1   -9    8      2.62      0.00
    0   -9    8      1.61      0.00
    1   -9    8     -0.29      0.00
    2   -9    8     -1.16      0.00
    3   -9    8      1.87      0.00
   -3   -8    8      1.04      0.00
    4   -8    8      1.05      0.00
   -4   -7    8     -1.82      0.00
   -5   -6    8     -0.36      0.00
    7   -5    8      2.26      0.00
   -6   -4    8      1.59      0.00
   -6   -3    8     -0.43      0.00
    8   -3    8     -0.75      0.00
    8   -2    8     -1.33      0.00
   -6    5    8     -2.99      0.00
   -6    6    8      1.51      0.00
    8    6    8      0.63      0.00
   -5    8    8      3.49      0.00
    7    8    8     -0.95      0.00
    6   10    8     -0.44      0.00
   -2   11    8     -0.75      0.00
    5   11    8      0.03      0.00
   -1   12    8     -1.75      0.00
    0   12    8     -0.32      0.00
    1   12    8      0.31      0.00
    2   12    8      2.14      0.00
    3   12    8     -0.40      0.00
   -2   -8    9     -2.08      0.00
   -1   -8    9     -0.73      0.00
    3   -8    9      0.06      0.00
   -3   -7    9      0.61      0.00
    5   -7    9     -2.02      0.00
   -4   -6    9      2.08      0.00
    6   -6    9      0.36      0.00
   -5   -4    9     -1.50      0.00
    7   -4    9      0.27      0.00
   -6   -2    9     -1.50      0.00
    8   -2    9     -0.50      0.00
   -6   -1    9      1.06      0.00
    8   -1    9      1.01      0.00
   -6    0    9     -0.97      0.00
    8    0    9      0.36      0.00
   -6    1    9      2.68      0.00
   -6    2    9     -1.04      0.00
   -6    3    9     -1.78      0.00
   -6    4    9      0.93      0.00
    8    4    9      0.72      0.00
   -6    5    9     -0.22      0.00
    8    5    9     -0.53      0.00
    8    6    9      0.65      0.00
   -5    7    9     -3.41      0.00
    7    8    9      0.84      0.00
   -4    9    9     -1.20      0.00
    6    9    9     -2.57      0.00
   -3   10    9     -1.40      0.00
   -2   11    9     -1.93      0.00
   -1   11    9     -0.36      0.00
    4   11    9     -3.96      0.00
    0   12    9     -0.45      0.00
    1   12    9     -0.73      0.00
    2   12    9      1.76      0.00
    0   -8   10     -0.14      0.00
    1   -8   10     -1.67      0.00
    2   -8   10     -2.18      0.00
   -2   -7   10     -0.25      0.00
   -1   -7   10     -0.11      0.00
    3   -7   10     -2.20      0.00
    4   -7   10     -0.59      0.00
   -3   -6   10      1.53      0.00
    5   -6   10      1.96      0.00
   -4   -5   10     -3.27      0.00
    6   -5   10     -0.59      0.00
   -5   -3   10      1.24      0.00
    7   -3   10     -0.10      0.00
   -5   -2   10     -0.87      0.00
    8    0   10     -0.46      0.00
    8    1   10      0.19      0.00
    8    2   10     -0.14      0.00
    8    3   10     -0.40      0.00
    8    4   10     -0.19      0.00
   -5    5   10      0.59      0.00
   -5    6   10      0.27      0.00
    7    7   10     -1.38      0.00
   -4    8   10      0.88      0.00
   -3    9   10      0.29      0.00
    6    9   10     -0.70      0.00
   -2   10   10      0.71      0.00
    5   10   10      0.81      0.00
   -1   11   10      0.00      0.00
    0   11   10      1.42      0.00
    1   11   10      2.00      0.00
    2   11   10     -0.31      0.00
    3   11   10     -0.31      0.00
    4   11   10     -0.61      0.00
    0   -7   11     -0.45      0.00
    1   -7   11      1.39      0.00
    2   -7   11      1.15      0.00
   -2   -6   11     -0.34      0.00
   -1   -6   11     -0.57      0.00
    3   -6   11      2.46      0.00
    4   -6   11     -0.40      0.00
   -3   -5   11     -0.25      0.00
    5   -5   11     -0.79      0.00
   -3   -4   11     -1.04      0.00
    6   -4   11      0.02      0.00
   -4   -3   11     -1.27      0.00
    6   -3   11     -1.06      0.00
    7   -2   11     -0.34      0.00
    7   -1   11      1.80      0.00
   -5    0   11      0.65      0.00
   -5    1   11      0.24      0.00
   -5    2   11     -2.11      0.00
   -5    3   11      3.19      0.00
   -5    4   11     -1.31      0.00
    7    5   11      1.29      0.00
   -4    6   11      1.44      0.00
    7    6   11      0.24      0.00
   -4    7   11     -0.52      0.00
   -3    8   11      1.04      0.00
    6    8   11     -1.41      0.00
   -2    9   11     -0.09      0.00
    5    9   11     -0.33      0.00
   -1   10   11     -0.55      0.00
    4   10   11     -0.55      0.00
    1   11   11      2.00      0.00
    2   11   11      0.20      0.00
    1   -6   12      1.28      0.00
   -1   -5   12     -0.50      0.00
    0   -5   12     -0.41      0.00
    3   -5   12     -1.00      0.00
    4   -5   12      0.57      0.00
   -2   -4   12      0.67      0.00
    5   -4   12     -0.23      0.00
   -3   -3   12      0.66      0.00
    5   -3   12     -1.01      0.00
   -3   -2   12     -1.19      0.00
    6   -2   12      1.74      0.00
   -4   -1   12     -1.51      0.00
   -4    0   12      1.44      0.00
    7    0   12     -0.69      0.00
   -4    1   12     -1.34      0.00
    7    1   12     -1.05      0.00
   -4    2   12      2.10      0.00
    7    2   12      2.07      0.00
   -4    3   12     -2.13      0.00
    7    3   12     -0.71      0.00
   -4    4   12      1.57      0.00
    7    4   12     -1.47      0.00
   -4    5   12     -1.76      0.00
    7    5   12      2.11      0.00
   -3    6   12      2.33      0.00
    6    6   12     -0.80      0.00
   -3    7   12     -1.48      0.00
    6    7   12      2.09      0.00
   -2    8   12      0.31      0.00
    5    8   12     -2.20      0.00
   -1    9   12      0.18      0.00
    4    9   12      0.60      0.00
    0   10   12     -0.58      0.00
    1   10   12     -1.94      0.00
    2   10   12      0.11      0.00
    3   10   12     -0.97      0.00
    0   -4   13     -0.99      0.00
    1   -4   13      2.11      0.00
    2   -4   13      2.92      0.00
    3   -4   13      0.91      0.00
   -1   -3   13      2.09      0.00
    4   -3   13     -0.39      0.00
   -2   -2   13      0.52      0.00
    5   -2   13      2.04      0.00
    5   -1   13     -1.05      0.00
   -3    0   13      1.16      0.00
    6    0   13     -0.68      0.00
   -3    1   13     -1.50      0.00
    6    1   13     -0.31      0.00
   -3    2   13      0.45      0.00
    6    2   13      1.23      0.00
   -3    3   13     -0.92      0.00
    6    3   13     -0.59      0.00
   -3    4   13      1.92      0.00
    6    4   13     -0.63      0.00
   -3    5   13     -1.81      0.00
    6    5   13      0.57      0.00
   -2    6   13      0.30      0.00
   -2    7   13     -0.63      0.00
    5    7   13      2.37      0.00
   -1    8   13     -0.42      0.00
    0    8   13      0.15      0.00
    4    8   13     -0.17      0.00
    0    9   13      0.18      0.00
    1    9   13      2.06      0.00
    2    9   13      0.15      0.00
    3    9   13      0.40      0.00
    1   -3   14     -0.25      0.00
    2   -3   14     -1.56      0.00
    0   -2   14      0.81      0.00
    1   -2   14     -0.94      0.00
    2   -2   14      0.61      0.00
    3   -2   14      0.33      0.00
   -1   -1   14      0.73      0.00
    0   -1   14     -1.44      0.00
    4   -1   14     -1.30      0.00
   -1    0   14     -1.69      0.00
    4    0   14      1.99      0.00
    5    0   14     -0.23      0.00
   -2    1   14     -0.35      0.00
    5    1   14     -0.05      0.00
   -2    2   14      1.13      0.00
    5    2   14      0.16      0.00
   -2    3   14     -0.24      0.00
    5    3   14      0.20      0.00
   -2    4   14     -0.09      0.00
    5    4   14     -0.95      0.00
   -1    5   14      1.59      0.00
    5    5   14      1.17      0.00
   -1    6   14     -1.49      0.00
    0    6   14      1.38      0.00
    4    6   14      0.48      0.00
    0    7   14     -1.42      0.00
    1    7   14     -2.76      0.00
    2    7   14      0.76      0.00
    3    7   14     -0.39      0.00
    4    7   14      0.44      0.00
    1    8   14      1.21      0.00
    2    8   14      0.11      0.00
    0    0    0      0.00      0.00
# SQUEEZE RESULTS (Version = 120716)
# Note: Data are Listed for all Voids in the P1 Unit Cell
# i.e. Centre of Gravity, Solvent Accessible Volume,
# Recovered number of Electrons in the Void and
# Details about the Squeezed Material
loop_
  _platon_squeeze_void_nr
  _platon_squeeze_void_average_x
  _platon_squeeze_void_average_y
  _platon_squeeze_void_average_z
  _platon_squeeze_void_volume
  _platon_squeeze_void_count_electrons
  _platon_squeeze_void_content
   1  0.010  0.500  0.000       202        69 ' '
_platon_squeeze_void_probe_radius                  1.20
_platon_squeeze_details
)
TITL c1_jh_pdg_47_2_a.res in P-1
CELL    7.2372   10.1596   11.8645     77.82     78.75     85.77
SPGR P-1
# Solvent Accessible Volume =       202
# Electrons Found in S.A.V. =        69
# Note: Atoms in Void as Cxxx and Qxxx all others
C101 0.500 0.500 0.000 !       9.43 eA-3
C102 1.000 0.500 0.000 !       6.57 eA-3
C103 0.191 0.650 0.195 !       4.63 eA-3
C104 0.062 0.433 0.122 !       3.89 eA-3
Q105 0.163 0.186 0.208 !       3.57 eA-3
C106 0.251 0.476 0.087 !       3.41 eA-3
Q107 0.479 0.979 0.079 !       2.96 eA-3
C108 0.908 0.478 0.099 !       2.93 eA-3
Q109 0.972 0.975 0.086 !       2.84 eA-3
C110 0.940 0.491 0.132 !       2.39 eA-3
Q111 0.942 0.400 0.159 !       2.24 eA-3
C112 0.969 0.535 0.093 !       2.24 eA-3
C113 0.408 0.434 0.044 !       2.23 eA-3
Q114 0.535 0.106 0.000 !       2.16 eA-3
C115 0.062 0.558 0.101 !       1.94 eA-3
C116 0.719 0.499 0.089 !       1.75 eA-3
C117 0.224 0.607 0.096 !       1.71 eA-3
Q118 0.064 0.720 0.173 !       1.59 eA-3
C119 0.234 0.559 0.127 !       1.53 eA-3
Q120 0.029 0.098 0.003 !       1.52 eA-3
C121 0.289 0.444 0.004 !       1.49 eA-3
C122 0.213 0.346 0.068 !       1.46 eA-3
C123 0.406 0.527 0.076 !       1.45 eA-3
Q124 0.411 0.333 0.133 !       1.35 eA-3
C125 0.504 0.441 0.094 !       1.32 eA-3
Q126 0.816 0.813 0.233 !       1.31 eA-3
Q127 0.243 0.176 0.148 !       1.30 eA-3
Q128 0.883 0.905 0.074 !       1.23 eA-3
Q129 0.724 0.595 0.146 !       1.22 eA-3
Q130 0.590 0.407 0.073 !       1.22 eA-3
Q131 0.280 0.625 0.254 !       1.22 eA-3
Q132 0.531 0.498 0.101 !       1.17 eA-3
Q133 0.783 0.341 0.168 !       1.17 eA-3
Q134 0.468 0.750 0.183 !       1.16 eA-3
Q135 0.722 0.691 0.179 !       1.15 eA-3
Q136 0.403 0.680 0.114 !       1.15 eA-3
Q137 0.069 0.599 0.210 !       1.14 eA-3
Q138 0.972 0.157 0.097 !       1.14 eA-3
Q139 0.440 0.881 0.431 !       1.13 eA-3
Q140 0.215 0.370 0.201 !       1.12 eA-3
Q141 0.993 0.378 0.451 !       1.12 eA-3
Q142 0.880 0.467 0.233 !       1.12 eA-3
Q143 0.073 0.185 0.275 !       1.11 eA-3
Q144 0.407 0.309 0.298 !       1.11 eA-3
Q145 0.813 0.941 0.124 !       1.11 eA-3
Q146 0.909 0.660 0.076 !       1.11 eA-3
Q147 0.217 0.657 0.443 !       1.10 eA-3
Q148 0.496 1.007 0.186 !       1.09 eA-3
Q149 0.502 0.352 0.052 !       1.08 eA-3
Q150 0.905 0.629 0.233 !       1.07 eA-3
Q151 0.848 0.439 0.345 !       1.06 eA-3
Q152 0.399 0.973 0.311 !       1.06 eA-3
Q153 0.040 0.501 0.199 !       1.05 eA-3
Q154 0.998 0.126 0.165 !       1.05 eA-3
Q155 0.467 0.786 0.286 !       1.05 eA-3
Q156 0.166 0.712 0.261 !       1.05 eA-3
Q157 0.462 0.647 0.342 !       1.05 eA-3
Q158 0.510 0.964 0.369 !       1.04 eA-3
Q159 0.579 0.628 0.158 !       1.04 eA-3
Q160 0.657 0.583 0.049 !       1.03 eA-3
Q161 0.529 1.008 0.277 !       1.03 eA-3
Q162 0.372 0.812 0.202 !       1.03 eA-3
Q163 0.903 0.343 0.090 !       1.02 eA-3
Q164 0.558 0.624 0.105 !       1.02 eA-3
Q165 0.123 0.814 0.203 !       1.02 eA-3
Q166 0.196 0.403 0.291 !       1.02 eA-3
Q167 0.039 0.249 0.017 !       1.00 eA-3
Q168 0.468 0.494 0.167 !       1.00 eA-3
Q169 0.619 0.844 0.232 !       0.99 eA-3
Q170 0.718 0.753 0.293 !       0.99 eA-3
Q171 0.398 0.189 0.337 !       0.98 eA-3
Q172 0.519 0.587 0.059 !       0.98 eA-3
Q173 0.431 0.252 0.012 !       0.98 eA-3
Q174 0.356 0.898 0.406 !       0.98 eA-3
Q175 0.025 0.303 0.113 !       0.98 eA-3
Q176 0.786 0.433 0.163 !       0.97 eA-3
Q177 0.751 0.316 0.093 !       0.97 eA-3
Q178 0.102 0.095 0.109 !       0.97 eA-3
Q179 0.505 0.437 0.215 !       0.96 eA-3
Q180 0.189 0.909 0.217 !       0.96 eA-3
Q181 0.122 0.410 0.448 !       0.96 eA-3
Q182 0.304 0.870 0.150 !       0.96 eA-3
Q183 0.873 0.998 0.142 !       0.95 eA-3
Q184 0.383 0.154 0.448 !       0.94 eA-3
Q185 0.816 0.393 0.078 !       0.94 eA-3
Q186 0.628 0.849 0.050 !       0.94 eA-3
Q187 0.288 0.844 0.390 !       0.94 eA-3
Q188 0.744 0.593 0.242 !       0.93 eA-3
Q189 0.573 0.328 0.126 !       0.93 eA-3
Q190 0.375 0.402 0.195 !       0.93 eA-3
Q191 0.126 1.003 0.293 !       0.93 eA-3
Q192 0.831 0.657 0.027 !       0.92 eA-3
Q193 0.435 0.349 0.386 !       0.92 eA-3
Q194 0.841 0.282 0.322 !       0.92 eA-3
Q195 0.351 0.409 0.407 !       0.91 eA-3
Q196 0.842 0.320 0.033 !       0.91 eA-3
Q197 0.104 0.277 0.045 !       0.91 eA-3
Q198 0.500 0.095 0.486 !       0.90 eA-3
Q199 0.403 0.620 0.163 !       0.90 eA-3
)
;
_shelx_fab_checksum              94444
_olex2_submission_special_instructions 'No special instructions were received'
_oxdiff_exptl_absorpt_empirical_details
;
Empirical correction (ABSPACK) includes:
- Absorption correction using spherical harmonics
- Frame scaling
;
_oxdiff_exptl_absorpt_empirical_full_max 1.354
_oxdiff_exptl_absorpt_empirical_full_min 0.811
loop_
_space_group_symop_operation_xyz
'x, y, z'
'-x, -y, -z'
loop_
_atom_site_label
_atom_site_type_symbol
_atom_site_fract_x
_atom_site_fract_y
_atom_site_fract_z
_atom_site_U_iso_or_equiv
_atom_site_adp_type
_atom_site_occupancy
_atom_site_site_symmetry_order
_atom_site_calc_flag
_atom_site_refinement_flags_posn
_atom_site_refinement_flags_adp
_atom_site_refinement_flags_occupancy
In01 In 0.0000 0.0000 1.0000 0.0268(3) Uani 1 2 d S T P
In02 In 0.5000 0.0000 1.0000 0.0263(3) Uani 1 2 d S T P
O003 O 0.2231(8) -0.0202(6) 1.0913(5) 0.0275(14) Uani 1 1 d . U .
H003 H 0.1984 -0.0386 1.1747 0.033 Uiso 1 1 calc R . .
O004 O 0.5355(8) 0.1013(6) 0.6400(5) 0.0298(15) Uani 1 1 d . . .
O005 O 1.8617(8) 0.1351(8) 0.1122(6) 0.0436(18) Uani 1 1 d . U .
N006 N 1.4758(9) 0.1877(7) 0.3421(6) 0.0249(17) Uani 1 1 d . . .
H006 H 1.4272 0.1077 0.3684 0.030 Uiso 1 1 calc R . .
O007 O 1.5503(8) 0.1165(6) 0.1270(5) 0.0293(14) Uani 1 1 d . U .
O008 O 0.1310(9) 0.1599(7) 0.8652(6) 0.0458(19) Uani 1 1 d . . .
O009 O 0.4310(9) 0.1813(6) 0.8813(5) 0.0329(15) Uani 1 1 d . . .
N00A N 0.5078(9) 0.3212(7) 0.6527(6) 0.0261(17) Uani 1 1 d . . .
H00A H 0.5633 0.3989 0.6360 0.031 Uiso 1 1 calc R . .
O00B O 1.4337(9) 0.4126(6) 0.3356(6) 0.0401(18) Uani 1 1 d . . .
C00C C 0.3134(12) 0.3114(9) 0.7162(8) 0.030(2) Uani 1 1 d . . .
H00B H 0.2330 0.2872 0.6656 0.036 Uiso 1 1 calc R . .
H00C H 0.2680 0.4006 0.7337 0.036 Uiso 1 1 calc R . .
C00D C 0.9398(12) 0.1356(9) 0.5743(7) 0.026(2) Uani 1 1 d . . .
H00D H 0.9061 0.0536 0.6278 0.032 Uiso 1 1 calc R . .
C00E C 0.2927(11) 0.2088(8) 0.8290(8) 0.024(2) Uani 1 1 d . . .
C00F C 1.1741(12) 0.2710(9) 0.4340(8) 0.026(2) Uani 1 1 d . . .
C00G C 1.6659(11) 0.1991(9) 0.2729(8) 0.029(2) Uani 1 1 d . U .
H00E H 1.7550 0.1498 0.3219 0.035 Uiso 1 1 calc R . .
H00F H 1.6987 0.2952 0.2527 0.035 Uiso 1 1 calc R . .
C00H C 0.8039(12) 0.2372(8) 0.5560(7) 0.0241(19) Uani 1 1 d . . .
C00I C 1.0374(12) 0.3743(9) 0.4154(8) 0.028(2) Uani 1 1 d . . .
H00I H 1.0706 0.4564 0.3620 0.034 Uiso 1 1 calc R . .
C00J C 0.8523(12) 0.3562(9) 0.4756(8) 0.030(2) Uani 1 1 d . . .
H00J H 0.7589 0.4253 0.4616 0.036 Uiso 1 1 calc R . .
C00K C 1.6934(11) 0.1459(9) 0.1613(8) 0.029(2) Uani 1 1 d . U .
C00L C 0.6023(12) 0.2138(9) 0.6195(7) 0.0254(19) Uani 1 1 d . . .
C00M C 1.1271(12) 0.1526(9) 0.5144(7) 0.028(2) Uani 1 1 d . . .
H00M H 1.2205 0.0837 0.5290 0.033 Uiso 1 1 calc R . .
C00O C 1.3738(12) 0.2976(9) 0.3662(8) 0.029(2) Uani 1 1 d . . .
loop_
_atom_site_aniso_label
_atom_site_aniso_U_11
_atom_site_aniso_U_22
_atom_site_aniso_U_33
_atom_site_aniso_U_23
_atom_site_aniso_U_13
_atom_site_aniso_U_12
In01 0.0073(4) 0.0364(6) 0.0350(6) -0.0072(5) -0.0002(4) -0.0005(4)
In02 0.0116(4) 0.0345(6) 0.0324(6) -0.0053(4) -0.0054(4) 0.0009(4)
O003 0.021(2) 0.035(2) 0.027(2) -0.0039(16) -0.0074(16) -0.0028(17)
O004 0.019(3) 0.023(3) 0.042(4) -0.006(3) 0.006(3) -0.005(3)
O005 0.014(3) 0.066(5) 0.057(4) -0.034(4) 0.002(3) 0.000(3)
N006 0.019(4) 0.024(4) 0.029(4) -0.007(3) 0.005(3) -0.004(3)
O007 0.014(3) 0.041(4) 0.032(3) -0.009(3) 0.002(2) -0.002(3)
O008 0.025(4) 0.056(5) 0.046(4) 0.013(4) -0.007(3) -0.006(4)
O009 0.025(3) 0.034(4) 0.037(4) 0.003(3) -0.014(3) 0.003(3)
N00A 0.017(4) 0.018(4) 0.035(4) -0.001(3) 0.011(3) -0.003(3)
O00B 0.020(3) 0.026(4) 0.067(5) -0.013(3) 0.014(3) -0.003(3)
C00C 0.018(4) 0.028(5) 0.038(5) -0.002(4) 0.003(4) 0.000(4)
C00D 0.021(5) 0.023(5) 0.026(5) 0.001(4) 0.010(4) 0.000(4)
C00E 0.013(4) 0.022(5) 0.041(5) -0.017(4) -0.002(4) 0.002(4)
C00F 0.018(4) 0.020(5) 0.038(5) -0.010(4) 0.007(4) -0.004(4)
C00G 0.011(4) 0.033(5) 0.044(5) -0.015(4) 0.002(3) 0.000(4)
C00H 0.023(5) 0.020(4) 0.022(5) 0.003(4) 0.005(4) -0.003(4)
C00I 0.025(5) 0.020(5) 0.034(5) -0.002(4) 0.007(4) -0.004(4)
C00J 0.020(5) 0.024(5) 0.036(5) 0.006(4) 0.002(4) 0.005(4)
C00K 0.009(3) 0.028(5) 0.048(5) -0.012(4) 0.003(3) 0.003(3)
C00L 0.026(5) 0.020(5) 0.025(5) 0.001(4) 0.001(4) -0.002(4)
C00M 0.017(4) 0.028(5) 0.033(5) -0.007(4) 0.005(4) 0.004(4)
C00O 0.021(5) 0.022(5) 0.043(6) -0.013(4) 0.003(4) 0.004(4)
loop_
_atom_type_symbol
_atom_type_description
_atom_type_scat_dispersion_real
_atom_type_scat_dispersion_imag
_atom_type_scat_source
C C 0.0033 0.0016 'International Tables Vol C Tables 4.2.6.8 and 6.1.1.4'
H H 0.0000 0.0000 'International Tables Vol C Tables 4.2.6.8 and 6.1.1.4'
In In -0.7276 1.3100 'International Tables Vol C Tables 4.2.6.8 and 6.1.1.4'
N N 0.0061 0.0033 'International Tables Vol C Tables 4.2.6.8 and 6.1.1.4'
O O 0.0106 0.0060 'International Tables Vol C Tables 4.2.6.8 and 6.1.1.4'
loop_
_geom_angle_atom_site_label_1
_geom_angle_atom_site_label_2
_geom_angle_atom_site_label_3
_geom_angle
_geom_angle_site_symmetry_1
_geom_angle_site_symmetry_3
O003 In01 O003 180.0 . 2_557
O003 In01 O005 87.6(2) 2_557 2_756
O003 In01 O005 87.6(2) . 1_356
O003 In01 O005 92.4(2) . 2_756
O003 In01 O005 92.4(2) 2_557 1_356
O003 In01 O008 87.2(2) . 2_557
O003 In01 O008 87.2(2) 2_557 .
O003 In01 O008 92.8(2) . .
O003 In01 O008 92.8(2) 2_557 2_557
O005 In01 O005 180.0(3) 1_356 2_756
O008 In01 O005 93.9(3) 2_557 2_756
O008 In01 O005 86.1(3) 2_557 1_356
O008 In01 O005 93.9(3) . 1_356
O008 In01 O005 86.1(3) . 2_756
O008 In01 O008 180.0(3) 2_557 .
O003 In02 O003 180.0 2_657 .
O003 In02 O007 87.8(2) . 1_456
O003 In02 O007 92.2(2) . 2_756
O003 In02 O007 87.8(2) 2_657 2_756
O003 In02 O007 92.2(2) 2_657 1_456
O003 In02 O009 93.0(2) . .
O003 In02 O009 93.0(2) 2_657 2_657
O003 In02 O009 87.0(2) 2_657 .
O003 In02 O009 87.0(2) . 2_657
O007 In02 O007 180.0 1_456 2_756
O009 In02 O007 88.4(2) . 2_756
O009 In02 O007 91.6(2) 2_657 2_756
O009 In02 O007 88.4(2) 2_657 1_456
O009 In02 O007 91.6(2) . 1_456
O009 In02 O009 180.0 2_657 .
In01 O003 H003 119.9 . .
In02 O003 In01 120.2(3) . .
In02 O003 H003 119.9 . .
C00K O005 In01 131.1(6) . 1_754
C00G N006 H006 119.5 . .
C00O N006 H006 119.5 . .
C00O N006 C00G 120.9(7) . .
C00K O007 In02 135.4(5) . 1_654
C00E O008 In01 137.8(6) . .
C00E O009 In02 130.0(6) . .
C00C N00A H00A 119.6 . .
C00L N00A H00A 119.6 . .
C00L N00A C00C 120.9(7) . .
N00A C00C H00B 109.0 . .
N00A C00C H00C 109.0 . .
N00A C00C C00E 112.8(7) . .
H00B C00C H00C 107.8 . .
C00E C00C H00B 109.0 . .
C00E C00C H00C 109.0 . .
C00H C00D H00D 119.7 . .
C00H C00D C00M 120.7(8) . .
C00M C00D H00D 119.7 . .
O008 C00E C00C 115.2(7) . .
O009 C00E O008 125.5(9) . .
O009 C00E C00C 119.3(8) . .
C00I C00F C00O 117.2(8) . .
C00M C00F C00I 120.2(8) . .
C00M C00F C00O 122.6(8) . .
N006 C00G H00E 108.6 . .
N006 C00G H00F 108.6 . .
N006 C00G C00K 114.8(7) . .
H00E C00G H00F 107.5 . .
C00K C00G H00E 108.6 . .
C00K C00G H00F 108.6 . .
C00D C00H C00J 119.7(8) . .
C00D C00H C00L 119.2(7) . .
C00J C00H C00L 121.0(8) . .
C00F C00I H00I 120.1 . .
C00J C00I C00F 119.8(8) . .
C00J C00I H00I 120.1 . .
C00H C00J C00I 120.3(8) . .
C00H C00J H00J 119.9 . .
C00I C00J H00J 119.9 . .
O005 C00K O007 126.7(9) . .
O005 C00K C00G 114.6(8) . .
O007 C00K C00G 118.7(7) . .
O004 C00L N00A 123.7(8) . .
O004 C00L C00H 120.8(7) . .
N00A C00L C00H 115.5(7) . .
C00D C00M H00M 120.3 . .
C00F C00M C00D 119.4(8) . .
C00F C00M H00M 120.3 . .
N006 C00O C00F 115.1(8) . .
O00B C00O N006 123.5(8) . .
O00B C00O C00F 121.4(7) . .
loop_
_geom_bond_atom_site_label_1
_geom_bond_atom_site_label_2
_geom_bond_distance
_geom_bond_site_symmetry_2
In01 O003 2.089(6) .
In01 O003 2.089(6) 2_557
In01 O005 2.170(6) 2_756
In01 O005 2.170(6) 1_356
In01 O008 2.153(7) 2_557
In01 O008 2.153(7) .
In02 O003 2.086(6) .
In02 O003 2.086(6) 2_657
In02 O007 2.198(6) 2_756
In02 O007 2.198(6) 1_456
In02 O009 2.161(6) 2_657
In02 O009 2.161(6) .
O003 H003 0.9500 .
O004 C00L 1.232(10) .
O005 In01 2.170(6) 1_754
O005 C00K 1.251(10) .
N006 H006 0.8800 .
N006 C00G 1.457(10) .
N006 C00O 1.344(10) .
O007 In02 2.198(6) 1_654
O007 C00K 1.261(10) .
O008 C00E 1.265(10) .
O009 C00E 1.262(10) .
N00A H00A 0.8800 .
N00A C00C 1.461(10) .
N00A C00L 1.333(10) .
O00B C00O 1.232(10) .
C00C H00B 0.9900 .
C00C H00C 0.9900 .
C00C C00E 1.501(12) .
C00D H00D 0.9500 .
C00D C00H 1.385(11) .
C00D C00M 1.407(11) .
C00F C00I 1.401(12) .
C00F C00M 1.386(12) .
C00F C00O 1.523(12) .
C00G H00E 0.9900 .
C00G H00F 0.9900 .
C00G C00K 1.506(12) .
C00H C00J 1.393(11) .
C00H C00L 1.517(11) .
C00I H00I 0.9500 .
C00I C00J 1.394(11) .
C00J H00J 0.9500 .
C00M H00M 0.9500 .
