#------------------------------------------------------------------------------
#$Date: 2017-04-28 03:38:52 +0300 (Fri, 28 Apr 2017) $
#$Revision: 195824 $
#$URL: file:///home/coder/svn-repositories/cod/cif/1/54/58/1545885.cif $
#------------------------------------------------------------------------------
#
# This file is available in the Crystallography Open Database (COD),
# http://www.crystallography.net/
#
# All data on this site have been placed in the public domain by the
# contributors.
#
data_1545885
loop_
_publ_author_name
'Schneider, Lisa M.'
'Schmiedel, Volker M.'
'Pecchioli, Tommaso'
'Lentz, Dieter'
'Merten, Christian'
'Christmann, Mathias'
_publ_section_title
;
 Asymmetric Synthesis of Carbocyclic Propellanes.
;
_journal_name_full               'Organic letters'
_journal_paper_doi               10.1021/acs.orglett.7b00836
_journal_year                    2017
_chemical_formula_sum            'C16 H22 O2'
_chemical_formula_weight         246.33
_space_group_crystal_system      monoclinic
_space_group_IT_number           4
_space_group_name_Hall           'P 2yb'
_space_group_name_H-M_alt        'P 1 21 1'
_symmetry_space_group_name_Hall  'P 2yb'
_symmetry_space_group_name_H-M   'P 1 21 1'
_atom_sites_solution_hydrogens   mixed
_audit_creation_method           SHELXL-2016/6
_cell_angle_alpha                90
_cell_angle_beta                 98.897(3)
_cell_angle_gamma                90
_cell_formula_units_Z            2
_cell_length_a                   8.0035(7)
_cell_length_b                   9.1507(8)
_cell_length_c                   9.4828(8)
_cell_measurement_reflns_used    9848
_cell_measurement_temperature    100(2)
_cell_measurement_theta_max      78.4
_cell_measurement_theta_min      4.7
_cell_volume                     686.14(10)
_computing_cell_refinement       'Bruker SAINT'
_computing_data_collection       'Bruker APEX2'
_computing_data_reduction        'Bruker SAINT'
_computing_structure_refinement  'SHELXL-2016/6 (Sheldrick, 2016)'
_computing_structure_solution    'SHELXT 2014/5 (Sheldrick, 2014)'
_diffrn_ambient_temperature      100(2)
_diffrn_measured_fraction_theta_full 0.994
_diffrn_measured_fraction_theta_max 0.992
_diffrn_measurement_device_type  'Bruker D8 Venture Photon'
_diffrn_measurement_method       '\f and \w scans'
_diffrn_radiation_type           CuK\a
_diffrn_radiation_wavelength     1.54178
_diffrn_reflns_av_R_equivalents  0.0275
_diffrn_reflns_av_unetI/netI     0.0212
_diffrn_reflns_Laue_measured_fraction_full 0.994
_diffrn_reflns_Laue_measured_fraction_max 0.992
_diffrn_reflns_limit_h_max       10
_diffrn_reflns_limit_h_min       -10
_diffrn_reflns_limit_k_max       11
_diffrn_reflns_limit_k_min       -11
_diffrn_reflns_limit_l_max       12
_diffrn_reflns_limit_l_min       -11
_diffrn_reflns_number            16400
_diffrn_reflns_point_group_measured_fraction_full 0.994
_diffrn_reflns_point_group_measured_fraction_max 0.978
_diffrn_reflns_theta_full        67.679
_diffrn_reflns_theta_max         78.712
_diffrn_reflns_theta_min         4.720
_diffrn_source                   'Incoatec Microfocus Source'
_exptl_absorpt_coefficient_mu    0.601
_exptl_absorpt_correction_T_max  0.754
_exptl_absorpt_correction_T_min  0.651
_exptl_absorpt_correction_type   multi-scan
_exptl_absorpt_process_details   'SADABS (Bruker-AXS)'
_exptl_crystal_colour            colourless
_exptl_crystal_density_diffrn    1.192
_exptl_crystal_description       block
_exptl_crystal_F_000             268
_exptl_crystal_size_max          0.340
_exptl_crystal_size_mid          0.230
_exptl_crystal_size_min          0.100
_refine_diff_density_max         0.199
_refine_diff_density_min         -0.322
_refine_diff_density_rms         0.043
_refine_ls_abs_structure_details
;
 Flack x determined using 1264 quotients [(I+)-(I-)]/[(I+)+(I-)]
 (Parsons, Flack and Wagner, Acta Cryst. B69 (2013) 249-259).
;
_refine_ls_abs_structure_Flack   0.03(6)
_refine_ls_extinction_method     none
_refine_ls_goodness_of_fit_ref   1.050
_refine_ls_hydrogen_treatment    mixed
_refine_ls_matrix_type           full
_refine_ls_number_parameters     168
_refine_ls_number_reflns         2902
_refine_ls_number_restraints     1
_refine_ls_restrained_S_all      1.050
_refine_ls_R_factor_all          0.0414
_refine_ls_R_factor_gt           0.0403
_refine_ls_shift/su_max          0.000
_refine_ls_shift/su_mean         0.000
_refine_ls_structure_factor_coef Fsqd
_refine_ls_weighting_details
'w=1/[\s^2^(Fo^2^)+(0.0474P)^2^+0.2052P] where P=(Fo^2^+2Fc^2^)/3'
_refine_ls_weighting_scheme      calc
_refine_ls_wR_factor_gt          0.0988
_refine_ls_wR_factor_ref         0.0999
_reflns_Friedel_coverage         0.854
_reflns_Friedel_fraction_full    0.995
_reflns_Friedel_fraction_max     0.963
_reflns_number_gt                2819
_reflns_number_total             2902
_reflns_threshold_expression     'I > 2\s(I)'
_cod_data_source_file            ol7b00836_si_004.cif
_cod_data_source_block           shelx
_cod_database_code               1545885
_shelx_shelxl_version_number     2016/6
_shelx_space_group_comment
;
The symmetry employed for this shelxl refinement is uniquely defined
by the following loop, which should always be used as a source of
symmetry information in preference to the above space-group names.
They are only intended as comments.
;
_shelx_estimated_absorpt_t_min   0.822
_shelx_estimated_absorpt_t_max   0.942
_shelx_res_file
;
TITL CH011_0410K_a.res in P2(1)
    shelx.res
    created by SHELXL-2016/6 at 13:56:39 on 30-Nov-2016
CELL  1.54178   8.0035   9.1507   9.4828   90.000   98.897   90.000
ZERR     2.00   0.0007   0.0008   0.0008    0.000    0.003    0.000
LATT  -1
SYMM  - X, 1/2 + Y, - Z
SFAC  C    H    O
UNIT  32 44 4
MERG   2
FREE   C15A C15B
FREE   C15A C16B
FREE   C15B C16A
FREE   C16A C16B
FMAP   2
PLAN    5
SIZE     0.100   0.230   0.340
ACTA
BOND   $H
CONF
L.S.  30
TEMP  -173.15
WGHT    0.047400    0.205200
FVAR       1.96353   0.56936
O1    3    0.604584    0.819202    0.715162    11.00000    0.05114    0.03015 =
         0.05273    0.01050    0.00684    0.00435
O2    3    0.176464    0.455018    0.855930    11.00000    0.01978    0.07833 =
         0.06525    0.01220    0.01113   -0.00406
C6    1    0.613048    0.452102    0.834763    11.00000    0.01543    0.02621 =
         0.01799    0.00042    0.00025    0.00019
C2    1    0.679497    0.707873    0.757387    11.00000    0.02933    0.03119 =
         0.02556    0.00248    0.00877   -0.00285
C13   1    0.743444    0.498871    0.607409    11.00000    0.02379    0.04661 =
         0.01767   -0.00034    0.00499    0.00622
AFIX  23
H13A  2    0.855910    0.488702    0.666905    11.00000   -1.20000
H13B  2    0.706453    0.400088    0.573233    11.00000   -1.20000
AFIX   0
C1    1    0.617289    0.557113    0.702910    11.00000    0.01701    0.03024 =
         0.01715    0.00233    0.00105    0.00292
C7    1    0.472196    0.503758    0.918803    11.00000    0.02067    0.03756 =
         0.02322    0.00011    0.00585   -0.00083
AFIX  23
H7A   2    0.463966    0.433788    0.997060    11.00000   -1.20000
H7B   2    0.503925    0.600107    0.962377    11.00000   -1.20000
AFIX   0
C11   1    0.567583    0.299079    0.782896    11.00000    0.02807    0.03247 =
         0.02878   -0.00135   -0.00017   -0.00127
AFIX  43
H11   2    0.457147    0.286599    0.730912    11.00000   -1.20000
AFIX   0
C8    1    0.301645    0.516254    0.826288    11.00000    0.01701    0.04634 =
         0.03977   -0.00124    0.00755    0.00411
C5    1    0.782596    0.455520    0.936939    11.00000    0.01878    0.03869 =
         0.01779    0.00501   -0.00109   -0.00092
AFIX  23
H5A   2    0.772820    0.393668    1.020929    11.00000   -1.20000
H5B   2    0.871461    0.412585    0.887776    11.00000   -1.20000
AFIX   0
C10   1    0.440797    0.569685    0.611935    11.00000    0.01985    0.04352 =
         0.02349    0.00260   -0.00387    0.00632
AFIX  23
H10A  2    0.445363    0.644221    0.536957    11.00000   -1.20000
H10B  2    0.412003    0.475017    0.563705    11.00000   -1.20000
AFIX   0
C4    1    0.837263    0.608173    0.988164    11.00000    0.02614    0.05035 =
         0.02256   -0.00178   -0.00338   -0.01221
AFIX  23
H4A   2    0.951146    0.603234    1.046145    11.00000   -1.20000
H4B   2    0.757848    0.645961    1.049801    11.00000   -1.20000
AFIX   0
C3    1    0.841437    0.713494    0.863069    11.00000    0.03084    0.03746 =
         0.03360   -0.00219    0.00395   -0.01374
AFIX  23
H3A   2    0.859291    0.814304    0.900245    11.00000   -1.20000
H3B   2    0.937823    0.688007    0.813724    11.00000   -1.20000
AFIX   0
C9    1    0.299349    0.611025    0.697408    11.00000    0.01963    0.05283 =
         0.03875    0.00451    0.00053    0.01171
AFIX  23
H9A   2    0.313149    0.714414    0.727725    11.00000   -1.20000
H9B   2    0.188468    0.601302    0.635365    11.00000   -1.20000
AFIX   0
C12   1    0.661496    0.181662    0.800726    11.00000    0.04715    0.03038 =
         0.03852    0.00367   -0.00285    0.00169
AFIX  93
H12A  2    0.773198    0.187082    0.851821    11.00000   -1.20000
H12B  2    0.618045    0.090908    0.762588    11.00000   -1.20000
AFIX   0
C14   1    0.762317    0.592717    0.479014    11.00000    0.04108    0.11229 =
         0.03324    0.03066    0.01460    0.02092
C15A  1    0.898140    0.579287    0.397000    21.00000    0.03359
AFIX  43
H15A  2    0.920593    0.656626    0.335775    21.00000   -1.20000
AFIX   0
C16A  1    0.990173    0.462181    0.406137    21.00000    0.04182
AFIX  93
H16A  2    0.967961    0.384696    0.467290    21.00000   -1.20000
H16B  2    1.079867    0.453799    0.351685    21.00000   -1.20000
AFIX   0
PART    1
C15B  1    0.889820    0.497764    0.394101   -21.00000    0.02912
AFIX  43
H15B  2    0.868844    0.396892    0.375379   -21.00000   -1.20000
AFIX   0
C16B  1    1.018781    0.560421    0.352751   -21.00000    0.03822
AFIX  93
H16C  2    1.039725    0.661294    0.371488   -21.00000   -1.20000
H16D  2    1.092557    0.505567    0.303644   -21.00000   -1.20000
AFIX   0
PART    0
H14A  2    0.809398    0.673478    0.519177    11.00000   -1.20000
H14B  2    0.655720    0.603194    0.418713    11.00000   -1.20000
HKLF    4




REM  CH011_0410K_a.res in P2(1)
REM R1 =  0.0403 for    2819 Fo > 4sig(Fo)  and  0.0414 for all    2902 data
REM    168 parameters refined using      1 restraints

END

WGHT      0.0470      0.2065

REM Highest difference peak  0.199,  deepest hole -0.322,  1-sigma level  0.043
Q1    1   0.6179  0.5042  0.7626  11.00000  0.05    0.20
Q2    1   1.0419  0.4579  0.4466  11.00000  0.05    0.19
Q3    1   0.7005  0.4609  0.8757  11.00000  0.05    0.17
Q4    1   0.3873  0.5044  0.8733  11.00000  0.05    0.17
Q5    1   0.5288  0.5546  0.6656  11.00000  0.05    0.14
;
_shelx_res_checksum              71708
_shelx_hkl_file
;
  -2   0   0 2666.63   85.19
   3   0   0   82.79    3.00
  -3   0   0   84.59    3.40
   3   0   0   82.69    3.30
  -3   0   0   79.79    3.00
  -3   0   0   79.99    3.70
  -4   0   0  319.87   11.50
  -4   0   0  338.17   11.40
  -4   0   0  344.17   12.40
   4   0   0  352.36   11.30
  -4   0   0  358.16   12.20
  -5   0   0  576.84   18.40
   5   0   0  549.05   18.90
  -5   0   0  569.44   18.50
  -5   0   0  588.74   19.90
   5   0   0  544.35   18.80
   5   0   0  566.34   19.00
   5   0   0  560.54   19.30
  -5   0   0  512.45   19.00
   5   0   0  539.45   19.70
  -6   0   0   64.69    3.20
  -6   0   0   61.19    3.10
   6   0   0   54.99    3.60
   6   0   0   55.49    3.80
   6   0   0   61.29    4.20
  -6   0   0   61.19    4.40
   6   0   0   63.49    4.50
   7   0   0  187.38    7.60
   7   0   0  194.48    8.30
  -7   0   0  181.58    7.20
   7   0   0  171.18    8.70
  -7   0   0  173.58    8.00
   7   0   0  185.18    8.00
  -7   0   0  185.88    7.60
  -7   0   0  190.38    7.20
   7   0   0  190.98    7.40
  -8   0   0   50.09    4.80
   8   0   0   42.80    4.80
   8   0   0   44.70    4.80
  -8   0   0   47.60    2.90
  -8   0   0   44.40    2.90
   8   0   0   42.50    3.90
  -9   0   0   24.40    2.80
   9   0   0   21.50    2.50
   9   0   0   29.50    3.20
  -9   0   0   23.80    2.20
  -9   0   0   22.40    2.20
 -10   0   0   21.80    2.30
  10   0   0   22.10    4.10
 -10   0   0   23.50    1.90
   0  -1   0    0.40    0.20
   0   1   0    0.30    0.20
   1  -1   0 2527.85   84.19
  -1  -1   0 2674.73   88.89
  -1  -1   0 2361.96   87.29
  -1   1   0 2401.26   84.19
  -2  -1   0 2831.32   90.49
  -3  -1   0  162.78    5.60
   3  -1   0  152.08    5.70
  -3  -1   0  158.28    6.10
  -3  -1   0  160.98    6.00
  -3   1   0  154.28    5.40
   3   1   0  169.08    5.70
  -3   1   0  171.48    5.80
  -3   1   0  157.88    6.30
   3   1   0  162.48    6.00
  -4  -1   0  171.98    6.20
  -4  -1   0  168.28    6.00
  -4  -1   0  170.88    6.90
  -4  -1   0  169.98    6.80
  -4   1   0  165.98    5.80
   4   1   0  174.88    6.00
  -4   1   0  174.18    6.00
  -4   1   0  152.08    7.20
  -4   1   0  170.88    6.50
   5  -1   0  431.66   14.90
   5  -1   0  403.26   14.50
  -5  -1   0  433.06   14.20
   5  -1   0  431.96   15.30
  -5  -1   0  370.66   14.50
  -5  -1   0  421.76   14.10
   5  -1   0  405.46   14.20
   5  -1   0  432.86   14.50
  -5  -1   0  389.96   14.90
  -5  -1   0  437.76   15.30
   5   1   0  423.86   14.50
  -5   1   0  425.86   14.00
   5   1   0  418.66   14.90
   5   1   0  419.06   14.70
   5   1   0  427.26   14.50
   5   1   0  394.46   14.80
   5   1   0  412.76   14.40
   5   1   0  427.06   13.80
   5   1   0  370.06   15.40
  -5   1   0  424.56   13.90
  -6  -1   0  707.63   24.10
   6  -1   0  713.33   24.80
  -6  -1   0  768.72   26.90
  -6  -1   0  677.23   24.40
  -6  -1   0  717.23   24.10
  -6  -1   0  685.43   24.60
   6  -1   0  733.83   24.10
   6  -1   0  719.93   24.50
   6  -1   0  751.02   24.50
   6  -1   0  734.23   25.30
   6   1   0  715.23   24.30
  -6   1   0  701.73   25.00
   6   1   0  743.63   24.90
   6   1   0  758.22   24.50
   6   1   0  730.73   24.70
  -6   1   0  712.93   24.00
   6   1   0  710.53   24.50
  -6   1   0  739.03   23.90
   7  -1   0 1304.07   42.90
  -7  -1   0 1260.97   43.50
   7  -1   0 1361.46   43.50
  -7  -1   0 1319.47   43.10
  -7  -1   0 1289.57   43.30
   7  -1   0 1344.67   43.90
   7  -1   0 1330.27   44.20
  -7  -1   0 1321.97   43.10
   7  -1   0 1336.27   43.30
  -7   1   0 1243.78   43.10
   7   1   0 1360.06   43.70
  -7   1   0 1296.67   42.90
   7   1   0 1319.97   44.20
  -7   1   0 1347.07   43.00
   7   1   0 1339.87   43.20
   7   1   0 1297.57   43.30
  -7   1   0 1286.97   43.30
   8  -1   0   46.00    5.80
   8  -1   0   41.90    4.60
  -8  -1   0   42.70    2.90
  -8  -1   0   41.80    3.00
   8  -1   0   42.50    3.80
   8   1   0   38.00    5.00
  -8   1   0   42.00    3.50
   8   1   0   46.60    6.10
  -8   1   0   41.20    2.80
  -8   1   0   44.30    2.70
   9  -1   0  121.69    5.30
   9  -1   0  121.49    6.20
  -9  -1   0  131.19    5.40
  -9  -1   0  117.89    5.60
  -9  -1   0  125.79    5.10
  -9  -1   0  118.09    5.10
   9  -1   0  116.39    5.60
  -9   1   0  125.69    5.10
   9   1   0  132.49    6.30
  -9   1   0  122.59    5.00
  -9   1   0  118.49    5.30
   9   1   0  127.99    5.20
  10   1   0   41.40    3.10
 -10   1   0   42.80    2.30
   1  -2   0  202.18    6.60
  -1  -2   0  198.08    6.80
  -1  -2   0  202.08    6.80
   1  -2   0  218.48    6.40
   1  -2   0  178.28    6.40
   1   2   0  187.78    6.50
   1   2   0  192.08    6.80
   1   2   0  196.78    6.80
  -1   2   0  188.38    6.50
  -2  -2   0  891.31   29.40
  -2  -2   0  899.31   29.10
   2  -2   0  908.01   29.10
  -2  -2   0  911.41   29.50
   2   2   0  915.21   29.00
  -2   2   0  892.61   28.80
   2   2   0  877.61   29.40
  -2   2   0  913.91   29.10
   2   2   0  907.91   29.30
  -3  -2   0  514.15   17.20
   3  -2   0  520.05   16.80
  -3  -2   0  510.55   17.30
  -3   2   0  520.45   16.50
   3   2   0  520.25   17.30
   3   2   0  484.45   16.60
   3   2   0  484.55   17.00
  -3   2   0  509.95   16.80
   3   2   0  517.45   16.90
  -4  -2   0  659.23   21.70
  -4  -2   0  666.03   22.60
  -4  -2   0  667.33   21.60
  -4  -2   0  641.34   22.30
   4   2   0  623.64   21.80
   4   2   0  672.53   21.60
  -4   2   0  675.53   21.90
  -4   2   0  618.04   21.20
  -4   2   0  624.84   21.30
   4   2   0  701.23   23.30
  -5  -2   0  645.44   22.00
  -5  -2   0  607.74   22.40
   5  -2   0  608.84   22.00
   5  -2   0  622.64   21.50
  -5  -2   0  672.03   22.70
  -5  -2   0  686.33   21.70
   5  -2   0  645.34   21.80
  -5  -2   0  668.83   21.70
   5  -2   0  672.63   22.30
   5  -2   0  617.44   22.50
   5   2   0  656.23   21.90
   5   2   0  610.14   23.10
  -5   2   0  635.34   21.20
   5   2   0  667.03   22.30
   5   2   0  658.93   21.90
   5   2   0  656.13   21.90
   5   2   0  669.73   21.40
   5   2   0  665.23   21.90
   5   2   0  661.33   22.40
  -5   2   0  642.94   21.30
   6  -2   0  156.48    7.30
  -6  -2   0  170.08    8.60
   6  -2   0  163.28    7.40
   6  -2   0  162.68    6.50
  -6  -2   0  191.58    7.50
   6  -2   0  155.28    7.70
  -6  -2   0  166.38    6.60
   6  -2   0  167.58    7.00
  -6  -2   0  152.08    6.90
   6   2   0  147.29    5.70
   6   2   0  171.38    7.10
   6   2   0  170.38    7.40
  -6   2   0  167.18    6.30
   6   2   0  172.38    7.10
   6   2   0  168.28    6.90
   6   2   0  163.58    6.90
   6   2   0  166.48    8.60
  -7  -2   0   23.00    4.50
  -7  -2   0   33.10    2.70
   7  -2   0   28.00    3.30
   7  -2   0   34.80    4.20
   7  -2   0   38.50    4.50
   7  -2   0   30.80    3.00
   7  -2   0   33.70    3.90
  -7  -2   0   32.80    3.40
   7   2   0   30.40    5.50
  -7   2   0   32.40    2.30
   7   2   0   32.20    3.30
   7   2   0   34.00    3.10
  -7   2   0   29.40    3.40
   7   2   0   35.70    3.90
  -8  -2   0  121.89    5.50
  -8  -2   0  122.79    5.30
  -8  -2   0  126.39    5.60
   8  -2   0  124.99    7.10
   8  -2   0  120.79    6.30
  -8   2   0  120.89    5.50
  -8   2   0  123.99    5.90
  -8   2   0  123.79    5.10
  -8   2   0  125.99    5.20
   8   2   0  127.89    9.60
   8   2   0  126.39    5.60
  -9  -2   0   43.90    2.80
  -9  -2   0   44.60    2.60
   9  -2   0   37.20    4.00
   9  -2   0   41.30    4.20
  -9  -2   0   43.40    2.80
   9  -2   0   40.70    2.90
  -9   2   0   43.90    2.60
  -9   2   0   40.00    3.00
   9   2   0   42.30    2.70
   9   2   0   44.80    3.60
  -9   2   0   44.00    2.70
   0  -3   0    0.10    0.40
   0   3   0    0.40    0.80
   0   3   0    0.70    0.60
   0   3   0    0.90    0.70
   1  -3   0  198.38    7.20
  -1  -3   0  221.58    7.60
   1  -3   0  210.18    7.20
   1   3   0  220.28    7.70
   1   3   0  227.48    7.70
  -1   3   0  218.78    7.50
   1   3   0  224.68    7.40
  -1   3   0  208.38    7.90
   1   3   0  214.98    7.70
  -1   3   0  238.88    7.20
   2  -3   0 1949.30   62.19
  -2  -3   0 1995.30   62.79
  -2  -3   0 1968.90   62.59
  -2  -3   0 1911.11   62.19
  -2  -3   0 2144.89   62.59
   2   3   0 1865.41   62.59
   2   3   0 1923.71   62.49
  -2   3   0 1892.61   61.89
   2   3   0 1936.61   62.19
   2   3   0 1878.11   62.09
  -2   3   0 1880.71   62.19
   3  -3   0   10.00    1.40
  -3  -3   0   12.50    1.40
  -3  -3   0   10.90    1.80
  -3  -3   0   12.80    1.60
  -3  -3   0   13.60    3.30
   3   3   0   12.10    1.20
   3   3   0   15.10    2.20
   3   3   0   10.90    1.50
   4  -3   0  305.07   11.70
  -4  -3   0  329.87   11.80
  -4  -3   0  336.27   11.20
  -4  -3   0  320.67   11.20
  -4  -3   0  304.17   11.50
   4  -3   0  320.47   11.40
  -4  -3   0  330.57   12.60
   4  -3   0  325.47   12.00
   4  -3   0  301.77   12.10
   4   3   0  315.97   11.40
   4   3   0  311.17   11.60
   4   3   0  315.27   11.30
  -4   3   0  312.47   10.60
   4   3   0  323.17   11.40
   4   3   0  337.57   11.20
  -4   3   0  322.27   11.30
  -4   3   0  314.17   10.80
  -5  -3   0   61.19    3.30
  -5  -3   0   58.89    3.20
   5  -3   0   55.69    4.40
   5  -3   0   62.59    3.50
   5  -3   0   66.09    4.60
  -5  -3   0   63.29    4.60
  -5  -3   0   47.70    5.10
   5  -3   0   59.79    3.60
  -5  -3   0   60.89    3.80
  -5  -3   0   47.90    6.00
   5  -3   0   60.29    4.70
   5   3   0   56.39    3.90
   5   3   0   57.59    3.00
  -5   3   0   58.19    2.60
   5   3   0   59.39    3.80
   5   3   0   56.09    3.60
   5   3   0   54.99    6.80
  -5   3   0   61.19    2.90
   5   3   0   58.69    3.60
   6  -3   0  519.65   19.80
   6  -3   0  522.65   18.30
  -6  -3   0  497.65   18.40
  -6  -3   0  507.65   17.70
  -6  -3   0  529.95   17.80
  -6  -3   0  528.35   18.00
   6  -3   0  505.45   17.80
   6  -3   0  500.25   17.30
   6  -3   0  486.45   18.60
  -6  -3   0  521.65   19.20
   6   3   0  530.25   18.10
   6   3   0  518.55   18.10
  -6   3   0  509.75   17.20
   6   3   0  499.45   19.20
  -6   3   0  511.55   17.30
   6   3   0  513.15   17.20
  -6   3   0  493.65   17.80
   6   3   0  528.75   17.80
   6   3   0  543.65   18.00
   7  -3   0  924.31   32.40
  -7  -3   0  910.51   30.70
   7  -3   0  938.71   30.70
   7  -3   0  899.31   31.40
  -7  -3   0  938.11   30.50
  -7  -3   0  870.41   30.50
   7  -3   0  902.31   31.10
  -7  -3   0 1051.69   36.20
  -7   3   0  906.41   30.50
  -7   3   0  928.81   30.20
   7   3   0  904.91   30.50
   7   3   0  925.21   30.70
   7   3   0  847.92   31.40
   7   3   0  888.51   30.80
  -7   3   0  917.01   30.10
   8  -3   0    5.30    3.10
  -8  -3   0    5.10    1.50
  -8  -3   0    6.60    2.20
  -8  -3   0    4.30    1.30
  -8  -3   0    4.30    1.40
   8  -3   0    5.30    1.80
   8  -3   0    5.10    1.90
   8   3   0    5.80    1.50
  -8   3   0    6.40    1.50
   8   3   0    2.00    1.80
  -8   3   0    6.00    1.90
  -8   3   0    4.80    1.90
  -8   3   0    6.70    1.30
  -9  -3   0   42.10    4.00
   9  -3   0   46.50    4.60
  -9  -3   0   49.80    2.60
   9  -3   0   50.69    3.10
  -9  -3   0   49.50    2.90
  -9   3   0   48.60    2.90
   9   3   0   49.80    2.70
  -9   3   0   46.80    2.70
   9   3   0   47.90    3.60
   0  -4   0  941.11   30.30
   0   4   0  925.21   30.80
   0   4   0  984.20   30.70
   0   4   0  941.01   30.30
   0   4   0  943.91   31.30
   0   4   0  878.91   30.40
  -1  -4   0 1490.35   47.60
  -1   4   0 1510.65   47.60
   1   4   0 1471.75   47.30
  -1   4   0 1327.67   47.30
  -1   4   0 1505.55   47.60
   1   4   0 1468.45   47.60
   1   4   0 1425.06   47.80
  -1   4   0 1539.35   48.00
   1   4   0 1509.15   47.90
  -2  -4   0 1385.56   45.00
  -2  -4   0 1361.06   44.70
  -2  -4   0 1317.87   44.70
  -2   4   0 1392.76   44.70
  -2   4   0 1357.56   44.30
   2   4   0 1487.05   45.50
   2   4   0 1391.86   45.10
   2   4   0 1430.66   45.40
   2   4   0 1351.36   44.90
   2   4   0 1369.46   44.50
   2   4   0 1371.56   44.60
  -3  -4   0   33.10    2.60
   3  -4   0   32.70    3.10
  -3  -4   0   34.80    3.20
  -3  -4   0   34.10    2.50
  -3  -4   0   40.20    4.60
   3  -4   0   35.10    2.80
   3  -4   0   43.50    3.80
  -3  -4   0   36.60    2.40
  -3  -4   0   38.20    3.70
   3   4   0   36.80    2.00
  -3   4   0   35.00    2.30
   3   4   0   35.70    3.70
   3   4   0   34.40    2.00
   3   4   0   35.60    3.80
  -3   4   0   32.90    2.30
   3   4   0   34.20    3.60
   3   4   0   35.50    3.00
   3   4   0   40.60    2.40
   3   4   0   30.80    2.80
  -4  -4   0   54.09    4.10
  -4  -4   0   51.59    3.00
   4  -4   0   45.60    3.50
   4  -4   0   49.90    3.50
  -4  -4   0   49.60    3.00
   4  -4   0   51.69    3.90
  -4  -4   0   41.40    5.00
  -4  -4   0   44.70    4.50
  -4  -4   0   51.89    3.50
   4  -4   0   47.60    3.20
   4  -4   0   60.89    4.80
   4  -4   0   56.59    4.20
  -4   4   0   52.79    2.30
   4   4   0   50.39    3.00
   4   4   0   54.09    3.00
   4   4   0   59.09    4.40
  -4   4   0   50.49    2.80
   4   4   0   49.30    2.70
   4   4   0   56.29    3.40
   4   4   0   49.50    3.10
   4   4   0   47.80    3.70
   4   4   0   42.30    7.20
  -5  -4   0    5.30    1.50
  -5  -4   0    8.40    2.60
  -5  -4   0    7.10    2.90
   5  -4   0    0.00    1.90
   5  -4   0    4.30    2.30
   5  -4   0    7.70    1.80
   5  -4   0    4.00    1.50
   5  -4   0    9.80    4.20
  -5  -4   0    5.30    1.50
  -5  -4   0    7.20    1.70
  -5  -4   0    2.60    1.80
   5   4   0    5.10    4.10
   5   4   0    4.80    1.30
  -5   4   0    4.20    1.10
   5   4   0    6.80    1.70
   5   4   0    8.70    2.00
   5   4   0    6.70    1.70
   5   4   0    4.30    1.70
  -5   4   0    4.10    0.80
  -6  -4   0  618.84   20.70
   6  -4   0  593.54   21.20
  -6  -4   0  602.04   20.80
   6  -4   0  674.73   22.00
  -6  -4   0  599.74   21.60
  -6  -4   0  569.34   21.30
  -6  -4   0  615.34   21.00
   6  -4   0  644.94   20.90
  -6  -4   0  614.04   21.50
  -6  -4   0  597.44   22.10
   6   4   0  581.34   22.40
  -6   4   0  611.14   20.20
   6   4   0  592.74   20.80
   6   4   0  614.64   21.10
   6   4   0  605.74   20.30
  -6   4   0  574.64   20.70
   6   4   0  614.44   20.80
  -6   4   0  606.84   20.10
  -7  -4   0  146.19    6.70
   7  -4   0  153.28    7.40
  -7  -4   0  144.19    6.20
   7  -4   0  144.29    7.10
  -7  -4   0  161.88    7.20
   7  -4   0  161.78    6.60
  -7  -4   0  139.69    8.50
  -7  -4   0  150.08    6.40
   7   4   0  145.69    6.30
  -7   4   0  150.78    8.10
  -7   4   0  154.28    5.80
   7   4   0  148.19    6.40
  -7   4   0  152.18    5.90
   7   4   0  147.89    6.70
  -8  -4   0   15.20    2.00
   8  -4   0   10.30    1.90
   8  -4   0   12.20    1.90
  -8  -4   0   14.70    2.40
  -8  -4   0   15.30    2.30
   8   4   0   14.80    2.20
   8   4   0   15.00    3.10
  -8   4   0   12.30    2.00
   8   4   0   12.50    1.90
  -8   4   0   17.00    1.90
  -8   4   0   14.90    2.50
   8   4   0   15.80    2.70
  -8   4   0   12.10    2.00
  -9  -4   0    2.30    1.50
   9  -4   0    1.70    1.40
   9  -4   0    0.00    1.70
  -9   4   0    0.40    1.30
  -9   4   0    3.00    1.30
   9   4   0   -1.00    1.50
   9   4   0    0.10    2.40
   0  -5   0    0.00    0.60
   0   5   0    1.20    1.60
   0   5   0   -0.90    1.40
   0   5   0   -0.30    0.70
   0   5   0   -1.70    1.80
   0   5   0    0.20    0.50
   0   5   0   -0.20    1.40
  -1  -5   0   12.30    2.30
  -1  -5   0   12.50    1.60
  -1  -5   0   17.90    2.90
   1  -5   0   14.20    1.90
   1  -5   0   17.90    2.60
  -1  -5   0    9.00    2.60
  -1   5   0   11.60    1.10
  -1   5   0   10.10    1.50
   1   5   0   13.10    1.20
   1   5   0   11.90    2.20
   1   5   0   14.60    2.70
   1   5   0   11.40    1.40
   1   5   0   12.40    1.80
   1   5   0   14.70    2.40
  -1   5   0   14.40    2.10
  -1   5   0    7.50    2.30
  -2  -5   0  153.28    6.70
   2  -5   0  167.28    7.10
   2  -5   0  162.18    7.00
  -2  -5   0  146.29    6.60
  -2  -5   0  142.79    7.10
   2  -5   0  162.18    6.70
  -2  -5   0  146.09    6.90
   2  -5   0  155.78    6.30
  -2  -5   0  171.68    6.40
   2  -5   0  157.18    6.60
   2  -5   0  153.78    6.30
   2   5   0  159.08    7.40
  -2   5   0  158.18    5.70
   2   5   0  165.38    5.80
   2   5   0  157.78    6.50
   2   5   0  159.68    7.30
  -2   5   0  131.39    7.10
   2   5   0  157.98    6.30
   2   5   0  158.28    5.70
  -2   5   0  157.98    5.50
  -2   5   0  157.18    6.40
   2   5   0  155.88    6.40
  -3  -5   0   94.49    5.10
   3  -5   0   93.79    4.60
   3  -5   0   97.59    4.50
   3  -5   0  101.29    4.50
  -3  -5   0  101.69    4.80
   3  -5   0   91.29    6.20
  -3  -5   0   86.19    4.70
  -3  -5   0   95.19    4.60
  -3  -5   0   92.09    5.00
   3  -5   0   92.29    4.50
  -3  -5   0   93.09    5.60
  -3  -5   0   90.49    5.30
   3  -5   0   99.19    5.20
   3   5   0   92.29    3.90
   3   5   0   92.99    3.90
   3   5   0   97.19    5.80
   3   5   0   90.99    4.40
   3   5   0   87.19    7.20
   3   5   0   95.29    4.20
   3   5   0   98.79    4.50
   3   5   0   94.99    6.00
  -4  -5   0   27.90    2.80
   4  -5   0   19.00    3.70
   4  -5   0   26.90    3.60
   4  -5   0   21.30    3.00
  -4  -5   0   27.40    3.30
  -4  -5   0   33.60    4.40
  -4  -5   0   27.40    3.70
   4  -5   0   28.30    2.80
   4   5   0   27.30    2.20
   4   5   0   30.80    2.70
  -4   5   0   30.30    2.20
   4   5   0   23.60    2.60
   4   5   0   30.90    2.80
  -4   5   0   28.80    1.70
   4   5   0   28.50    2.70
  -5  -5   0  258.27   10.30
  -5  -5   0  237.98   10.30
  -5  -5   0  233.38    9.20
   5  -5   0  240.78    9.80
   5  -5   0  241.98    9.30
  -5  -5   0  224.48   10.10
  -5  -5   0  244.48    9.40
   5  -5   0  238.98    9.30
   5  -5   0  250.27   10.40
   5  -5   0  240.98   10.10
  -5  -5   0  244.48   10.00
  -5   5   0  243.28    8.50
   5   5   0  242.18    9.30
   5   5   0  254.37    9.40
  -5   5   0  245.18    8.70
   5   5   0  252.37    9.50
   5   5   0  256.47    9.60
  -6  -5   0   81.69    6.10
  -6  -5   0   75.99    4.40
  -6  -5   0   83.39    5.60
   6  -5   0   75.59    5.40
   6  -5   0   83.19    4.40
   6  -5   0   83.79    5.50
  -6  -5   0   75.99    4.30
   6  -5   0   78.49    4.50
  -6  -5   0   76.69    5.10
  -6  -5   0   72.49    7.10
  -6   5   0   79.59    3.60
   6   5   0   73.59    4.40
   6   5   0   73.39    4.40
   6   5   0   73.19    4.20
  -6   5   0   76.79    4.70
  -6   5   0   76.59    3.40
   6   5   0   76.99    4.00
  -7  -5   0   32.70    2.60
  -7  -5   0   29.00    3.30
   7  -5   0   26.00    3.50
   7  -5   0   19.10    2.70
  -7  -5   0   28.00    4.80
  -7   5   0   29.90    3.10
  -7   5   0   24.60    2.00
   7   5   0   29.70    2.70
   7   5   0   23.70    4.60
   7   5   0   27.20    3.00
   7   5   0   29.20    2.60
  -7   5   0   22.30    2.10
   8  -5   0   12.50    2.50
   8  -5   0   16.80    2.20
  -8  -5   0   15.20    2.30
  -8   5   0   19.20    2.40
  -8   5   0   10.10    1.60
   8   5   0   19.00    3.60
   8   5   0   13.70    2.70
   8   5   0   17.40    2.30
  -8   5   0   13.80    1.80
   8   5   0   13.40    1.70
  -9  -5   0   13.10    1.90
   0  -6   0  394.36   14.60
   0  -6   0  396.36   14.10
   0  -6   0  388.16   14.10
   0  -6   0  406.86   13.80
   0  -6   0  375.56   13.80
   0  -6   0  431.26   13.00
   0  -6   0  406.16   14.40
   0   6   0  392.36   13.80
   0   6   0  394.66   13.40
   0   6   0  376.96   14.60
   0   6   0  373.46   13.70
   0   6   0  402.56   13.30
  -1  -6   0  176.38    7.30
  -1  -6   0  186.58    6.80
   1  -6   0  174.08    7.00
   1  -6   0  182.58    7.70
  -1  -6   0  168.68    7.40
   1  -6   0  167.48    7.30
   1  -6   0  181.18    7.00
  -1  -6   0  160.48    7.30
  -1  -6   0  175.58    8.20
  -1  -6   0  169.08    7.70
  -1  -6   0  172.68    7.10
   1  -6   0  181.48    7.40
   1   6   0  178.08    6.50
   1   6   0  182.28    7.00
  -1   6   0  202.08    6.40
   1   6   0  173.28    7.50
   1   6   0  173.68    7.10
   1   6   0  174.78    7.00
   1   6   0  177.88    6.40
  -1   6   0  165.38    7.60
  -1   6   0  179.28    6.50
  -2  -6   0    4.60    2.10
   2  -6   0    5.40    1.50
   2  -6   0    0.50    1.90
   2  -6   0    2.50    1.70
   2  -6   0    6.00    2.20
  -2  -6   0    0.90    1.50
  -2  -6   0    3.40    2.20
   2  -6   0    5.50    1.90
   2  -6   0    2.30    1.30
  -2  -6   0    8.50    3.00
  -2  -6   0    2.90    1.60
   2   6   0    4.00    1.30
   2   6   0    4.50    1.00
   2   6   0    2.80    1.60
   2   6   0    5.30    1.50
   2   6   0    2.10    0.80
  -2   6   0    2.00    0.70
  -2   6   0    3.10    1.00
   3  -6   0  250.07   10.00
  -3  -6   0  255.47   10.90
  -3  -6   0  267.47   10.30
  -3  -6   0  276.37   10.30
   3  -6   0  261.37   10.00
   3  -6   0  252.37   11.70
   3  -6   0  255.17   10.40
  -3  -6   0  264.57   10.70
   3  -6   0  275.37    9.60
   3  -6   0  271.47   10.00
   3   6   0  274.87   10.10
   3   6   0  260.67    9.40
   3   6   0  277.97    9.90
   3   6   0  277.87    9.60
   3   6   0  264.37   10.30
  -3   6   0  268.87    9.40
   3   6   0  267.37    9.40
   4  -6   0   10.90    1.90
   4  -6   0   17.00    2.90
  -4  -6   0   23.80    4.20
   4  -6   0   15.50    2.60
   4  -6   0   13.50    2.10
  -4  -6   0   19.50    3.20
  -4  -6   0   15.10    3.00
   4  -6   0   17.60    2.50
  -4  -6   0   15.30    2.50
   4   6   0   14.50    2.60
  -4   6   0   13.40    1.90
   4   6   0   16.60    2.50
  -4   6   0   13.50    1.40
   4   6   0    7.70    2.70
   4   6   0   15.70    2.10
   4   6   0   13.70    2.10
  -5  -6   0  366.86   13.60
   5  -6   0  369.06   13.00
   5  -6   0  377.96   13.10
   5  -6   0  393.16   14.30
  -5  -6   0  354.36   13.90
  -5  -6   0  369.16   14.00
  -5  -6   0  337.87   13.40
   5  -6   0  367.36   13.50
   5   6   0  356.26   13.10
   5   6   0  350.36   13.10
  -5   6   0  350.66   12.30
  -5   6   0  341.57   13.00
   5   6   0  354.66   13.00
   6  -6   0   44.10    4.30
  -6  -6   0   46.90    4.90
   6  -6   0   43.40    3.20
  -6  -6   0   44.40    3.90
  -6   6   0   40.80    2.50
  -6   6   0   32.70    3.40
   6   6   0   38.80    3.00
  -6   6   0   44.50    2.30
   6   6   0   39.40    3.20
   6   6   0   36.20    3.20
   7  -6   0   -0.80    1.30
  -7  -6   0    1.10    2.40
  -7  -6   0    3.00    1.60
   7  -6   0    2.40    1.50
  -7  -6   0    1.70    2.10
   7   6   0    3.20    1.60
  -7   6   0    1.20    1.00
  -7   6   0    1.90    1.10
   7   6   0    2.60    1.50
   7   6   0    3.80    1.20
  -7   6   0    4.80    1.60
   8  -6   0    1.30    1.30
  -8  -6   0    2.70    1.20
   8  -6   0    0.00    1.70
  -8   6   0    2.80    1.30
   8   6   0    3.00    1.00
  -8   6   0    3.50    1.30
   0  -7   0    1.60    1.60
   0  -7   0   -0.50    1.60
   0  -7   0    0.90    2.60
   0  -7   0    1.10    1.50
   0  -7   0   -1.50    1.90
   0   7   0    0.50    4.40
   0   7   0    2.00    1.50
   0   7   0   -0.40    0.80
   0   7   0   -0.20    0.90
   1  -7   0  166.38    7.60
   1  -7   0  183.18    7.80
  -1  -7   0  186.18    6.60
  -1  -7   0  188.48    7.60
  -1  -7   0  186.38    8.10
  -1  -7   0  184.38    7.50
  -1  -7   0  196.08    7.90
   1  -7   0  184.68    7.30
   1  -7   0  169.88   10.60
   1  -7   0  175.78    7.60
   1  -7   0  182.58    7.20
  -1   7   0  177.48    7.80
  -1   7   0  192.18    6.90
  -1   7   0  181.38    6.70
   1   7   0  179.58    8.50
   1   7   0  177.28    7.10
   1   7   0  187.08    6.90
   1   7   0  175.08    7.30
   1   7   0  175.88    6.70
   2  -7   0  101.59    5.00
  -2  -7   0  104.49    5.40
   2  -7   0   99.09    5.30
  -2  -7   0  104.89    5.90
   2  -7   0   96.89    5.30
   2  -7   0  103.49    5.20
   2  -7   0  100.29    5.70
  -2  -7   0  110.99    4.90
  -2  -7   0  110.79    6.60
  -2  -7   0  105.09    5.30
  -2  -7   0  112.29    5.70
   2  -7   0   99.29    4.70
   2   7   0  107.89    4.80
   2   7   0  109.69    4.50
  -2   7   0  103.79    4.40
  -2   7   0  108.39    5.30
   2   7   0  105.39    6.00
  -2   7   0  108.99    4.30
   2   7   0  107.29    5.10
   2   7   0  103.29    5.00
   2   7   0  109.79    4.40
  -3  -7   0   54.39    4.50
   3  -7   0   63.39    5.00
   3  -7   0   57.49    3.50
  -3  -7   0   54.09    4.10
   3  -7   0   57.79    3.60
  -3  -7   0   57.79    4.50
  -3  -7   0   53.39    3.80
   3  -7   0   55.19    3.70
   3  -7   0   50.59    4.40
  -3  -7   0   46.30    5.40
   3  -7   0   50.99    4.30
   3   7   0   54.49    4.30
   3   7   0   57.39    3.30
  -3   7   0   58.59    2.90
   3   7   0   48.70    3.50
   3   7   0   57.09    3.00
   3   7   0   56.09    3.10
  -3   7   0   57.49    2.70
   3   7   0   53.39    3.80
  -3   7   0   52.59    4.10
   4  -7   0    3.60    2.10
  -4  -7   0    3.20    1.70
  -4  -7   0    3.60    2.10
  -4  -7   0    4.40    2.50
   4  -7   0    5.70    2.10
  -4  -7   0    2.40    1.90
   4  -7   0    4.50    1.70
  -4  -7   0   10.30    3.20
   4  -7   0    2.50    1.40
  -4   7   0    2.50    0.80
   4   7   0    2.60    1.90
   4   7   0    4.40    1.80
   4   7   0    2.50    1.10
  -4   7   0    2.10    1.90
   4   7   0    2.40    1.30
   5  -7   0   62.89    3.80
  -5  -7   0   59.79    4.80
   5  -7   0   63.49    4.90
   5  -7   0   67.59    3.80
  -5  -7   0   73.29    7.50
  -5  -7   0   61.69    4.40
  -5  -7   0   67.79    4.70
  -5   7   0   65.69    5.20
   5   7   0   64.89    3.70
   5   7   0   55.79    4.20
  -5   7   0   64.79    3.00
  -5   7   0   63.69    3.10
   5   7   0   62.79    4.00
   6  -7   0    4.00    1.90
   6  -7   0    9.50    1.60
  -6  -7   0    8.70    3.20
  -6  -7   0    7.90    1.90
   6  -7   0    7.00    1.60
  -6  -7   0    5.40    1.80
   6   7   0    8.50    3.00
   6   7   0    3.60    1.20
  -6   7   0    6.30    1.50
  -6   7   0    6.90    1.20
   6   7   0    4.50    1.50
   7  -7   0   11.00    1.50
   7  -7   0   10.70    2.20
  -7  -7   0    7.30    2.80
  -7  -7   0   14.20    2.10
  -7   7   0    9.10    1.60
   7   7   0   11.60    1.70
   7   7   0   13.60    2.40
  -7   7   0   13.90    1.80
   8  -7   0   17.40    3.10
  -8  -7   0   22.40    1.90
   0  -8   0  909.91   30.80
   0  -8   0  906.11   30.50
   0  -8   0  934.41   31.20
   0  -8   0  913.51   31.00
   0  -8   0  908.21   30.40
   0   8   0  922.61   30.30
   0   8   0  903.81   30.10
   0   8   0  912.71   30.10
  -1  -8   0  170.08    7.00
   1  -8   0  167.08    7.70
  -1  -8   0  164.58    7.80
  -1  -8   0  175.98    7.30
   1  -8   0  174.48    6.90
   1  -8   0  178.88    7.60
   1  -8   0  168.38    7.40
  -1  -8   0  177.88    7.40
   1  -8   0  172.58    7.10
  -1  -8   0  178.58    8.30
   1  -8   0  169.98    7.50
  -1   8   0  170.88    6.40
   1   8   0  160.98    7.20
  -1   8   0  179.38    6.60
  -1   8   0  172.18    7.00
   1   8   0  171.28    6.60
   1   8   0  172.88    6.60
   1   8   0  154.18    9.00
   1   8   0  159.78    7.30
   1   8   0  178.18    6.90
   2  -8   0  105.49    5.90
   2  -8   0  110.99    5.40
   2  -8   0  104.99    4.80
   2  -8   0  107.79    5.50
  -2  -8   0  108.59    5.40
   2  -8   0  106.89    5.50
   2  -8   0  108.09    5.20
  -2  -8   0  120.19    6.20
  -2   8   0  115.69    5.10
   2   8   0  106.99    4.60
   2   8   0  111.19    6.70
   2   8   0   98.89    5.10
   2   8   0  106.79    4.90
  -2   8   0  108.39    5.30
   3  -8   0   80.79    4.50
   3  -8   0   81.89    5.10
  -3  -8   0   82.49    4.70
   3  -8   0   79.29    5.60
   3  -8   0   84.89    4.40
  -3  -8   0   83.29    5.20
   3   8   0   88.69    4.00
  -3   8   0   83.29    3.80
  -3   8   0   89.99    4.50
   3   8   0   80.99    4.20
  -3   8   0   85.29    3.70
   3   8   0   86.79    4.60
   3   8   0   83.09    4.30
   3   8   0   88.19    3.90
  -4  -8   0  233.28    9.40
  -4  -8   0  257.67   10.10
   4  -8   0  249.78   11.20
  -4  -8   0  241.78    9.60
   4  -8   0  247.68    9.40
   4  -8   0  257.17   10.40
   4  -8   0  239.78    9.20
  -4   8   0  243.68    9.00
  -4   8   0  247.28    8.60
   4   8   0  240.98    9.50
   4   8   0  232.58   10.00
   4   8   0  229.08    9.50
  -4   8   0  246.88    8.70
   5  -8   0  334.27   11.30
   5  -8   0  307.57   11.20
  -5  -8   0  310.67   11.80
  -5  -8   0  301.17   11.40
   5  -8   0  324.77   12.10
  -5   8   0  317.47   11.00
   5   8   0  290.67   11.00
   5   8   0  321.97   11.70
  -5   8   0  313.07   10.80
   5   8   0  326.37   11.30
  -5   8   0  312.17   10.80
   5   8   0  297.57   11.80
   6  -8   0   36.70    3.10
  -6  -8   0   41.50    2.80
   6  -8   0   37.70    2.50
  -6  -8   0   37.30    3.00
   6   8   0   38.60    2.40
  -6   8   0   38.80    2.20
   6   8   0   42.70    3.20
  -6   8   0   36.20    2.60
  -6   8   0   36.70    3.00
  -7  -8   0    2.50    1.00
   7  -8   0    2.90    1.30
   7  -8   0   -1.00    1.30
   7   8   0    2.30    1.10
   0  -9   0    2.40    1.40
   0  -9   0    1.70    1.90
   0  -9   0   -0.80    1.30
   0  -9   0   -0.70    1.80
   0   9   0   -0.70    0.90
   0   9   0    0.40    1.20
  -1  -9   0   97.49    5.20
  -1  -9   0   93.89    4.80
   1  -9   0   99.79    5.10
  -1  -9   0   92.89    6.10
   1  -9   0   94.19    4.60
   1  -9   0   90.49    4.40
   1  -9   0   98.49    5.00
   1   9   0   93.39    4.40
   1   9   0   95.39    4.20
  -1   9   0   93.69    4.40
   1   9   0   94.59    4.10
  -1   9   0   90.69    4.10
  -1   9   0   91.99    4.70
  -1   9   0   91.09    4.10
   2  -9   0   53.59    5.20
   2  -9   0   46.90    3.10
   2  -9   0   46.20    4.20
  -2  -9   0   45.60    4.20
   2  -9   0   43.30    3.70
  -2  -9   0   48.50    3.80
  -2   9   0   45.90    2.60
  -2   9   0   46.60    2.60
   2   9   0   47.50    2.90
   2   9   0   42.80    2.60
   2   9   0   42.80    6.70
  -2   9   0   48.80    3.60
  -2   9   0   41.90    3.20
   2   9   0   51.39    4.40
   2   9   0   47.30    3.40
  -3  -9   0    1.50    1.40
  -3  -9   0    0.90    1.70
   3  -9   0    1.60    1.80
   3  -9   0    2.10    1.30
   3  -9   0    0.00    1.20
   3  -9   0    0.10    2.10
   3   9   0    2.20    3.30
  -3   9   0    0.60    1.00
   3   9   0    2.00    0.90
   3   9   0   -0.30    1.80
   3   9   0    1.40    1.20
  -3   9   0    0.20    1.20
   3   9   0    0.00    1.20
   3   9   0    1.90    1.20
   4  -9   0   46.00    2.80
   4  -9   0   42.00    3.70
  -4  -9   0   39.70    3.00
  -4  -9   0   42.00    3.20
   4  -9   0   41.80    2.90
  -4   9   0   41.30    2.60
  -4   9   0   40.10    2.40
  -4   9   0   44.10    2.40
   4   9   0   41.30    2.70
   4   9   0   40.90    2.60
   4   9   0   41.60    3.50
  -5  -9   0   35.20    2.50
   5  -9   0   35.00    3.10
  -5  -9   0   31.20    2.50
   5  -9   0   31.00    2.30
   5  -9   0   30.80    2.30
   5   9   0   34.20    2.30
  -5   9   0   33.10    2.30
   5   9   0   29.20    3.40
   5   9   0   29.60    3.00
  -5   9   0   29.80    2.00
  -6  -9   0   10.00    1.70
   6  -9   0   11.00    1.60
  -6  -9   0   13.80    2.00
   6   9   0   13.60    1.60
   0 -10   0   84.49    4.00
   0 -10   0   72.99    5.40
   0 -10   0   92.39    4.50
   0 -10   0   86.79    3.90
   0 -10   0   90.69    4.40
   0  10   0   95.49    4.10
   0  10   0   83.29    3.90
   0  10   0   89.89    3.80
   0  10   0   82.99    3.70
   1 -10   0   19.00    3.70
  -1 -10   0   18.60    2.20
   1 -10   0   20.70    2.40
   1 -10   0   15.10    2.10
   1 -10   0   15.40    2.10
   1 -10   0   14.40    2.40
  -1 -10   0   15.10    2.40
  -1 -10   0   15.60    2.40
   1  10   0   17.60    1.70
   1  10   0   16.80    1.70
   1  10   0   18.60    2.00
  -1  10   0   19.80    2.40
   1  10   0   13.20    2.30
  -1  10   0   16.40    1.60
  -1  10   0   17.30    1.90
  -1  10   0   16.50    1.90
  -2 -10   0   23.70    2.20
   2 -10   0   24.50    2.30
   2 -10   0   27.10    2.20
   2 -10   0   27.60    3.60
  -2 -10   0   24.30    2.60
  -2 -10   0   21.00    2.50
   2  10   0   24.80    1.80
   2  10   0   23.00    2.10
  -2  10   0   24.40    2.00
  -2  10   0   22.80    2.00
   2  10   0   23.40    3.00
  -3 -10   0    9.30    1.50
   3 -10   0    8.90    1.90
   3 -10   0   12.80    1.80
   3 -10   0   10.60    1.80
  -3 -10   0   12.80    1.90
  -3  10   0   12.50    2.00
   3  10   0   11.20    1.60
  -3  10   0   11.60    1.50
   3  10   0   11.60    1.60
  -3  10   0   10.60    1.60
  -4 -10   0    4.20    1.00
   4 -10   0    5.40    1.50
  -4 -10   0    3.40    1.20
   4  10   0    4.30    1.50
  -4  10   0    7.20    1.10
  -4  10   0    8.40    1.60
  -5 -10   0  193.18    6.80
  -5 -10   0  194.98    6.80
  -5 -10   0  194.48    6.80
   0 -11   0   -0.60    0.90
   0  11   0   -0.10    0.70
   0  11   0   -0.60    1.10
   0  11   0    0.50    1.10
  -1 -11   0   69.99    3.20
  -1 -11   0   69.69    3.60
  -1  11   0   68.59    2.90
   1  11   0   69.79    3.20
   1  11   0   61.39    3.00
  -1  11   0   71.09    2.90
  -2 -11   0  150.88    5.40
   2 -11   0  145.29    5.30
  -2 -11   0  136.29    5.10
  -2 -11   0  142.69    5.50
  -2  11   0  141.89    5.30
  -2  11   0  152.88    5.20
   2  11   0  145.79    5.40
  -3 -11   0   13.80    1.60
  -3 -11   0   12.00    1.30
  -3  11   0   15.00    1.60
   3  11   0   10.60    1.30
 -10   0   1   21.80    1.90
  10   0  -1   19.60    2.90
   9   0  -1   -0.70    1.90
  -9   0   1    0.40    1.20
   9   0  -1    1.00    1.40
  -9   0   1    0.90    1.10
   9   0  -1   -1.00    1.30
   9   0  -1    1.60    1.80
  -9   0   1   -0.40    1.40
   8   0  -1   39.30    3.60
   8   0  -1   37.00    5.10
   8   0  -1   36.70    4.60
  -8   0   1   41.50    2.80
   8   0  -1   46.90    3.70
  -8   0   1   38.80    2.80
  -8   0   1   43.90    3.80
   7   0  -1  783.02   25.80
   7   0  -1  770.42   26.80
   7   0  -1  745.33   25.30
  -7   0   1  747.63   25.30
  -7   0   1  753.22   25.40
  -7   0   1  748.03   25.70
   7   0  -1  776.52   26.00
   6   0  -1 3198.48  101.99
  -6   0   1 3042.90  101.49
  -6   0   1 3098.39  101.19
   6   0  -1 3054.09  101.79
   6   0  -1 3356.06  101.79
   6   0  -1 3175.38  103.69
  -6   0   1 3161.88  101.19
   5   0  -1   60.09    3.80
   5   0  -1   60.09    4.30
   5   0  -1   61.89    3.80
   5   0  -1   59.49    3.70
  -5   0   1   63.59    2.70
   5   0  -1   62.29    4.60
  -5   0   1   63.29    3.00
   5   0  -1   55.79    4.40
  -4   0   1  466.45   15.30
  -4   0   1  495.75   16.10
  -4   0   1  446.66   15.40
  -4   0   1  457.55   16.30
   3   0  -1  103.69    3.90
  -3   0   1  104.29    3.60
  -3   0   1  105.99    4.00
  -3   0   1  100.29    4.50
  -1   0   1 1669.03   59.59
   1   0  -1 1838.62   60.19
   0   0  -1  276.77    9.00
   0   0   1  284.47    9.00
   0   0  -1  269.67    9.00
   1   0   1 2838.02   96.79
  -1   0  -1 2684.63   96.49
  -2   0  -1 2102.19   64.79
   2   0   1 1934.41   64.69
  -3   0  -1 7041.70  224.08
  -4   0  -1   16.90    2.40
  -4   0  -1   16.90    2.50
  -4   0  -1   12.70    1.10
  -4   0  -1   10.60    1.40
   4   0   1   12.30    1.20
   5   0   1  424.96   14.40
   5   0   1  427.56   13.80
  -5   0  -1  411.96   14.00
   5   0   1  409.96   14.30
   5   0   1  418.76   14.80
   5   0   1  397.66   15.60
  -5   0  -1  408.86   15.20
  -5   0  -1  389.36   14.40
  -5   0  -1  422.16   14.00
   5   0   1  425.16   14.70
  -6   0  -1    0.20    1.50
  -6   0  -1    0.60    1.00
   6   0   1    0.90    3.30
  -6   0  -1    4.40    1.80
   6   0   1    0.70    1.70
   6   0   1    1.00    1.90
   6   0   1    0.10    2.00
   6   0   1   -1.70    1.40
  -6   0  -1    2.20    3.20
  -7   0  -1  201.28    8.60
   7   0   1  198.88    9.60
   7   0   1  214.68    8.30
   7   0   1  207.58    8.20
  -7   0  -1  216.98    8.00
  -7   0  -1  209.88    8.30
   7   0   1  212.18    8.80
   7   0   1  215.68    9.00
  -8   0  -1  145.39    6.60
   8   0   1  147.79    6.20
   8   0   1  140.89    6.50
  -8   0  -1  145.39    6.10
  -8   0  -1  146.39    6.00
   8   0   1  142.49    5.90
   8   0   1  139.09    8.20
  -8   0  -1  144.99    5.90
   9   0   1  280.97   10.20
  -9   0  -1  300.67   10.20
  -9   0  -1  290.87   10.10
   9   0   1  282.97   11.20
 -10  -1   1   50.09    2.30
  10   1  -1   44.00    3.20
 -10   1   1   47.10    2.50
  -9  -1   1   52.99    3.50
  -9  -1   1   59.39    3.20
  -9  -1   1   60.79    3.40
   9  -1  -1   58.69    3.40
   9  -1  -1   53.59    4.30
  -9  -1   1   56.69    3.10
   9  -1  -1   48.50    4.00
  -9   1   1   59.79    3.40
   9   1  -1   59.79    3.30
  -9   1   1   58.19    3.10
  -9   1   1   60.69    3.30
   9   1  -1   48.30    4.80
   9   1  -1   57.69    4.30
   8  -1  -1  228.18    9.10
  -8  -1   1  230.68    9.30
   8  -1  -1  238.58   10.60
   8  -1  -1  228.98   10.60
  -8  -1   1  224.68    8.70
  -8  -1   1  219.68    8.70
   8   1  -1  232.08    9.30
   8   1  -1  243.78   10.70
   8   1  -1  227.48    9.00
  -8   1   1  233.98    8.60
  -8   1   1  218.18    8.50
   8   1  -1  230.68   12.30
   7  -1  -1   95.39    5.20
   7  -1  -1   89.79    4.50
   7  -1  -1   86.69    5.90
   7  -1  -1   87.79    5.00
  -7  -1   1   91.79    4.30
  -7  -1   1   95.09    4.50
  -7  -1   1   88.69    5.00
   7  -1  -1  105.59    6.70
   7   1  -1   89.59    4.70
   7   1  -1   90.89    6.30
  -7   1   1   92.59    4.10
  -7   1   1   95.69    4.30
  -7   1   1   87.89    5.20
   7   1  -1   94.09    5.40
   7   1  -1   93.49    5.00
   6  -1  -1  240.08    9.90
  -6  -1   1  262.47    9.10
   6  -1  -1  250.17   10.40
  -6  -1   1  244.68    9.10
   6  -1  -1  255.27    9.50
   6  -1  -1  209.58    9.50
   6   1  -1  263.17   11.10
  -6   1   1  259.47    8.80
   6   1  -1  250.67    9.80
   6   1  -1  252.27    9.80
   6   1  -1  249.68    9.30
   6   1  -1  250.47   10.00
   6   1  -1  243.98    9.50
  -6   1   1  254.87    9.00
  -5  -1   1   87.99    5.20
   5  -1  -1   69.39    4.10
  -5  -1   1   78.59    3.30
   5  -1  -1   77.49    4.10
   5  -1  -1   78.39    4.80
   5  -1  -1   72.59    4.90
   5  -1  -1   67.59    4.40
  -5  -1   1   80.49    5.40
  -5  -1   1   79.39    3.50
   5   1  -1   76.69    5.00
   5   1  -1   71.79    4.90
  -5   1   1   75.39    3.00
   5   1  -1   71.69    4.00
   5   1  -1   72.49    4.30
   5   1  -1   76.79    4.10
   5   1  -1   72.89    5.30
   5   1  -1   80.39    4.20
  -5   1   1   76.69    3.50
   4  -1  -1  208.88    7.70
  -4  -1   1  222.98    7.60
  -4  -1   1  219.68    7.80
  -4  -1   1  209.48    8.30
  -4   1   1  252.47    7.50
   4   1  -1  229.68    7.40
  -4   1   1  204.58    7.80
   3  -1  -1  857.11   29.00
  -3  -1   1  931.91   29.60
  -3  -1   1  920.31   29.10
  -3  -1   1  898.61   29.50
  -3   1   1  880.51   28.80
   3   1  -1  918.71   29.10
   3   1  -1  923.01   29.50
  -3   1   1  892.31   29.20
  -2  -1   1 2796.32   89.39
  -1  -1   1 1678.63   61.99
   1   1  -1 1649.93   61.69
   1  -1   1 5222.78  169.38
   1   1   1 5036.30  170.08
  -1   1  -1 4774.02  168.68
  -2  -1  -1 2063.59   68.19
  -2  -1  -1 2193.78   68.59
   2   1   1 2218.08   68.19
   2   1   1 2074.39   68.29
  -2   1  -1 2020.30   68.29
  -2   1  -1 2172.78   68.49
   2   1   1 2198.18   68.49
  -3  -1  -1  336.57   11.70
  -3  -1  -1  337.97   11.70
  -3  -1  -1  327.27   11.20
   3  -1   1  342.07   11.20
   3  -1   1  343.27   11.50
  -3   1  -1  339.57   11.00
  -3   1  -1  329.97   11.50
  -3   1  -1  324.17   11.70
   3   1   1  350.56   11.70
   3   1   1  340.87   11.30
   3   1   1  319.67   11.10
  -4  -1  -1  483.75   17.40
  -4  -1  -1  525.25   16.50
   4  -1   1  491.45   16.20
  -4  -1  -1  491.85   16.50
  -4  -1  -1  493.25   17.20
   4   1   1  494.95   16.50
  -4   1  -1  491.25   16.40
  -4   1  -1  494.35   17.40
   4   1   1  476.55   16.70
  -4   1  -1  489.85   16.30
  -4   1  -1  516.55   17.20
  -5  -1  -1  159.78    6.00
   5  -1   1  154.38    7.70
   5  -1   1  147.39    6.30
  -5  -1  -1  164.48    7.20
  -5  -1  -1  154.88    6.50
   5  -1   1  157.18    6.70
   5  -1   1  155.78    6.60
   5  -1   1  153.18    6.80
  -5  -1  -1  155.48    6.90
  -5  -1  -1  169.78    6.00
  -5   1  -1  141.59    6.50
   5   1   1  159.88    5.90
  -5   1  -1  164.38    5.80
   5   1   1  153.28    8.80
  -5   1  -1  158.28    5.90
   5   1   1  161.28    7.00
   5   1   1  155.48    7.40
  -5   1  -1  162.08    7.80
   5   1   1  159.58    7.00
   5   1   1  161.98    6.50
   5   1   1  153.88    6.40
   5   1   1  157.18    7.00
   6  -1   1  122.09    5.70
   6  -1   1  117.19    5.50
  -6  -1  -1  112.19    5.90
  -6  -1  -1  130.09    5.30
   6  -1   1  129.59    6.00
  -6  -1  -1  124.69    5.60
  -6  -1  -1  126.39    7.30
   6  -1   1  124.19    6.20
   6  -1   1  125.79    6.90
   6   1   1  124.49    6.20
  -6   1  -1  122.39    5.60
   6   1   1  129.09    6.20
   6   1   1  119.69    5.60
   6   1   1  121.59    5.70
  -6   1  -1  118.49    5.20
  -6   1  -1  135.19    5.20
   7  -1   1  316.77   12.10
  -7  -1  -1  329.47   11.60
  -7  -1  -1  303.47   12.10
  -7  -1  -1  337.67   11.90
  -7  -1  -1  312.57   14.30
   7  -1   1  324.67   11.60
   7  -1   1  307.97   12.20
   7  -1   1  319.07   11.80
   7  -1   1  333.57   12.80
   7   1   1  291.47   13.10
   7   1   1  325.77   11.80
   7   1   1  316.37   12.30
   7   1   1  345.67   11.90
  -7   1  -1  312.07   11.70
  -7   1  -1  318.17   12.00
   7   1   1  328.47   12.30
  -7   1  -1  326.77   11.40
   8  -1   1   53.89    5.20
  -8  -1  -1   59.69    3.50
  -8  -1  -1   47.80    4.50
  -8  -1  -1   54.79    3.20
   8  -1   1   55.99    4.00
  -8  -1  -1   54.29    3.50
   8  -1   1   53.99    3.90
   8  -1   1   55.49    3.90
   8  -1   1   54.09    3.20
  -8   1  -1   60.19    3.40
   8   1   1   57.89    3.50
  -8   1  -1   50.39    3.80
   8   1   1   61.39    3.50
  -8   1  -1   51.29    3.20
  -8   1  -1   54.09    3.10
   9  -1   1  236.78    9.20
  -9  -1  -1  258.97    9.40
  -9  -1  -1  241.68    9.00
  -9  -1  -1  261.37    9.00
   9  -1   1  254.57   10.10
   9   1   1  264.17   10.20
  -9   1  -1  248.98    9.00
  -9   1  -1  259.67    9.10
   9   1   1  263.07    9.10
  10   2  -1   27.60    4.60
   9  -2  -1   39.70    2.90
   9  -2  -1   36.60    4.10
  -9  -2   1   41.40    2.60
   9  -2  -1   37.70    3.50
  -9  -2   1   39.40    2.80
  -9   2   1   37.70    2.90
   9   2  -1   41.10    2.70
  -9   2   1   38.30    2.70
  -9   2   1   39.70    2.60
   9   2  -1   38.20    3.60
  -8  -2   1   58.69    3.30
   8  -2  -1   54.49    5.30
  -8  -2   1   52.49    3.40
   8  -2  -1   57.19    4.90
  -8  -2   1   54.09    5.00
  -8   2   1   53.19    3.00
   8   2  -1   54.49    5.00
  -8   2   1   52.89    3.90
  -8   2   1   52.69    3.00
  -7  -2   1 1303.17   43.20
  -7  -2   1 1310.57   43.40
   7  -2  -1 1295.37   44.20
   7  -2  -1 1298.17   45.10
   7  -2  -1 1316.87   43.80
   7  -2  -1 1293.77   43.30
   7  -2  -1 1385.46   43.40
  -7  -2   1 1303.17   43.10
   7   2  -1 1279.67   43.20
  -7   2   1 1277.87   43.20
  -7   2   1 1319.77   42.70
   7   2  -1 1315.47   44.20
   7   2  -1 1306.27   43.30
   7   2  -1 1342.37   43.70
   7   2  -1 1372.16   43.80
  -7   2   1 1311.07   42.90
   6  -2  -1 1680.93   50.09
  -6  -2   1 1490.55   48.80
  -6  -2   1 1413.26   50.09
  -6  -2   1 1466.85   50.19
  -6  -2   1 1422.16   49.00
   6  -2  -1 1492.05   49.40
   6  -2  -1 1497.45   49.00
   6  -2  -1 1466.65   50.69
   6   2  -1 1540.85   49.00
  -6   2   1 1511.85   48.50
   6   2  -1 1516.35   49.30
   6   2  -1 1523.45   49.10
   6   2  -1 1425.86   49.40
   6   2  -1 1536.85   50.09
   6   2  -1 1525.85   49.40
  -6   2   1 1455.85   48.30
   5  -2  -1  661.93   24.50
   5  -2  -1  737.23   24.60
  -5  -2   1  754.02   24.00
   5  -2  -1  726.13   24.10
  -5  -2   1  763.52   25.20
   5  -2  -1  696.03   23.80
   5  -2  -1  746.83   25.00
  -5  -2   1  681.73   24.30
  -5  -2   1  752.72   23.90
   5   2  -1  723.73   24.50
  -5   2   1  694.93   23.40
  -5   2   1  709.03   23.60
   5   2  -1  726.03   24.20
   5   2  -1  711.23   24.20
   5   2  -1  712.33   24.20
   5   2  -1  757.92   23.50
   5   2  -1  694.23   25.20
   5   2  -1  734.23   24.30
   4  -2  -1   76.89    3.00
  -4  -2   1   69.59    4.10
  -4  -2   1   77.49    4.10
  -4  -2   1   71.89    3.30
  -4  -2   1   72.39    3.10
   4   2  -1   63.79    3.50
  -4   2   1   74.79    2.80
   4   2  -1   74.39    3.00
  -4   2   1   72.99    3.20
  -3  -2   1 1204.58   37.40
  -3  -2   1 1170.88   37.20
   3  -2  -1 1088.79   36.40
  -3  -2   1 1137.59   36.90
   3   2  -1 1126.29   36.80
   3   2  -1 1149.19   37.20
  -3   2   1 1096.39   36.60
  -2  -2   1 1296.07   42.10
  -2  -2   1 1305.07   42.30
   2   2  -1 1323.77   42.30
   2   2  -1 1292.77   42.30
   2   2  -1 1310.67   42.20
   2   2  -1 1327.67   41.90
  -1  -2   1 5320.47  188.88
   1   2  -1 5683.53  190.18
   0  -2   1 1113.89   34.50
   0   2  -1 1021.00   34.50
   0   2  -1 1058.49   34.20
   0   2  -1 1089.59   34.60
  -1  -2  -1 1403.46   44.60
  -1  -2  -1 1314.07   44.50
   1  -2   1 1399.56   44.50
   1  -2   1 1435.86   44.40
  -1   2  -1 1396.16   44.30
   1   2   1 1376.96   44.40
   1   2   1 1412.16   44.60
  -1   2  -1 1326.47   44.60
  -1   2  -1 1403.96   44.50
   1   2   1 1394.96   44.60
  -2  -2  -1  270.57    9.20
   2  -2   1  263.47    8.70
  -2  -2  -1  259.87    8.80
  -2  -2  -1  253.47    9.10
   2  -2   1  264.37    9.00
  -2   2  -1  263.67    9.20
  -2   2  -1  258.37    8.60
   2   2   1  260.17    9.20
  -2   2  -1  263.77    8.90
   2   2   1  262.97    9.00
   2   2   1  260.17    8.80
  -3  -2  -1  436.06   14.40
   3  -2   1  360.16   13.20
  -3  -2  -1  398.76   13.90
  -3  -2  -1  400.86   13.80
   3  -2   1  402.96   13.00
  -3   2  -1  400.46   13.90
   3   2   1  412.86   13.20
   3   2   1  389.26   13.30
  -3   2  -1  381.56   13.00
  -3   2  -1  395.46   13.50
   3   2   1  405.06   13.40
   3   2   1  400.56   13.90
  -3   2  -1  387.66   13.10
   4  -2   1  215.08    8.80
   4  -2   1  218.08    8.50
  -4  -2  -1  234.68    9.30
   4  -2   1  209.08    8.20
  -4  -2  -1  217.88    7.90
  -4  -2  -1  227.88    8.10
   4  -2   1  214.18    8.60
  -4  -2  -1  218.68    8.60
  -4  -2  -1  214.88    8.40
   4   2   1  216.18    8.00
  -4   2  -1  240.38    8.60
   4   2   1  223.88    9.00
   4   2   1  226.58    8.20
   4   2   1  226.18    8.40
  -4   2  -1  230.08    9.30
  -4   2  -1  228.28    7.80
  -4   2  -1  236.18    7.60
   4   2   1  217.78    8.60
  -5  -2  -1  118.09    6.10
  -5  -2  -1  120.39    4.90
  -5  -2  -1  119.49    5.40
   5  -2   1  122.59    5.40
  -5  -2  -1  124.49    5.00
   5  -2   1  119.59    5.10
   5  -2   1  122.69    5.80
   5  -2   1  113.29    6.40
  -5  -2  -1  118.59    6.00
   5  -2   1  109.39    5.90
   5   2   1  121.79    4.90
  -5   2  -1  120.59    4.70
   5   2   1  120.29    5.30
   5   2   1  118.09    5.30
   5   2   1  115.39    5.60
   5   2   1  124.39    6.30
  -5   2  -1  122.99    4.60
   5   2   1  120.89    5.60
  -5   2  -1  121.49    5.70
   5   2   1  118.39    6.10
   6  -2   1   96.19    5.00
  -6  -2  -1   98.69    4.40
   6  -2   1   99.79    5.40
   6  -2   1   89.59    4.50
   6  -2   1   88.49    5.90
  -6  -2  -1   92.49    4.80
  -6  -2  -1   95.19    5.50
   6  -2   1   97.99    5.40
  -6  -2  -1   94.89    4.50
  -6  -2  -1  102.79    6.20
   6   2   1   92.49    4.90
  -6   2  -1   94.19    4.20
   6   2   1  100.99    5.10
   6   2   1   93.39    5.10
   6   2   1   90.99    5.40
   6   2   1   98.29    4.80
  -6   2  -1   90.29    4.80
   6   2   1  105.39    5.80
  -6   2  -1   98.69    4.10
   6   2   1   92.29    4.00
  -7  -2  -1  174.68    7.30
  -7  -2  -1  166.18    6.90
   7  -2   1  172.08    6.80
   7  -2   1  173.38    8.10
  -7  -2  -1  170.88    7.80
   7  -2   1  173.48    7.70
  -7  -2  -1  179.08    7.00
  -7  -2  -1  166.88    9.60
   7  -2   1  170.58    7.60
   7  -2   1  170.38    7.40
  -7   2  -1  170.18    6.70
  -7   2  -1  177.48    7.20
   7   2   1  177.98    7.20
   7   2   1  171.58    7.20
  -7   2  -1  172.68    6.70
   8  -2   1   36.90    4.00
  -8  -2  -1   35.50    2.70
   8  -2   1   27.70    4.60
   8  -2   1   33.80    3.20
   8  -2   1   26.80    3.00
  -8  -2  -1   29.90    2.60
   8  -2   1   27.40    2.70
  -8  -2  -1   29.50    3.20
  -8  -2  -1   31.20    4.90
  -8   2  -1   35.30    2.60
  -8   2  -1   37.20    2.70
  -8   2  -1   33.40    2.40
   8   2   1   34.30    2.80
  -8   2  -1   36.50    3.10
  -9  -2  -1  310.77   10.40
   9  -2   1  288.77   11.60
  -9  -2  -1  312.87   10.80
  -9  -2  -1  275.87   10.60
   9  -2   1  292.37   10.70
  -9   2  -1  305.17   10.50
   9   2   1  318.87   10.60
   9   2   1  304.17   11.50
  -9   2  -1  314.87   10.50
   9  -3  -1   62.09    3.30
  -9  -3   1   63.69    3.30
  -9  -3   1   62.79    3.10
  -9  -3   1   59.69    3.30
   9  -3  -1   58.99    3.70
   9   3  -1   60.79    3.10
   9   3  -1   54.59    4.00
  -9   3   1   63.39    3.20
   8  -3  -1  266.37   11.70
   8  -3  -1  279.97   10.90
  -8  -3   1  271.57    9.90
   8  -3  -1  264.37   10.10
  -8  -3   1  275.77   10.10
  -8  -3   1  270.47   10.40
   8   3  -1  261.47   11.00
   8   3  -1  281.67   10.20
   8   3  -1  274.67   11.40
  -8   3   1  274.77   10.10
  -8   3   1  265.57   11.00
  -8   3   1  268.17    9.70
  -7  -3   1   58.49    8.50
   7  -3  -1   77.89    5.20
  -7  -3   1   73.89    4.70
   7  -3  -1   72.99    4.30
  -7  -3   1   73.19    3.90
  -7  -3   1   70.89    4.30
   7  -3  -1   60.09    6.50
  -7  -3   1   72.39    3.90
   7   3  -1   68.89    4.50
  -7   3   1   73.99    3.60
   7   3  -1   70.69    4.30
   7   3  -1   70.59    6.00
   7   3  -1   70.19    4.30
  -7   3   1   58.29    6.30
  -7   3   1   68.09    3.30
  -6  -3   1  338.87   11.60
   6  -3  -1  316.67   12.20
   6  -3  -1  315.17   13.90
  -6  -3   1  311.87   11.90
   6  -3  -1  322.87   11.70
   6  -3  -1  331.37   12.70
  -6  -3   1  328.67   11.60
  -6  -3   1  321.27   13.40
  -6   3   1  326.37   11.10
   6   3  -1  299.47   13.00
   6   3  -1  300.17   11.90
   6   3  -1  326.27   11.80
  -6   3   1  329.27   10.90
   6   3  -1  294.17   11.60
   5  -3  -1  287.17   12.10
   5  -3  -1  262.17    9.70
   5  -3  -1  257.07   10.50
  -5  -3   1  269.87   10.80
   5  -3  -1  264.17   10.30
  -5  -3   1  256.17    9.50
  -5  -3   1  269.77    9.50
  -5  -3   1  259.57   10.00
   5   3  -1  258.47    9.70
   5   3  -1  254.27   10.30
   5   3  -1  260.17   11.30
   5   3  -1  259.37    9.20
   5   3  -1  250.77    9.90
   5   3  -1  261.67    9.80
   5   3  -1  265.17    9.90
  -5   3   1  257.37    8.90
   4  -3  -1  517.55   17.70
  -4  -3   1  542.85   17.60
   4  -3  -1  544.55   18.50
  -4  -3   1  535.25   17.50
  -4  -3   1  528.45   18.20
  -4  -3   1  489.55   17.90
   4  -3  -1  521.95   18.10
  -4   3   1  501.45   17.10
   4   3  -1  537.45   17.50
   4   3  -1  509.65   17.80
  -4   3   1  525.75   16.90
   4   3  -1  510.25   17.90
   4   3  -1  498.95   19.00
   4   3  -1  532.05   17.90
   4   3  -1  499.75   18.10
   4   3  -1  524.75   17.70
  -3  -3   1  107.99    4.30
  -3  -3   1  107.79    4.40
  -3  -3   1  112.39    4.80
   3   3  -1  103.39    4.80
  -3   3   1  106.49    3.90
   3   3  -1  113.89    5.00
   3   3  -1  115.49    4.40
   3   3  -1  109.49    4.10
  -3   3   1  104.09    3.70
   3   3  -1  100.69    4.50
   3   3  -1  105.29    4.20
  -2  -3   1  339.17   11.50
  -2  -3   1  316.77   11.50
  -2  -3   1  352.16   11.80
   2   3  -1  356.56   11.70
   2   3  -1  311.27   11.80
   2   3  -1  349.77   11.90
  -2   3   1  347.87   11.20
   2   3  -1  340.17   11.30
   2   3  -1  361.76   11.60
   2   3  -1  329.37   11.70
  -1  -3   1  561.44   18.50
  -1  -3   1  553.14   18.60
   1   3  -1  543.55   18.30
   1   3  -1  563.84   18.70
  -1   3   1  562.64   18.30
  -1   3   1  555.24   18.40
   1   3  -1  572.64   18.80
   1   3  -1  545.25   18.70
  -1   3   1  618.34   18.40
   0  -3   1 2280.57   75.69
   0  -3  -1 2304.27   75.49
   0   3   1 2358.96   75.39
   0   3  -1 2412.76   75.79
   0   3   1 2484.85   75.79
   0   3  -1 2398.16   75.89
   0   3   1 2300.47   75.59
  -1  -3  -1 5162.28  176.38
   1  -3   1 4837.12  172.28
  -1  -3  -1 4704.63  173.08
  -1   3  -1 4709.53  172.58
   2  -3   1  822.72   26.20
  -2  -3  -1  813.52   27.00
  -2  -3  -1  844.72   26.80
  -2  -3  -1  803.62   26.40
   2  -3   1  781.92   26.40
   2  -3   1  781.12   27.70
  -2   3  -1  811.42   26.60
  -2   3  -1  799.02   26.90
   2   3   1  824.32   26.70
   2   3   1  841.02   26.90
  -3  -3  -1  547.15   18.70
  -3  -3  -1  579.94   19.20
  -3  -3  -1  562.44   19.50
  -3   3  -1  604.24   19.00
   3   3   1  596.44   20.00
  -3   3  -1  554.84   18.40
   3   3   1  581.94   18.50
   3   3   1  517.25   18.80
  -3   3  -1  549.15   18.30
   3   3   1  524.55   18.80
   3   3   1  575.04   18.60
  -3   3  -1  560.14   19.50
  -4  -3  -1   23.90    2.00
   4  -3   1   18.20    3.70
  -4  -3  -1   22.30    3.20
   4  -3   1   21.90    2.90
   4  -3   1   22.10    2.60
   4  -3   1   25.40    3.60
  -4  -3  -1   22.40    2.80
  -4  -3  -1   25.20    2.60
   4  -3   1   25.50    3.30
  -4  -3  -1   25.10    2.10
   4  -3   1   21.00    3.00
  -4  -3  -1   23.80    4.80
  -4   3  -1   23.00    1.40
   4   3   1   25.00    2.00
  -4   3  -1   18.70    2.30
   4   3   1   24.50    2.10
   4   3   1   28.10    2.20
   4   3   1   19.60    2.10
   4   3   1   19.80    2.80
   4   3   1   16.80    2.60
   4   3   1   21.50    2.60
   4   3   1   30.30    2.80
   5  -3   1  228.88    9.10
  -5  -3  -1  246.28    8.70
   5  -3   1  240.88    8.60
  -5  -3  -1  231.68    9.70
  -5  -3  -1  198.88    9.60
   5  -3   1  250.47    9.30
  -5  -3  -1  240.18    8.70
  -5  -3  -1  226.48    9.50
   5  -3   1  235.18   10.30
   5  -3   1  192.88   12.00
   5   3   1  240.68    8.90
   5   3   1  246.28    8.70
  -5   3  -1  246.08    8.40
   5   3   1  242.38    9.00
  -5   3  -1  234.08    9.00
  -5   3  -1  243.68    8.20
   6  -3   1  383.56   14.10
  -6  -3  -1  382.46   14.80
  -6  -3  -1  360.96   14.30
  -6  -3  -1  394.86   13.70
   6  -3   1  363.16   14.40
   6  -3   1  371.76   13.20
  -6  -3  -1  381.86   14.20
   6  -3   1  378.26   13.60
  -6  -3  -1  358.56   13.40
  -6  -3  -1  363.06   13.40
  -6   3  -1  388.76   13.00
  -6   3  -1  359.86   13.40
   6   3   1  376.76   13.50
  -6   3  -1  399.66   13.10
   6   3   1  389.76   13.80
   6   3   1  383.46   13.90
   6   3   1  381.86   13.10
   6   3   1  404.56   13.70
   7  -3   1  597.54   21.20
  -7  -3  -1  592.94   21.10
  -7  -3  -1  595.34   20.50
  -7  -3  -1  609.74   20.80
   7  -3   1  598.44   20.20
  -7  -3  -1  586.84   20.70
  -7  -3  -1  601.94   22.40
   7  -3   1  631.04   22.60
   7  -3   1  596.34   21.50
   7  -3   1  626.14   20.90
   7   3   1  610.44   20.80
  -7   3  -1  624.04   20.40
   7   3   1  586.84   20.90
   7   3   1  606.64   20.60
  -7   3  -1  598.24   20.30
  -7   3  -1  610.34   20.60
   7   3   1  617.64   20.90
  -8  -3  -1   25.70    2.30
   8  -3   1   19.30    2.70
   8  -3   1   19.40    3.50
   8  -3   1   18.80    3.70
  -8  -3  -1   26.00    2.70
  -8  -3  -1   26.90    2.80
   8  -3   1   18.40    2.80
   8   3   1   21.30    2.30
  -8   3  -1   24.60    2.20
  -8   3  -1   23.70    2.40
  -8   3  -1   20.90    2.50
  -8   3  -1   23.90    2.00
  -9  -3  -1  146.59    5.80
   9  -3   1  144.69    5.80
  -9  -3  -1  141.69    5.40
   9   3   1  144.09    6.50
  -9   3  -1  147.89    5.50
  -9   3  -1  156.18    5.70
   9   3   1  149.09    5.60
   9  -4  -1    1.40    2.40
   9  -4  -1    0.70    1.30
  -9  -4   1    1.70    2.00
   9   4  -1    1.00    1.00
  -9   4   1   -0.30    1.50
   9   4  -1    0.90    2.00
  -9   4   1   -1.70    1.60
   8  -4  -1   45.30    3.20
  -8  -4   1   51.59    3.00
  -8  -4   1   52.19    4.60
  -8  -4   1   53.69    3.60
  -8  -4   1   45.20    3.10
   8  -4  -1   49.30    3.80
  -8   4   1   45.90    2.80
   8   4  -1   50.79    4.30
  -8   4   1   50.69    3.80
   8   4  -1   43.20    3.10
  -8   4   1   43.80    2.90
   8   4  -1   55.69    4.40
   8   4  -1   46.20    3.30
  -7  -4   1   68.09    3.70
   7  -4  -1   69.49    4.00
  -7  -4   1   59.29    7.80
  -7  -4   1   62.39    4.00
  -7  -4   1   65.89    4.50
  -7  -4   1   57.59    4.00
   7  -4  -1   72.19    5.00
   7   4  -1   63.19    4.10
  -7   4   1   62.29    3.40
  -7   4   1   64.79    3.10
   7   4  -1   64.79    6.10
   7   4  -1   62.19    5.70
   7   4  -1   70.49    4.00
   7   4  -1   63.39    4.00
   6  -4  -1  331.07   13.20
  -6  -4   1  353.56   12.90
   6  -4  -1  371.16   13.80
  -6  -4   1  343.57   12.60
  -6  -4   1  363.06   13.50
  -6  -4   1  346.87   14.30
  -6  -4   1  344.57   12.60
   6  -4  -1  361.16   12.70
   6   4  -1  371.06   13.10
   6   4  -1  333.77   12.70
   6   4  -1  355.46   12.70
   6   4  -1  330.97   14.00
   6   4  -1  341.77   11.90
  -6   4   1  345.37   11.80
  -6   4   1  341.77   12.00
   5  -4  -1   82.39    4.60
   5  -4  -1   75.29    5.00
   5  -4  -1   76.39    5.50
  -5  -4   1   76.99    6.30
  -5  -4   1   85.69    5.40
   5  -4  -1   73.29    4.20
  -5  -4   1   82.39    4.10
  -5  -4   1   80.59    4.50
  -5  -4   1   79.49    5.00
  -5  -4   1   77.79    4.00
  -5   4   1   74.89    3.70
   5   4  -1   82.09    4.30
  -5   4   1   78.29    3.20
   5   4  -1   75.09    3.70
   5   4  -1   76.69    4.20
   5   4  -1   78.89    4.50
  -4  -4   1  382.16   13.90
  -4  -4   1  403.86   14.40
  -4  -4   1  375.36   14.40
  -4  -4   1  390.96   14.80
   4  -4  -1  362.86   14.50
   4  -4  -1  389.96   14.90
  -4  -4   1  400.06   13.70
   4  -4  -1  398.56   14.20
   4  -4  -1  394.26   13.80
  -4  -4   1  394.66   13.70
   4  -4  -1  410.16   13.80
   4   4  -1  392.96   15.20
  -4   4   1  406.56   13.00
   4   4  -1  387.66   13.90
   4   4  -1  405.36   13.70
   4   4  -1  402.76   13.90
   4   4  -1  395.86   13.80
   4   4  -1  384.16   13.30
  -3  -4   1  904.41   29.80
  -3  -4   1  874.61   29.40
   3  -4  -1  926.31   30.40
  -3  -4   1  866.31   30.10
  -3  -4   1  919.51   29.90
   3  -4  -1  866.31   29.60
   3  -4  -1  882.21   29.60
  -3  -4   1  895.21   29.40
  -3   4   1  870.01   29.00
   3   4  -1  907.21   29.10
   3   4  -1  944.61   30.40
   3   4  -1  865.81   29.60
   3   4  -1  919.21   30.40
   3   4  -1  880.11   29.30
  -3   4   1  904.31   28.80
   3   4  -1  889.81   29.60
  -3   4   1  915.71   29.00
  -2  -4   1  138.79    5.60
  -2  -4   1  126.19    6.00
  -2  -4   1  150.48    5.90
   2   4  -1  153.58    6.20
  -2   4   1  155.38    5.30
   2   4  -1  146.19    5.30
   2   4  -1  148.59    5.30
   2   4  -1  163.58    6.30
   2   4  -1  151.48    5.90
  -2   4   1  148.99    5.10
  -2   4   1  146.79    5.40
   2   4  -1  141.19    5.70
  -1  -4   1   41.50    2.50
   1   4  -1   43.80    2.60
   1   4  -1   52.39    2.70
  -1   4   1   45.00    2.20
  -1   4   1   42.40    2.20
   1   4  -1   46.90    2.70
  -1   4   1   43.30    1.90
   1   4  -1   38.50    2.60
   0  -4  -1 2210.78   73.29
   0  -4   1 2333.07   73.69
   0   4  -1 2354.66   74.09
   0   4   1 2259.47   73.69
   0   4  -1 2262.07   73.39
   0   4   1 2384.86   73.79
   0   4  -1 2458.05   73.99
   0   4  -1 1943.01   74.99
   0   4   1 2446.56   73.99
   1  -4   1 1546.75   51.09
   1  -4   1 1552.94   50.79
  -1  -4  -1 1526.55   50.89
  -1   4  -1 1492.15   50.59
  -1   4  -1 1567.74   50.69
   1   4   1 1560.74   51.29
   1   4   1 1599.54   51.09
   1   4   1 1528.25   51.19
  -1   4  -1 1783.72   52.39
   1   4   1 1631.14   51.29
   1   4   1 1571.34   50.79
  -1   4  -1 1593.44   51.09
  -2  -4  -1  410.56   13.70
  -2  -4  -1  395.66   14.20
   2  -4   1  395.16   12.80
   2  -4   1  342.57   13.00
  -2   4  -1  400.46   13.00
   2   4   1  391.06   13.60
   2   4   1  394.26   13.20
  -2   4  -1  382.06   14.10
   2   4   1  414.06   13.20
  -2   4  -1  411.46   13.70
   2   4   1  387.36   13.60
  -2   4  -1  398.56   13.10
   2   4   1  402.36   14.00
  -3  -4  -1   81.49    5.30
   3  -4   1   75.09    4.20
   3  -4   1   74.59    4.00
  -3  -4  -1   75.19    4.90
  -3  -4  -1   80.49    4.00
  -3  -4  -1   75.59    3.80
  -3  -4  -1   85.69    5.40
   3  -4   1   77.09    4.50
   3  -4   1   68.49    6.10
   3   4   1   75.49    3.90
  -3   4  -1   69.99    4.90
   3   4   1   73.39    3.70
  -3   4  -1   81.29    3.10
   3   4   1   77.19    3.70
   3   4   1   81.59    5.10
   3   4   1   81.59    4.40
   3   4   1   91.99    6.30
  -3   4  -1   77.99    3.30
   3   4   1   80.19    3.30
   4  -4   1  664.83   22.80
  -4  -4  -1  683.83   23.40
   4  -4   1  674.93   23.20
  -4  -4  -1  644.34   22.70
   4  -4   1  698.93   23.30
  -4  -4  -1  679.53   22.90
   4  -4   1  663.53   23.70
  -4  -4  -1  689.63   22.80
   4  -4   1  715.93   22.90
  -4  -4  -1  702.23   23.60
   4  -4   1  694.43   22.60
  -4  -4  -1  687.23   23.60
   4   4   1  700.53   23.00
   4   4   1  689.53   22.50
  -4   4  -1  691.83   22.30
   4   4   1  678.83   22.80
   4   4   1  645.44   22.90
   4   4   1  691.33   23.30
  -4   4  -1  645.44   24.70
   4   4   1  653.73   22.80
   4   4   1  673.23   22.40
  -4   4  -1  681.83   22.40
   4   4   1  691.23   22.40
   5  -4   1  276.47   10.60
  -5  -4  -1  274.57   11.10
   5  -4   1  283.77   10.20
  -5  -4  -1  269.57   10.90
  -5  -4  -1  284.07   10.90
  -5  -4  -1  278.37   10.30
  -5  -4  -1  265.07   10.90
   5  -4   1  280.17   10.30
  -5  -4  -1  282.67   10.20
  -5  -4  -1  272.77   10.00
   5  -4   1  249.48   11.00
   5  -4   1  274.97   10.70
   5  -4   1  270.37    9.80
   5   4   1  277.67   10.20
  -5   4  -1  263.77   11.10
   5   4   1  273.57   10.30
   5   4   1  296.17   10.20
   5   4   1  285.37   10.80
   5   4   1  273.37   10.20
  -5   4  -1  284.27    9.70
   5   4   1  236.58    9.80
  -6  -4  -1   54.59    4.70
  -6  -4  -1   48.80    3.40
   6  -4   1   48.20    3.70
  -6  -4  -1   47.50    4.10
  -6  -4  -1   47.80    4.90
  -6  -4  -1   45.70    4.80
   6  -4   1   42.50    4.10
   6  -4   1   46.20    3.30
  -6  -4  -1   46.00    3.80
   6  -4   1   53.69    4.70
  -6  -4  -1   51.59    3.60
  -6   4  -1   46.10    2.50
  -6   4  -1   46.40    3.60
  -6   4  -1   51.79    2.90
   6   4   1   45.10    3.10
   6   4   1   43.50    3.50
   6   4   1   52.79    4.20
   6   4   1   47.40    3.60
   6   4   1   51.19    3.40
   7  -4   1  145.09    8.10
  -7  -4  -1  134.59    5.90
   7  -4   1  136.69    7.20
  -7  -4  -1  132.39    8.00
  -7  -4  -1  125.39    5.80
  -7  -4  -1  135.79    6.50
  -7  -4  -1  137.29    6.60
   7  -4   1  128.79    7.60
  -7  -4  -1  134.39    7.20
   7   4   1  126.69    6.10
   7   4   1  136.79    5.90
  -7   4  -1  129.99    5.30
  -7   4  -1  131.99    5.30
  -8  -4  -1  107.89    5.00
   8  -4   1  102.79    5.30
   8  -4   1  107.39    4.70
  -8  -4  -1  104.89    4.40
   8   4   1  107.69    4.70
  -8   4  -1  108.39    4.40
   8   4   1  111.69    5.80
  -8   4  -1  104.89    4.50
  -8   4  -1  105.89    4.50
   8   4   1   96.49    4.90
  -8   4  -1   99.09    4.70
  -9  -4  -1   13.30    1.70
  -9   4  -1   14.70    1.80
   9   4   1   15.60    1.70
   9  -5  -1   34.00    2.60
   9  -5  -1   35.20    2.90
  -9  -5   1   35.30    2.50
  -8  -5   1   44.10    3.10
   8  -5  -1   43.30    3.40
   8  -5  -1   41.10    2.70
  -8   5   1   40.30    2.60
   8   5  -1   32.10    3.60
   8   5  -1   40.00    4.50
  -8   5   1   31.20    2.70
   8   5  -1   42.90    2.80
   8   5  -1   43.40    2.80
  -7  -5   1  214.08    9.00
  -7  -5   1  207.18    8.20
  -7  -5   1  189.08   10.60
   7  -5  -1  234.28    9.70
  -7  -5   1  219.78    8.30
   7  -5  -1  213.08    8.70
   7   5  -1  216.88    8.30
   7   5  -1  222.18    8.40
   7   5  -1  211.18    8.60
   7   5  -1  223.88    9.90
  -7   5   1  211.08    7.70
  -7   5   1  215.08    7.80
  -6  -5   1  110.19    5.40
   6  -5  -1  111.39    5.30
  -6  -5   1  120.99    6.20
  -6  -5   1  111.89    6.70
  -6  -5   1  106.59    5.60
   6  -5  -1  107.89    5.40
  -6  -5   1  109.79    5.20
  -6  -5   1  122.39    7.30
   6  -5  -1  106.69    6.30
   6   5  -1  115.69    7.70
  -6   5   1  108.79    4.40
  -6   5   1  114.49    4.70
   6   5  -1  114.59    5.60
   6   5  -1  106.79    5.30
   6   5  -1  110.39    4.80
   6   5  -1  113.09    5.50
  -5  -5   1   79.29    5.60
   5  -5  -1   80.69    4.30
  -5  -5   1   76.79    4.50
  -5  -5   1   76.29    4.50
   5  -5  -1   77.69    5.30
  -5  -5   1   79.09    4.20
  -5  -5   1   73.39    5.60
   5  -5  -1   76.49    4.30
  -5  -5   1   78.59    5.30
   5   5  -1   83.69    4.50
  -5   5   1   80.09    3.70
   5   5  -1   91.29    7.50
   5   5  -1   84.39    4.30
   5   5  -1   69.49    4.70
  -5   5   1   78.89    3.30
   5   5  -1   82.09    4.10
   5   5  -1   78.29    4.70
  -4  -5   1  134.89    6.50
  -4  -5   1  122.79    6.10
   4  -5  -1  108.09    6.30
   4  -5  -1  122.09    6.00
  -4  -5   1  131.99    6.40
  -4  -5   1  122.69    5.50
  -4  -5   1  121.79    6.10
  -4  -5   1  117.99    5.30
   4  -5  -1  130.09    5.50
   4   5  -1  120.19    5.00
   4   5  -1  129.59    5.50
   4   5  -1  118.89    5.40
  -4   5   1  112.19    5.10
   4   5  -1  120.69    6.00
  -4   5   1  122.39    4.50
   4   5  -1  127.39    5.60
  -3  -5   1  149.69    6.00
   3  -5  -1  161.48    7.10
  -3  -5   1  152.38    6.90
   3  -5  -1  144.79    6.00
  -3  -5   1  142.29    6.20
   3  -5  -1  141.29    6.20
  -3  -5   1  151.08    7.00
   3  -5  -1  151.98    6.90
   3  -5  -1  139.49    6.90
  -3  -5   1  150.88    6.10
   3  -5  -1  149.79    6.30
  -3  -5   1  153.28    6.60
  -3  -5   1  142.89    7.70
   3   5  -1  145.59    5.50
   3   5  -1  142.49    8.50
  -3   5   1  145.49    5.20
   3   5  -1  142.89    6.10
   3   5  -1  147.59    5.80
   3   5  -1  150.88    5.50
   3   5  -1  143.09    6.10
   3   5  -1  146.49    7.40
  -2  -5   1   15.40    2.60
   2  -5  -1   14.10    2.10
   2  -5  -1   15.20    2.40
  -2  -5   1   13.60    2.90
  -2  -5   1   11.80    2.00
  -2  -5   1   15.20    1.90
   2  -5  -1   12.10    2.40
   2  -5  -1   14.00    2.40
  -2  -5   1   14.10    2.30
   2   5  -1   11.10    2.00
   2   5  -1   18.70    3.70
   2   5  -1   12.20    1.40
   2   5  -1   13.30    2.10
  -2   5   1   11.80    2.00
  -2   5   1   12.40    1.60
   2   5  -1   13.00    1.30
  -2   5   1   13.10    2.00
   2   5  -1   12.40    1.60
  -2   5   1   12.80    1.10
  -1  -5   1  224.08    8.70
   1  -5  -1  216.58    8.80
  -1  -5   1  239.18    8.50
   1  -5  -1  231.68    8.60
   1  -5  -1  227.68    9.20
   1  -5  -1  210.08    8.70
  -1  -5   1  219.68    8.70
  -1  -5   1  225.18    9.30
   1   5  -1  221.08    9.00
   1   5  -1  230.78    8.40
   1   5  -1  219.88    8.30
   1   5  -1  221.18    7.90
  -1   5   1  235.58    8.10
   1   5  -1  232.88    7.90
   1   5  -1  234.28    8.70
  -1   5   1  233.18    8.40
  -1   5   1  230.98    7.80
  -1   5   1  220.98    8.40
   1   5  -1  255.47    9.40
   0  -5  -1  202.48    8.50
   0  -5   1  221.28    8.80
   0  -5   1  240.28    8.10
   0  -5   1  218.48    9.00
   0  -5  -1  198.18    8.60
   0  -5   1  211.08    8.50
   0   5  -1  226.68    7.80
   0   5   1  222.68    8.50
   0   5   1  203.38    8.10
   0   5  -1  228.48    8.70
   0   5  -1  215.88    8.30
   0   5  -1  241.88    8.70
   0   5   1  228.28    7.70
   0   5   1  224.88    8.50
   0   5   1  232.68    7.90
   0   5  -1  231.58    7.70
   0   5  -1  241.58    8.80
   1  -5   1  263.77   10.30
   1  -5   1  267.27   10.00
  -1  -5  -1  257.37   10.50
  -1  -5  -1  285.67    9.60
   1  -5   1  269.67   10.00
  -1  -5  -1  260.97   10.20
   1  -5   1  293.37   11.40
   1  -5   1  287.67    9.40
  -1  -5  -1  271.87   10.10
  -1  -5  -1  263.27   10.70
   1  -5   1  265.27   10.40
   1   5   1  281.27   10.20
  -1   5  -1  281.27   10.30
   1   5   1  270.37    9.80
  -1   5  -1  288.27   10.70
  -1   5  -1  287.57    9.40
  -1   5  -1  276.77    9.40
   1   5   1  271.27   10.40
   1   5   1  277.87    9.60
   1   5   1  282.17    9.50
   1   5   1  275.17   10.50
  -1   5  -1  273.67   10.30
   2  -5   1   77.69    3.90
  -2  -5  -1   72.59    4.70
   2  -5   1   78.49    4.40
   2  -5   1   77.19    4.60
  -2  -5  -1   74.79    4.50
   2  -5   1   68.39    4.30
  -2  -5  -1   81.89    3.80
   2  -5   1   89.89    5.10
  -2  -5  -1   74.59    4.90
   2  -5   1   74.99    3.90
  -2  -5  -1   76.39    4.20
   2   5   1   82.69    3.40
  -2   5  -1   75.59    6.10
   2   5   1   82.89    3.30
   2   5   1   76.39    4.00
   2   5   1   76.49    3.80
   2   5   1   73.29    4.00
   2   5   1   77.49    5.20
   2   5   1   71.79    5.50
  -3  -5  -1  215.78    8.80
  -3  -5  -1  222.18    8.80
   3  -5   1  231.18    8.30
  -3  -5  -1  220.58    9.30
  -3  -5  -1  224.78    9.20
  -3  -5  -1  218.98    8.60
   3  -5   1  209.48    9.70
  -3  -5  -1  229.18    8.70
   3  -5   1  222.18    8.60
   3  -5   1  220.78    8.90
   3  -5   1  217.08    8.40
   3   5   1  223.18    8.20
  -3   5  -1  225.58    7.80
   3   5   1  233.38    8.50
   3   5   1  229.38    8.00
   3   5   1  231.68    8.50
   3   5   1  223.28    8.00
  -3   5  -1  235.88    7.90
   3   5   1  207.18    8.90
  -3   5  -1  212.38    8.90
   4  -5   1   92.89    5.10
   4  -5   1   89.59    4.50
   4  -5   1   86.99    4.50
   4  -5   1   96.79    5.60
  -4  -5  -1   85.99    4.90
  -4  -5  -1   80.09    5.20
   4  -5   1   94.39    5.60
  -4  -5  -1   87.29    5.20
  -4  -5  -1   86.99    5.10
   4  -5   1   87.89    4.60
   4   5   1   88.99    4.50
   4   5   1   88.69    4.10
   4   5   1   88.29    5.60
  -4   5  -1   89.39    3.80
   4   5   1   86.39    4.40
   4   5   1   88.49    3.90
   4   5   1   92.89    4.70
  -4   5  -1   79.39    4.90
  -4   5  -1   91.19    3.60
   4   5   1   84.09    4.00
   5  -5   1  165.58    7.20
   5  -5   1  174.38    7.20
   5  -5   1  172.38    6.80
  -5  -5  -1  182.18    7.30
  -5  -5  -1  170.78    8.00
  -5  -5  -1  178.78    8.10
   5  -5   1  171.58    7.70
   5  -5   1  189.98    8.40
  -5  -5  -1  177.88    8.00
   5  -5   1  169.98    7.90
  -5  -5  -1  180.88    7.90
  -5   5  -1  173.28    7.20
   5   5   1  186.38    7.40
   5   5   1  174.58    6.60
  -5   5  -1  183.88    6.50
  -5   5  -1  170.48    6.60
   5   5   1  176.28    7.40
   5   5   1  168.18    7.30
   5   5   1  171.88    7.20
  -6  -5  -1  135.59    6.80
   6  -5   1  151.08    6.30
  -6  -5  -1  141.29    6.90
  -6  -5  -1  139.69    6.90
   6  -5   1  131.29    7.00
  -6  -5  -1  139.69    6.00
   6  -5   1  134.59    6.80
   6   5   1  140.29    6.30
  -6   5  -1  144.79    5.50
   6   5   1  138.89    6.00
  -6   5  -1  142.09    6.00
   6   5   1  141.29    6.20
  -6   5  -1  144.49    5.60
  -7  -5  -1  112.99    5.80
  -7  -5  -1  101.79    4.60
   7  -5   1   99.69    5.50
  -7  -5  -1  101.59    6.90
   7  -5   1  108.89    4.90
  -7  -5  -1  107.99    5.30
   7  -5   1   93.79    5.40
  -7  -5  -1  104.69    6.30
   7   5   1  106.39    5.20
   7   5   1  109.29    4.80
  -7   5  -1   99.69    4.70
  -7   5  -1  100.09    4.30
   7   5   1  106.19    4.70
  -7   5  -1  103.39    5.00
   8  -5   1   20.70    2.40
  -8  -5  -1   16.10    2.20
   8  -5   1   22.50    2.90
   8   5   1   20.40    3.00
   8   5   1   26.40    5.20
  -8   5  -1   16.60    2.70
  -8   5  -1   21.40    2.10
   8   5   1   22.20    2.20
   8   5   1   17.20    2.70
  -8   5  -1   20.00    1.90
   8  -6  -1    5.50    1.50
   8  -6  -1    5.40    1.20
  -8  -6   1    8.50    1.50
  -8  -6   1    9.90    2.30
   8   6  -1    8.40    2.10
   8   6  -1   10.60    2.20
  -8   6   1    2.10    2.20
  -7  -6   1  216.68    8.90
   7  -6  -1  216.28    8.70
  -7  -6   1  219.08    8.50
   7  -6  -1  213.78    8.00
   7   6  -1  212.28    8.00
   7   6  -1  201.48    8.30
  -7   6   1  210.28    7.60
  -7   6   1  201.68    7.50
   7   6  -1  203.88    8.00
   6  -6  -1    5.80    1.70
   6  -6  -1    2.50    2.80
   6  -6  -1    6.80    2.30
  -6  -6   1    7.50    2.90
  -6  -6   1    4.00    2.40
   6   6  -1    4.00    1.60
  -6   6   1    7.80    1.30
   6   6  -1    9.90    3.00
   6   6  -1    5.00    1.60
  -6   6   1    4.00    1.00
   6   6  -1    6.90    1.80
   5  -6  -1  610.54   20.50
  -5  -6   1  561.94   21.00
   5  -6  -1  599.54   20.60
   5  -6  -1  647.64   21.80
  -5  -6   1  613.94   21.50
  -5  -6   1  592.44   21.60
   5   6  -1  575.64   20.40
  -5   6   1  574.24   19.80
  -5   6   1  582.64   20.20
   5   6  -1  633.84   20.80
   5   6  -1  670.73   23.60
   5   6  -1  586.54   20.60
   5   6  -1  571.54   20.60
   4  -6  -1  206.28    8.00
  -4  -6   1  201.68    8.80
   4  -6  -1  198.78    7.90
  -4  -6   1  210.28    9.00
  -4  -6   1  185.78    9.10
   4  -6  -1  201.28    9.00
   4  -6  -1  201.28    8.50
  -4  -6   1  192.48    8.50
   4   6  -1  200.68    7.40
   4   6  -1  202.28    8.00
  -4   6   1  214.68    7.20
   4   6  -1  200.38    8.20
  -4   6   1  208.88    7.40
   4   6  -1  198.78    8.60
   4   6  -1  190.08    8.20
   3  -6  -1   34.50    3.20
  -3  -6   1   32.40    4.30
   3  -6  -1   30.20    3.90
  -3  -6   1   35.10    3.30
   3  -6  -1   35.70    2.90
   3  -6  -1   43.50    4.20
  -3  -6   1   33.50    3.90
   3  -6  -1   41.50    4.20
  -3  -6   1   26.60    3.30
   3   6  -1   32.20    2.40
  -3   6   1   35.10    2.50
   3   6  -1   36.00    2.60
   3   6  -1   31.30    2.90
   3   6  -1   36.00    3.10
  -3   6   1   34.60    1.90
   3   6  -1   33.00    2.30
   3   6  -1   31.70    2.90
  -2  -6   1  182.58    8.30
  -2  -6   1  183.48    7.60
   2  -6  -1  186.58    7.80
   2  -6  -1  184.18    7.60
   2  -6  -1  187.68    7.70
   2  -6  -1  197.58    8.50
  -2  -6   1  189.68    8.20
   2  -6  -1  195.08    7.50
  -2  -6   1  189.08    8.10
  -2  -6   1  191.78    7.80
   2  -6  -1  179.78    7.10
  -2  -6   1  188.08    7.60
   2   6  -1  181.98    6.80
  -2   6   1  191.18    6.90
   2   6  -1  181.68    7.40
   2   6  -1  198.28    8.00
  -2   6   1  190.58    6.70
   2   6  -1  190.08    7.10
   2   6  -1  184.18    6.90
   2   6  -1  189.08    7.50
   1  -6  -1  135.99    6.20
   1  -6  -1  138.89    6.20
   1  -6  -1  142.09    5.80
  -1  -6   1  142.29    6.50
  -1  -6   1  132.29    6.30
  -1  -6   1  143.79    5.80
  -1  -6   1  137.79    6.50
   1  -6  -1  134.79    5.90
  -1  -6   1  137.89    6.80
  -1  -6   1  139.39    6.10
   1  -6  -1  123.59    7.50
  -1  -6   1  130.79    6.00
  -1   6   1  145.09    5.40
   1   6  -1  149.88    5.90
   1   6  -1  138.39    5.70
  -1   6   1  148.69    5.20
   1   6  -1  143.39    5.30
   1   6  -1  145.49    5.40
   1   6  -1  135.29    6.30
   1   6  -1  136.99    6.10
   0  -6   1  158.78    7.00
   0  -6   1  158.28    7.20
   0  -6   1  159.78    6.60
   0  -6  -1  156.38    7.50
   0  -6  -1  152.58    6.60
   0  -6  -1  153.08    6.40
   0  -6  -1  148.99    6.50
   0  -6  -1  168.18    6.90
   0  -6   1  156.78    6.60
   0  -6   1  157.88    6.70
   0  -6  -1  162.88    7.00
   0   6   1  161.18    6.00
   0   6   1  153.68    6.30
   0   6  -1  162.78    5.90
   0   6  -1  161.18    7.20
   0   6   1  142.99    6.90
   0   6   1  168.48    5.90
   0   6  -1  166.98    5.90
   0   6  -1  163.08    6.50
  -1  -6  -1  559.54   18.80
  -1  -6  -1  519.25   18.20
  -1  -6  -1  531.95   18.10
   1  -6   1  551.24   18.60
  -1  -6  -1  540.75   18.90
   1  -6   1  534.35   18.10
   1  -6   1  541.45   18.50
  -1  -6  -1  505.75   18.20
   1  -6   1  555.34   18.30
   1  -6   1  551.34   18.70
  -1  -6  -1  528.25   18.40
   1   6   1  541.85   17.90
  -1   6  -1  524.05   18.10
  -1   6  -1  540.55   17.70
   1   6   1  530.65   18.10
  -1   6  -1  538.85   17.80
   1   6   1  495.25   18.10
   1   6   1  562.84   19.00
   1   6   1  519.55   17.70
   1   6   1  464.05   18.00
  -1   6  -1  549.15   19.30
   2  -6   1  268.67   10.30
   2  -6   1  271.27   10.20
  -2  -6  -1  265.37   10.60
  -2  -6  -1  280.87   10.60
   2  -6   1  253.17   10.00
   2  -6   1  255.27    9.60
  -2  -6  -1  254.27   10.00
   2  -6   1  266.47    9.90
  -2  -6  -1  273.67    9.80
   2  -6   1  259.67   10.20
  -2  -6  -1  261.27   10.00
  -2   6  -1  268.07    9.30
   2   6   1  261.17    9.90
   2   6   1  271.57    9.70
   2   6   1  274.87    9.40
   2   6   1  277.07    9.50
   2   6   1  255.97    9.80
  -3  -6  -1  428.76   15.20
  -3  -6  -1  408.46   15.70
  -3  -6  -1  434.46   15.60
  -3  -6  -1  434.96   15.10
  -3  -6  -1  428.16   15.30
   3  -6   1  425.06   15.40
   3  -6   1  412.96   14.50
   3  -6   1  428.26   15.00
   3  -6   1  413.96   14.80
   3   6   1  437.26   14.90
  -3   6  -1  422.46   14.30
   3   6   1  413.66   14.40
   3   6   1  400.86   15.20
   3   6   1  423.66   14.60
   3   6   1  438.86   15.10
   3   6   1  425.86   14.40
  -3   6  -1  413.06   14.20
  -4  -6  -1  121.29    6.00
   4  -6   1  119.39    5.60
  -4  -6  -1  121.79    6.50
   4  -6   1  128.59    6.80
  -4  -6  -1  124.89    6.50
  -4  -6  -1  126.09    6.10
   4  -6   1  121.19    5.20
   4  -6   1  123.89    5.60
   4  -6   1  126.99    6.20
   4   6   1  124.99    5.60
   4   6   1  119.29    5.20
   4   6   1  119.79    5.70
   4   6   1  117.29    4.90
   4   6   1  116.09    6.00
  -4   6  -1  123.79    4.90
   4   6   1  117.79    5.10
  -4   6  -1  123.39    4.80
  -4   6  -1  115.59    5.60
   4   6   1  128.59    6.20
   5  -6   1   82.89    4.10
   5  -6   1   88.99    5.60
   5  -6   1   81.69    4.50
  -5  -6  -1   84.69    5.10
  -5  -6  -1   89.89    5.30
   5  -6   1   88.89    5.10
   5  -6   1   90.99    4.60
  -5  -6  -1   90.19    5.40
  -5  -6  -1   81.49    5.40
   5   6   1   87.49    4.90
   5   6   1   84.89    3.90
  -5   6  -1   90.19    3.70
   5   6   1   79.69    4.40
  -5   6  -1   82.29    3.80
   5   6   1   83.19    4.70
  -5   6  -1   85.49    4.50
   5   6   1   86.79    4.80
  -6  -6  -1   10.10    2.60
   6  -6   1   19.40    2.80
  -6  -6  -1   14.40    2.90
  -6  -6  -1   21.90    2.70
  -6   6  -1   17.30    1.80
   6   6   1   20.50    2.90
   6   6   1   18.80    3.00
  -6   6  -1   15.20    1.70
   6   6   1   15.10    2.60
  -6   6  -1   17.70    2.50
  -7  -6  -1   42.10    3.20
   7  -6   1   35.00    2.80
  -7  -6  -1   40.90    3.40
   7  -6   1   41.60    3.30
  -7   6  -1   35.00    2.70
   7   6   1   41.90    3.20
  -7   6  -1   39.30    2.30
  -7   6  -1   39.30    2.50
   7   6   1   43.80    2.90
   7   6   1   38.00    2.50
  -8  -6  -1    9.50    1.90
   8  -6   1    6.70    1.60
   8  -6   1    6.40    1.80
  -8   6  -1    7.20    1.40
   8   6   1    7.60    1.40
  -8   6  -1   10.80    1.60
  -8   6  -1    7.40    1.20
  -8  -7   1   26.00    2.10
   8  -7  -1   25.60    2.20
   8  -7  -1   23.70    2.50
   8   7  -1   21.10    2.30
   7  -7  -1    6.00    1.60
   7  -7  -1    6.20    1.30
  -7  -7   1    6.30    2.50
  -7  -7   1    5.90    2.30
  -7  -7   1    5.20    1.40
   7   7  -1    5.40    1.10
   7   7  -1    7.80    1.70
   6  -7  -1   45.10    3.00
  -6  -7   1   40.70    3.80
  -6  -7   1   43.50    3.70
   6  -7  -1   46.30    3.80
  -6  -7   1   45.60    3.50
   6  -7  -1   42.10    2.90
  -6  -7   1   46.30    5.70
   6   7  -1   46.40    3.30
  -6   7   1   40.50    2.60
   6   7  -1   41.50    2.90
  -6   7   1   41.70    2.40
   5  -7  -1   15.40    2.50
  -5  -7   1   22.60    3.50
  -5  -7   1   22.10    4.10
   5  -7  -1   19.70    2.70
  -5  -7   1   15.70    2.80
   5  -7  -1   19.40    3.80
   5   7  -1   16.40    2.30
   5   7  -1   14.60    2.50
  -5   7   1   21.60    2.10
  -5   7   1   20.70    1.70
   5   7  -1   16.80    2.70
   5   7  -1   21.40    2.90
  -4  -7   1   82.69    5.60
  -4  -7   1   89.59    5.50
  -4  -7   1   82.99    5.00
   4  -7  -1   85.69    4.40
   4  -7  -1   83.19    5.50
  -4  -7   1   70.19    5.70
  -4  -7   1   81.79    5.20
   4  -7  -1   77.69    5.10
   4  -7  -1   85.69    4.60
   4   7  -1   86.79    3.80
  -4   7   1   85.29    3.60
   4   7  -1   85.19    4.90
   4   7  -1   80.99    4.40
   4   7  -1   84.59    4.30
   3  -7  -1   55.99    4.60
  -3  -7   1   55.39    4.60
  -3  -7   1   55.79    4.20
   3  -7  -1   58.09    4.80
  -3  -7   1   56.09    4.10
   3  -7  -1   55.29    3.60
  -3  -7   1   51.49    4.70
  -3  -7   1   56.19    4.90
   3  -7  -1   59.89    4.00
   3  -7  -1   57.19    4.30
   3   7  -1   55.99    3.00
   3   7  -1   56.69    4.40
   3   7  -1   58.59    3.30
   3   7  -1   58.09    3.80
   3   7  -1   53.89    3.20
  -3   7   1   56.89    2.70
  -3   7   1   57.39    3.10
   3   7  -1   58.69    3.70
  -2  -7   1   13.80    2.80
   2  -7  -1   10.30    3.10
   2  -7  -1    6.60    2.00
   2  -7  -1   11.00    2.20
  -2  -7   1    5.80    1.70
  -2  -7   1    7.60    1.80
   2  -7  -1   10.10    1.90
  -2  -7   1    7.20    2.50
   2  -7  -1   11.50    1.70
   2  -7  -1   10.30    2.20
   2   7  -1    8.00    1.80
  -2   7   1   11.50    1.40
   2   7  -1    9.40    1.40
   2   7  -1    6.70    1.40
  -2   7   1   11.00    1.40
   2   7  -1    8.60    1.30
   2   7  -1    8.50    2.30
   2   7  -1    9.60    1.80
   1  -7  -1  354.16   13.30
   1  -7  -1  355.96   13.20
   1  -7  -1  351.16   12.90
  -1  -7   1  354.86   13.10
  -1  -7   1  377.26   13.80
   1  -7  -1  348.17   13.30
  -1  -7   1  376.56   13.30
  -1  -7   1  367.26   12.80
   1  -7  -1  367.46   12.70
  -1  -7   1  354.96   13.50
   1   7  -1  358.26   13.80
   1   7  -1  379.36   12.50
   1   7  -1  348.77   12.40
  -1   7   1  366.76   12.40
   1   7  -1  357.46   13.00
   1   7  -1  344.97   13.40
   1   7  -1  371.96   12.70
  -1   7   1  359.26   12.40
   0  -7  -1  187.18    7.80
   0  -7   1  188.08    7.90
   0  -7   1  195.88    7.70
   0  -7   1  194.28    7.70
   0  -7   1  194.38    8.30
   0  -7  -1  189.88    7.50
   0  -7  -1  189.18    7.60
   0  -7  -1  198.68    8.10
   0  -7   1  189.78    8.20
   0  -7  -1  194.38    8.30
   0   7  -1  193.68    7.10
   0   7   1  191.88    7.20
   0   7  -1  192.48    7.50
   0   7  -1  185.48    7.00
   0   7  -1  184.38    8.90
   0   7   1  198.18    7.10
   0   7   1  182.58    7.70
   0   7   1  193.18    7.90
  -1  -7  -1  142.19    6.70
   1  -7   1  140.69    6.20
  -1  -7  -1  142.99    6.30
  -1  -7  -1  146.79    6.30
   1  -7   1  149.49    6.20
  -1  -7  -1  143.99    6.40
   1  -7   1  150.28    6.80
   1  -7   1  141.59    6.40
   1  -7   1  145.89    6.70
   1  -7   1  147.79    6.70
  -1  -7  -1  142.39    7.00
   1   7   1  136.89    6.10
  -1   7  -1  151.68    5.70
   1   7   1  143.19    5.70
  -1   7  -1  145.59    6.00
   1   7   1  145.49    6.20
   1   7   1  144.69    6.20
   1   7   1  136.59    7.60
  -2  -7  -1  209.88    8.90
  -2  -7  -1  212.08    7.70
   2  -7   1  214.38    8.60
   2  -7   1  207.78    8.40
  -2  -7  -1  200.18    8.40
   2  -7   1  201.78    8.70
  -2  -7  -1  206.28    8.50
  -2  -7  -1  220.68    9.30
   2  -7   1  216.68    8.10
   2  -7   1  214.68    8.30
   2  -7   1  204.58    8.50
   2   7   1  212.88    8.10
  -2   7  -1  211.58    8.30
   2   7   1  209.28    7.80
  -2   7  -1  214.18    7.60
   2   7   1  194.38    9.10
   2   7   1  216.98    7.80
   2   7   1  215.88    8.40
  -2   7  -1  222.48    7.80
   2   7   1  212.08    8.20
  -2   7  -1  211.38    8.10
  -3  -7  -1    6.60    1.80
  -3  -7  -1    9.80    2.00
   3  -7   1    8.60    2.00
  -3  -7  -1    7.80    2.40
   3  -7   1    7.70    1.60
   3  -7   1   12.40    2.50
  -3  -7  -1   10.60    2.80
   3  -7   1   10.90    1.90
  -3  -7  -1    8.50    1.80
   3   7   1    9.50    2.40
   3   7   1   10.10    1.90
   3   7   1    8.00    1.30
  -3   7  -1    9.80    1.40
   3   7   1    8.50    1.50
  -3   7  -1    7.00    1.70
   3   7   1   10.10    1.50
   3   7   1    7.90    1.50
   4  -7   1  325.57   12.50
   4  -7   1  334.37   13.00
  -4  -7  -1  345.17   12.90
   4  -7   1  348.47   12.10
  -4  -7  -1  357.96   13.00
  -4  -7  -1  345.17   13.20
  -4  -7  -1  356.46   13.60
   4  -7   1  363.16   12.70
   4  -7   1  343.77   13.70
  -4   7  -1  348.77   12.00
  -4   7  -1  334.07   12.40
   4   7   1  343.47   12.10
   4   7   1  353.56   12.60
   4   7   1  353.46   12.20
   4   7   1  357.56   13.20
   4   7   1  372.06   13.00
  -4   7  -1  350.76   12.10
   5  -7   1  222.18    9.60
  -5  -7  -1  205.58    8.70
   5  -7   1  211.28    9.20
   5  -7   1  205.68    8.50
  -5  -7  -1  215.28    8.90
  -5  -7  -1  201.58    8.50
   5  -7   1  199.58    8.60
  -5  -7  -1  189.98    8.60
  -5   7  -1  202.58    7.50
  -5   7  -1  210.08    7.50
  -5   7  -1  193.38    7.80
   5   7   1  203.28    8.50
   5   7   1  208.78    8.00
   5   7   1  211.18    8.40
   6  -7   1   86.09    4.10
  -6  -7  -1   91.19    5.00
  -6  -7  -1   84.79    4.40
  -6  -7  -1   78.59    4.50
   6  -7   1   86.59    4.90
  -6   7  -1   80.09    3.70
  -6   7  -1   87.69    3.90
   6   7   1   87.29    4.00
  -6   7  -1   82.29    3.60
   6   7   1   80.59    4.30
  -7  -7  -1   17.30    2.10
   7  -7   1   18.30    2.90
   7  -7   1   18.90    2.40
  -7  -7  -1   18.70    2.10
   7   7   1   17.80    1.90
   7   7   1   24.10    2.60
  -7   7  -1   18.80    1.80
   7  -8  -1    4.50    1.30
   7  -8  -1    5.70    1.20
  -7  -8   1    7.30    1.40
   7   8  -1    4.90    0.90
   6  -8  -1   32.70    2.50
  -6  -8   1   30.90    2.50
  -6  -8   1   33.90    3.10
   6  -8  -1   30.50    2.90
   6  -8  -1   31.30    2.30
  -6   8   1   26.90    3.20
   6   8  -1   24.70    2.20
  -6   8   1   26.70    2.20
   6   8  -1   24.80    3.80
  -5  -8   1   31.70    5.20
  -5  -8   1   26.30    3.10
   5  -8  -1   29.80    2.60
  -5  -8   1   35.80    3.10
   5  -8  -1   35.80    3.50
   5  -8  -1   27.60    2.50
  -5  -8   1   25.40    3.90
  -5   8   1   31.00    2.10
  -5   8   1   31.10    3.30
   5   8  -1   25.70    2.80
   5   8  -1   26.70    3.80
   5   8  -1   28.30    2.70
  -5   8   1   30.50    2.20
   5   8  -1   24.70    2.40
  -4  -8   1   12.00    2.20
   4  -8  -1   10.30    1.90
   4  -8  -1    8.00    2.40
   4  -8  -1   13.50    2.30
  -4  -8   1    7.20    2.10
  -4  -8   1   13.30    3.10
  -4  -8   1   10.80    2.40
   4   8  -1    6.40    1.70
   4   8  -1    7.30    1.80
  -4   8   1   11.30    1.60
   4   8  -1   11.20    2.40
  -4   8   1   13.60    2.10
   4   8  -1   10.90    1.60
  -4   8   1   11.70    1.80
   4   8  -1   11.80    2.20
   3  -8  -1  303.07   11.00
   3  -8  -1  288.07   11.90
  -3  -8   1  298.87   11.30
  -3  -8   1  279.97   11.60
   3  -8  -1  287.37   11.10
  -3  -8   1  292.47   11.70
   3  -8  -1  296.57   11.10
   3   8  -1  297.47   10.90
  -3   8   1  295.87   10.80
   3   8  -1  285.17   10.20
   3   8  -1  294.87   10.90
   3   8  -1  288.07   10.30
  -3   8   1  300.97   10.30
  -3   8   1  296.67   10.20
   3   8  -1  290.17   11.20
  -2  -8   1 1010.10   33.40
   2  -8  -1 1067.69   34.20
  -2  -8   1  995.70   34.40
  -2  -8   1 1056.19   34.60
   2  -8  -1 1002.60   33.80
   2  -8  -1 1046.30   34.90
   2  -8  -1 1039.20   34.10
   2  -8  -1  995.20   33.10
  -2  -8   1 1038.30   34.10
  -2   8   1 1017.50   33.60
   2   8  -1 1021.20   33.70
   2   8  -1  931.21   34.60
   2   8  -1 1014.00   33.50
  -2   8   1 1008.80   33.20
  -1  -8   1  543.75   19.20
   1  -8  -1  537.45   18.90
   1  -8  -1  531.35   18.70
   1  -8  -1  540.25   18.50
   1  -8  -1  537.55   18.90
  -1  -8   1  509.45   18.60
   1  -8  -1  528.95   18.10
  -1  -8   1  543.45   19.10
  -1  -8   1  518.85   18.30
   1   8  -1  517.25   19.80
   1   8  -1  544.55   18.00
  -1   8   1  537.75   17.90
   1   8  -1  534.85   18.20
  -1   8   1  534.05   18.30
   1   8  -1  542.85   19.50
   1   8  -1  540.95   18.10
  -1   8   1  527.75   18.00
   0  -8   1   11.50    2.50
   0  -8  -1   15.40    2.60
   0  -8   1   10.40    2.60
   0  -8  -1    8.40    1.90
   0  -8  -1    8.20    1.80
   0  -8   1    6.40    1.70
   0  -8   1    7.90    1.60
   0   8  -1    8.20    3.70
   0   8  -1    8.90    1.50
   0   8   1    8.90    1.30
   0   8   1    9.40    1.70
   0   8  -1   10.90    1.70
   1  -8   1  161.68    6.70
   1  -8   1  162.98    7.30
  -1  -8  -1  160.18    6.80
  -1  -8  -1  161.08    7.50
  -1  -8  -1  159.58    7.00
   1  -8   1  152.28    7.30
   1  -8   1  157.78    7.10
   1  -8   1  161.48    6.80
  -1  -8  -1  162.78    6.80
  -1   8  -1  163.78    6.20
   1   8   1  160.38    6.90
   1   8   1  154.08    6.70
  -1   8  -1  166.28    6.30
  -1   8  -1  164.88    6.60
   1   8   1  163.88    6.60
   1   8   1  161.68    6.20
  -1   8  -1  157.48    6.70
   1   8   1  161.88    6.30
   2  -8   1   90.19    4.90
   2  -8   1   92.09    5.00
   2  -8   1   98.09    4.90
  -2  -8  -1  101.99    5.40
  -2  -8  -1   96.59    4.90
   2  -8   1   95.39    5.40
  -2  -8  -1   94.49    5.00
   2  -8   1   94.29    4.50
  -2  -8  -1   96.99    5.60
  -2   8  -1   94.09    4.60
   2   8   1   93.69    4.20
   2   8   1   90.99    6.90
   2   8   1   99.89    4.30
   2   8   1   92.29    4.90
   2   8   1  100.49    4.60
  -2   8  -1   95.49    5.00
  -2   8  -1   94.89    4.20
  -2   8  -1   96.09    4.10
   2   8   1   93.49    4.70
  -3  -8  -1  142.99    6.40
   3  -8   1  136.79    6.00
   3  -8   1  130.39    7.10
  -3  -8  -1  139.49    6.80
   3  -8   1  140.89    6.60
   3  -8   1  142.09    5.60
  -3  -8  -1  140.29    6.30
   3  -8   1  138.39    6.00
   3   8   1  138.09    5.40
   3   8   1  126.39    5.80
   3   8   1  128.39    5.60
  -3   8  -1  136.89    5.40
   3   8   1  131.99    6.10
  -3   8  -1  134.69    5.80
   3   8   1  136.89    7.50
   3   8   1  138.59    5.60
   4  -8   1   74.19    4.50
  -4  -8  -1   76.19    4.40
   4  -8   1   72.89    4.00
   4   8   1   68.99    4.10
   4   8   1   70.39    3.60
   4   8   1   66.49    5.50
   4   8   1   73.49    3.50
   4   8   1   80.39    4.40
  -4   8  -1   73.09    3.40
  -4   8  -1   70.29    3.30
  -4   8  -1   73.09    3.70
  -5  -8  -1  200.48    7.70
  -5  -8  -1  197.68    7.60
   5  -8   1  208.18    8.40
   5  -8   1  188.98    7.40
  -5  -8  -1  192.18    7.90
   5  -8   1  201.48    7.50
  -5   8  -1  190.38    7.00
   5   8   1  195.38    7.40
   5   8   1  179.48    7.20
  -5   8  -1  189.38    7.20
  -5   8  -1  193.38    7.10
   5   8   1  192.48    7.80
  -6  -8  -1   21.50    2.30
   6  -8   1   24.40    2.60
   6  -8   1   22.70    2.30
  -6  -8  -1   24.40    2.20
  -6   8  -1   21.00    1.80
   6   8   1   21.70    1.90
   6   8   1   20.50    2.60
  -6   8  -1   27.70    2.10
  -7  -8  -1    8.80    1.30
   7  -8   1    5.20    1.30
  -6  -9   1   29.30    2.50
   6  -9  -1   26.80    2.60
  -6  -9   1   27.90    2.10
   6  -9  -1   28.90    2.00
   6   9  -1   29.70    2.00
   5  -9  -1   11.20    1.80
  -5  -9   1    7.00    1.40
   5  -9  -1    9.40    1.80
   5  -9  -1   10.70    1.70
  -5  -9   1   11.40    1.70
  -5   9   1   10.30    1.70
  -5   9   1   15.80    2.40
   5   9  -1    8.30    1.90
   5   9  -1    7.10    2.20
   5   9  -1    8.70    1.30
   4  -9  -1   30.60    2.30
  -4  -9   1   28.70    2.70
  -4  -9   1   23.70    2.70
   4  -9  -1   30.30    3.50
   4  -9  -1   31.00    2.50
  -4   9   1   26.70    2.10
   4   9  -1   20.10    3.00
   4   9  -1   27.10    2.30
  -4   9   1   25.20    2.60
  -4   9   1   28.70    2.00
   4   9  -1   26.80    2.40
   3  -9  -1   35.00    2.80
   3  -9  -1   27.40    3.80
   3  -9  -1   31.70    2.60
  -3  -9   1   22.70    4.20
  -3  -9   1   31.80    2.90
  -3  -9   1   31.00    3.10
   3   9  -1   30.10    3.60
   3   9  -1   32.00    2.10
  -3   9   1   30.80    2.10
  -3   9   1   32.30    2.80
   3   9  -1   31.30    2.50
   3   9  -1   21.80    4.60
  -3   9   1   28.00    2.30
   3   9  -1   25.50    2.70
  -2  -9   1   71.09    5.20
  -2  -9   1   90.09    5.40
   2  -9  -1   99.89    5.60
   2  -9  -1   95.29    5.70
  -2  -9   1   79.29    4.80
   2   9  -1  105.59    5.70
   2   9  -1   73.59    6.20
   2   9  -1   85.39    6.70
   2   9  -1   91.29    4.80
  -2   9   1   89.69    4.30
   2   9  -1   88.29    5.00
  -2   9   1   88.99    3.80
   2   9  -1   78.99    4.20
  -2   9   1   91.39    4.50
   2   9  -1   87.89    3.90
   1  -9  -1    5.80    1.70
   1  -9  -1    5.80    1.50
  -1  -9   1    6.00    1.60
  -1  -9   1    8.60    2.10
  -1  -9   1    4.50    2.10
   1  -9  -1    5.40    1.70
   1  -9  -1    6.90    2.00
   1   9  -1    5.60    1.10
  -1   9   1    6.10    1.10
   1   9  -1    9.30    3.60
  -1   9   1    5.90    1.50
   1   9  -1    4.20    1.50
   1   9  -1    6.50    1.30
   1   9  -1    5.90    1.20
  -1   9   1    7.90    1.30
   0  -9  -1  109.69    5.00
   0  -9   1  102.29    6.20
   0  -9   1  108.59    5.20
   0  -9   1  120.29    5.80
   0  -9   1  104.49    5.10
   0  -9  -1  114.79    5.50
   0  -9  -1  108.59    5.70
   0  -9  -1  107.09    5.10
   0  -9   1  106.99    5.50
   0  -9  -1  112.69    5.70
   0   9   1  117.59    5.00
   0   9  -1  111.19    4.60
   0   9   1  114.79    4.70
   0   9  -1  116.89    4.90
   0   9   1  113.39    4.70
   0   9  -1  117.59    5.30
   0   9  -1  110.29    4.70
   1  -9   1   11.10    1.70
   1  -9   1   10.30    1.90
  -1  -9  -1   10.90    2.30
   1  -9   1   11.10    2.20
  -1  -9  -1    7.90    1.90
  -1  -9  -1    9.50    2.00
  -1  -9  -1    7.90    1.60
   1   9   1   11.20    1.80
   1   9   1   10.10    1.50
  -1   9  -1   14.40    2.10
  -1   9  -1   11.00    1.70
  -1   9  -1    6.10    2.10
   1   9   1    9.60    1.60
  -1   9  -1   10.60    1.60
   2  -9   1    5.80    1.80
   2  -9   1    7.30    2.10
   2  -9   1    2.10    1.80
   2  -9   1    2.90    2.20
   2  -9   1    6.00    1.40
  -2   9  -1    4.80    1.20
   2   9   1    5.70    1.40
   2   9   1    8.10    1.70
  -2   9  -1    9.60    2.00
  -2   9  -1    6.10    1.30
   2   9   1    7.80    2.10
  -2   9  -1    6.90    1.20
   2   9   1    3.00    4.70
   2   9   1    6.70    1.20
   3  -9   1   29.90    3.10
  -3  -9  -1   30.10    3.10
  -3  -9  -1   28.30    2.70
   3  -9   1   30.60    2.60
   3  -9   1   31.10    2.60
   3  -9   1   28.90    3.50
  -3   9  -1   28.70    2.30
   3   9   1   30.70    2.10
  -3   9  -1   29.80    2.10
   3   9   1   28.20    2.50
   3   9   1   28.40    3.20
  -3   9  -1   23.40    2.80
   3   9   1   29.90    2.20
  -4  -9  -1   70.49    3.60
   4  -9   1   66.89    4.30
   4  -9   1   70.29    3.50
   4  -9   1   72.79    3.60
   4  -9   1   71.79    4.00
  -4  -9  -1   71.89    4.00
   4   9   1   66.09    3.30
   4   9   1   69.19    4.10
   4   9   1   67.29    3.00
  -4   9  -1   68.19    3.10
   4   9   1   69.89    3.50
  -4   9  -1   68.69    3.20
  -4   9  -1   65.39    3.20
   5  -9   1  357.76   12.20
  -5  -9  -1  320.27   11.30
   5  -9   1  311.57   11.60
  -5  -9  -1  319.37   11.10
   5   9   1  328.17   11.10
  -5   9  -1  320.37   10.90
   5   9   1  320.47   11.50
   5   9   1  298.87   10.90
  -5   9  -1  308.07   10.80
   6  -9   1   39.10    2.70
  -6  -9  -1   41.00    2.40
  -6  -9  -1   40.60    2.40
  -6   9  -1   41.30    2.40
   6   9   1   42.90    2.30
  -5 -10   1    1.10    1.00
   5 -10  -1    0.10    0.80
  -5 -10   1   -0.20    1.00
  -5 -10   1    0.60    1.00
  -4 -10   1   35.70    2.30
   4 -10  -1   31.10    2.10
   4 -10  -1   33.70    2.20
  -4 -10   1   34.60    2.40
   4 -10  -1   35.90    3.60
   4  10  -1   43.50    4.50
  -4  10   1   35.60    2.30
  -4  10   1   38.80    2.20
   3 -10  -1   15.20    1.90
  -3 -10   1   12.80    2.00
  -3 -10   1   12.50    1.70
  -3 -10   1   13.50    2.10
   3 -10  -1   11.20    1.70
   3 -10  -1   15.70    2.60
  -3  10   1   14.20    1.90
  -3  10   1   11.80    1.60
  -3  10   1   12.70    1.90
   3  10  -1    9.40    1.60
  -2 -10   1   71.39    3.70
   2 -10  -1   82.09    3.90
   2 -10  -1   81.19    5.20
  -2 -10   1   75.19    4.00
  -2 -10   1   78.69    4.10
   2 -10  -1   74.29    3.60
   2  10  -1   80.19    3.30
  -2  10   1   76.49    3.60
   2  10  -1   79.19    3.70
  -2  10   1   77.09    3.50
  -2  10   1   83.49    5.40
  -2  10   1   75.19    3.30
   1 -10  -1    2.40    1.10
  -1 -10   1    1.50    1.40
  -1 -10   1    2.60    1.40
  -1 -10   1    3.00    1.20
   1 -10  -1    1.20    1.10
   1 -10  -1    1.90    1.30
  -1  10   1    2.40    1.30
   1  10  -1    2.10    0.90
   1  10  -1    2.60    1.80
  -1  10   1    3.70    1.10
  -1  10   1    2.80    1.10
   1  10  -1    0.80    1.00
  -1  10   1    2.70    0.90
   0 -10  -1   25.30    2.60
   0 -10   1   27.60    2.60
   0 -10   1   25.00    2.30
   0 -10   1   22.50    2.70
   0 -10  -1   27.20    2.60
   0 -10  -1   25.60    2.30
   0 -10   1   24.40    2.50
   0  10   1   28.30    1.90
   0  10  -1   27.00    2.50
   0  10  -1   25.90    2.00
   0  10  -1   25.40    2.40
   0  10   1   27.90    2.20
   0  10   1   26.60    2.30
   0  10   1   25.10    2.10
  -1 -10  -1   12.60    2.00
   1 -10   1   11.30    2.40
   1 -10   1   12.90    2.00
  -1 -10  -1   10.10    1.70
   1 -10   1    9.00    1.40
   1 -10   1   12.60    2.10
  -1 -10  -1    9.40    1.40
   1 -10   1   10.90    2.00
   1 -10   1   11.80    2.40
  -1  10  -1   11.90    1.60
  -1  10  -1   10.60    1.60
   1  10   1   10.50    1.50
   1  10   1   11.40    1.50
   1  10   1   10.80    1.90
  -1  10  -1   13.10    2.10
   2 -10   1   34.10    3.70
   2 -10   1   30.20    2.40
  -2 -10  -1   27.90    2.70
  -2 -10  -1   30.20    2.30
   2 -10   1   37.00    3.40
  -2 -10  -1   33.30    2.70
   2 -10   1   33.10    2.40
  -2  10  -1   31.60    2.30
   2  10   1   30.80    2.00
  -2  10  -1   31.40    2.00
  -2  10  -1   34.20    2.10
   2  10   1   26.30    3.40
   2  10   1   30.30    2.70
   2  10   1   32.10    2.30
  -3 -10  -1   36.90    2.60
  -3 -10  -1   37.80    2.50
   3 -10   1   39.20    2.70
   3 -10   1   38.10    3.20
   3  10   1   38.80    2.10
  -3  10  -1   39.30    2.20
   3  10   1   42.00    2.40
  -3  10  -1   35.90    2.10
   3  10   1   46.10    3.40
  -3  10  -1   47.40    3.70
   4 -10   1   42.10    2.60
  -4 -10  -1   37.10    2.50
   4 -10   1   50.49    3.80
  -4  10  -1   40.70    2.10
  -4  10  -1   40.40    2.20
   4  10   1   38.30    3.00
   4  10   1   40.30    2.30
  -3 -11   1   31.00    2.00
  -3 -11   1   34.60    2.10
   3 -11  -1   35.00    2.00
   3  11  -1   32.70    1.90
  -2 -11   1   82.59    3.50
   2 -11  -1   78.09    3.40
  -2 -11   1   77.39    3.30
   2 -11  -1   80.89    3.40
  -2 -11   1   82.19    3.60
  -2  11   1   83.19    3.60
   2  11  -1   83.99    3.40
  -2  11   1   85.09    3.30
   1 -11  -1   97.19    4.10
   1 -11  -1  105.79    4.10
  -1 -11   1  102.59    4.20
  -1 -11   1   98.79    4.10
  -1 -11   1   94.89    3.80
   1  11  -1  103.39    3.70
   1  11  -1   79.99    4.70
   0 -11   1  104.59    4.20
   0 -11  -1   99.79    4.10
   0  11  -1   99.29    4.10
   0  11   1   97.29    4.10
   0  11  -1  100.49    3.80
   0  11   1   98.89    3.90
   0  11   1  100.99    3.90
   1 -11   1   34.90    5.70
  -1 -11  -1   46.40    2.90
  -1 -11  -1   47.30    2.60
   1 -11   1   44.70    2.50
  -1  11  -1   44.60    2.40
   1  11   1   42.30    2.70
  -1  11  -1   42.00    2.30
   1  11   1   38.10    3.10
  -2 -11  -1   11.00    1.60
  -2 -11  -1    7.50    1.20
  -2  11  -1   11.00    1.30
   2  11   1    7.70    1.40
   2  11   1    9.90    1.40
  -3 -11  -1   11.70    1.50
  -3  11  -1   12.30    1.40
  10   0  -2    2.60    1.30
 -10   0   2    3.80    1.10
   9   0  -2    6.30    1.60
   9   0  -2    4.80    1.90
  -9   0   2   11.00    1.90
  -9   0   2    5.40    1.40
   9   0  -2    6.00    1.90
  -9   0   2    5.80    1.50
  -8   0   2   16.40    2.20
   8   0  -2    8.40    2.30
   8   0  -2   18.50    3.60
  -8   0   2   13.80    2.10
   8   0  -2   10.00    1.80
   8   0  -2   15.10    2.50
   7   0  -2  233.68   10.50
  -7   0   2  243.28    8.90
  -7   0   2  245.18    9.00
   7   0  -2  245.98   11.30
  -7   0   2  229.58    9.60
   7   0  -2  239.78    9.50
   7   0  -2  244.48    9.60
   6   0  -2   55.89    3.90
  -6   0   2   62.19    3.40
   6   0  -2   63.39    4.90
   6   0  -2   57.69    4.20
  -6   0   2   62.19    3.10
   6   0  -2   71.29    5.70
   5   0  -2    6.10    1.90
   5   0  -2    4.70    2.10
  -5   0   2    7.30    1.20
  -5   0   2    6.10    1.40
   5   0  -2    6.20    1.70
   5   0  -2    7.20    2.00
   4   0  -2 2012.80   66.19
  -4   0   2 2076.49   65.99
   4   0  -2 2101.79   66.29
  -3   0   2 1723.33   55.49
   3   0  -2 1746.93   55.69
   3   0  -2 1747.63   55.69
   2   0  -2    8.80    0.60
   2   0  -2    7.70    0.60
   1   0   2 2123.59   67.79
  -2   0  -2   71.99    3.10
  -2   0  -2   72.69    2.70
   2   0   2   69.89    3.10
   2   0   2   76.39    2.90
   2   0   2   71.59    2.80
   3   0   2 7614.04  253.17
   3   0   2 8259.27  252.57
  -4   0  -2 2222.38   72.29
   4   0   2 2254.27   71.99
  -4   0  -2 2204.18   71.69
   4   0   2 2238.88   71.79
   4   0   2 2212.68   71.59
  -4   0  -2 2332.97   72.49
   4   0   2 2227.68   71.69
  -4   0  -2 2117.09   71.99
  -4   0  -2 2218.88   71.39
   5   0   2   29.90    3.90
   5   0   2   35.80    3.50
   5   0   2   34.30    3.10
  -5   0  -2   32.30    3.70
  -5   0  -2   33.40    2.10
  -5   0  -2   34.50    2.20
   5   0   2   32.50    3.00
   5   0   2   38.60    2.30
   6   0   2   -1.40    1.40
   6   0   2    1.40    1.70
   6   0   2   -0.10    2.30
   6   0   2   -1.20    1.40
  -6   0  -2   -3.30    2.70
  -6   0  -2   -1.00    1.00
  -6   0  -2   -0.20    0.90
  -6   0  -2   -0.60    1.80
   7   0   2   23.10    3.40
  -7   0  -2   17.80    3.10
  -7   0  -2   20.20    2.60
   7   0   2   17.50    2.70
  -7   0  -2   18.90    2.20
  -7   0  -2   20.60    2.10
  -7   0  -2   18.30    6.40
   7   0   2   16.20    2.80
  -8   0  -2  127.79    5.80
  -8   0  -2  120.59    5.60
   8   0   2  130.09    5.60
   8   0   2  131.09    5.40
  -8   0  -2  125.99    5.30
  -8   0  -2  136.89    5.50
  -9   0  -2   93.19    4.40
  -9   0  -2  110.49    4.20
   9   0   2   94.19    4.60
   9   0   2  110.29    5.20
  10  -1  -2   31.60    3.50
 -10  -1   2   41.70    2.30
 -10   1   2   38.80    2.50
  10   1  -2   33.70    3.10
   9  -1  -2    8.70    2.40
  -9  -1   2   10.50    2.00
  -9  -1   2   10.20    1.80
  -9  -1   2    9.40    1.50
  -9  -1   2   13.20    2.10
   9   1  -2   14.20    2.90
  -9   1   2   12.10    1.70
   9   1  -2    7.60    2.10
  -9   1   2   11.70    2.00
  -9   1   2   15.70    2.50
   9   1  -2   13.60    1.70
   8  -1  -2   17.30    3.40
  -8  -1   2   20.40    2.30
  -8  -1   2   17.70    2.30
   8  -1  -2   21.60    3.20
   8  -1  -2   21.90    3.90
   8  -1  -2   16.70    3.60
  -8  -1   2   17.40    3.20
  -8   1   2   21.30    2.30
   8   1  -2   14.10    2.40
  -8   1   2   17.30    2.10
   8   1  -2   21.50    3.80
   8   1  -2   19.00    2.80
  -8   1   2   17.50    2.50
  -7  -1   2   72.49    4.00
  -7  -1   2   71.39    4.70
   7  -1  -2   78.29    5.50
   7  -1  -2   82.99    6.30
   7  -1  -2   79.59    4.60
  -7  -1   2   74.19    3.80
   7  -1  -2   75.49    4.80
  -7   1   2   75.39    3.60
   7   1  -2   74.69    4.60
   7   1  -2   75.29    4.70
  -7   1   2   73.39    3.80
  -7   1   2   66.09    5.60
   7   1  -2   73.49    5.80
   7   1  -2   75.79    6.00
  -6  -1   2  504.25   17.30
   6  -1  -2  503.45   20.30
  -6  -1   2  447.56   18.00
   6  -1  -2  520.75   18.60
   6  -1  -2  590.34   20.00
   6  -1  -2  507.45   17.70
  -6  -1   2  522.65   17.50
   6   1  -2  503.35   17.90
   6   1  -2  506.05   17.80
   6   1  -2  512.15   18.10
   6   1  -2  512.65   18.80
  -6   1   2  512.15   17.20
  -6   1   2  529.05   17.10
   6   1  -2  496.55   17.90
   5  -1  -2  328.67   12.50
   5  -1  -2  346.57   14.40
   5  -1  -2  327.47   11.80
   5  -1  -2  338.47   13.50
  -5  -1   2  343.37   11.60
   5  -1  -2  295.57   11.60
  -5  -1   2  343.67   11.50
   5  -1  -2  323.77   12.20
   5  -1  -2  325.57   12.60
   5   1  -2  342.87   12.10
  -5   1   2  332.97   11.10
  -5   1   2  329.47   11.40
   5   1  -2  381.06   13.30
   5   1  -2  339.87   12.00
   5   1  -2  320.87   11.80
   5   1  -2  328.47   12.80
   5   1  -2  319.47   12.20
  -4  -1   2  314.67   11.40
  -4  -1   2  309.07   10.30
  -4  -1   2  320.87   10.50
  -4   1   2  289.57    9.90
   4   1  -2  297.27   10.80
   4   1  -2  285.17   10.60
  -3  -1   2  477.65   15.20
  -3  -1   2  475.55   15.80
   3   1  -2  483.95   15.00
   3   1  -2  453.85   15.10
   3   1  -2  429.46   15.60
  -2  -1   2  560.74   18.10
   2   1  -2  548.25   18.10
   2   1  -2  566.84   18.30
  -1  -1   2 1278.87   39.30
  -1  -1   2 1240.08   39.20
  -1  -1   2 1241.98   39.30
   1   1  -2 1263.97   39.30
   1   1  -2 1089.79   39.20
   0  -1   2 5305.67  177.08
   0  -1  -2 5325.77  174.18
   0   1   2 5047.00  173.88
   0   1  -2 5069.09  176.58
   1  -1   2 9821.12  330.27
   1   1   2 9999.00  330.47
   2  -1   2 1618.54   52.79
  -2  -1  -2 1565.44   52.89
  -2  -1  -2 1616.84   52.79
   2  -1   2 1701.33   52.49
   2  -1   2 1658.93   52.59
  -2  -1  -2 1632.24   52.49
  -2   1  -2 1619.44   52.39
   2   1   2 1656.43   52.89
   2   1   2 1623.34   52.69
   2   1   2 1661.53   52.49
  -2   1  -2 1669.43   52.89
  -3  -1  -2 3654.53  116.79
  -3  -1  -2 3610.24  116.89
  -3  -1  -2 3557.84  116.29
   3  -1   2 3616.84  116.79
  -3   1  -2 3720.83  116.79
  -3   1  -2 3732.33  116.89
   3   1   2 3841.32  116.19
   3   1   2 3268.07  116.19
   3   1   2 3767.92  116.99
  -4  -1  -2    1.50    1.30
   4  -1   2    1.40    1.90
  -4  -1  -2    1.40    1.90
   4  -1   2    0.40    0.70
   4  -1   2    2.30    2.30
  -4  -1  -2    0.90    1.00
   4  -1   2    3.60    2.80
   4  -1   2    1.80    1.90
  -4  -1  -2   -0.20    0.70
  -4  -1  -2    3.40    2.90
  -4  -1  -2    1.60    1.20
   4   1   2    0.00    2.50
   4   1   2    2.90    3.10
  -4   1  -2    1.30    1.60
  -4   1  -2   -0.40    1.40
  -4   1  -2   -0.90    2.50
  -4   1  -2    1.30    0.60
   4   1   2   -0.90    1.30
   4   1   2    1.10    2.30
   4   1   2    0.40    1.60
   4   1   2    0.40    0.70
   5  -1   2   98.39    6.90
  -5  -1  -2  107.99    4.30
  -5  -1  -2   95.59    4.50
   5  -1   2   94.69    4.60
  -5  -1  -2   95.69    5.10
   5  -1   2   94.29    5.20
   5  -1   2   94.79    3.90
   5  -1   2   93.29    4.70
  -5  -1  -2   92.09    4.10
   5  -1   2   98.79    5.10
   5   1   2  102.39    5.60
  -5   1  -2  101.89    4.10
   5   1   2   90.69    4.80
   5   1   2   93.69    4.60
  -5   1  -2   99.89    6.00
   5   1   2   92.29    4.10
   5   1   2   92.09    5.20
  -5   1  -2   93.89    4.60
  -5   1  -2   97.09    4.00
   5   1   2   99.19    5.50
   5   1   2   91.19    4.70
   6  -1   2  210.88    8.60
  -6  -1  -2  203.18    8.00
   6  -1   2  208.88    8.00
  -6  -1  -2  196.48    9.50
  -6  -1  -2  204.48    8.50
  -6  -1  -2  206.18    7.80
   6  -1   2  199.28    8.40
  -6  -1  -2  196.88    7.70
   6  -1   2  196.98    9.30
   6  -1   2  203.78    8.00
  -6   1  -2  206.18    7.60
  -6   1  -2  196.58   10.30
   6   1   2  205.48    8.70
  -6   1  -2  206.98    7.70
   6   1   2  205.48    8.70
   6   1   2  207.48    8.00
  -6   1  -2  209.28    8.00
   6   1   2  197.68    7.40
   6   1   2  203.48    8.20
   7  -1   2   29.40    3.30
   7  -1   2   32.80    3.60
  -7  -1  -2   27.90    2.60
   7  -1   2   32.20    2.90
   7  -1   2   30.40    3.80
  -7  -1  -2   32.20    3.00
  -7  -1  -2   27.80    3.50
   7  -1   2   26.00    3.70
  -7  -1  -2   26.30    2.40
  -7   1  -2   29.70    3.20
  -7   1  -2   31.80    2.40
  -7   1  -2   28.70    2.80
  -7   1  -2   28.70    2.40
   7   1   2   27.20    3.80
   7   1   2   27.40    3.10
   7   1   2   29.10    3.00
   7   1   2   23.50    3.80
   8  -1   2   23.30    2.30
   8  -1   2   24.60    2.90
  -8  -1  -2   23.50    2.30
   8  -1   2   20.70    3.20
   8  -1   2   26.80    2.60
  -8  -1  -2   22.40    3.20
  -8  -1  -2   27.80    2.40
  -8  -1  -2   22.00    3.10
  -8   1  -2   22.20    2.40
   8   1   2   20.00    2.30
  -8   1  -2   21.50    2.10
   8   1   2   21.50    2.40
  -8   1  -2   22.10    2.50
  -8   1  -2   24.20    2.80
  -9  -1  -2   67.39    3.40
   9  -1   2   70.99    6.20
  -9  -1  -2   67.09    3.10
  -9   1  -2   60.99    3.20
   9   1   2   67.99    3.30
   9   1   2   62.89    4.00
  -9   1  -2   68.39    3.10
 -10  -2   2   51.99    2.50
  10   2  -2   46.50    3.40
  -9  -2   2  104.59    4.90
  -9  -2   2  106.59    5.10
   9  -2  -2  114.19    5.40
  -9  -2   2  111.69    5.00
   9  -2  -2   95.19    5.80
  -9  -2   2  114.99    4.80
   9  -2  -2  104.69    4.80
   9   2  -2   99.09    5.50
  -9   2   2  116.79    4.70
  -9   2   2  109.39    4.90
  -9   2   2  114.79    4.90
   9   2  -2  118.19    4.80
   9   2  -2  115.69    5.70
  -8  -2   2  122.89    5.30
  -8  -2   2  112.89    5.80
  -8  -2   2  112.19    6.00
   8  -2  -2  117.99    7.30
  -8  -2   2  117.09    5.40
  -8   2   2  115.89    5.00
  -8   2   2  124.59    6.10
   8   2  -2  121.29    6.50
  -8   2   2  122.89    5.00
  -7  -2   2  472.15   17.30
   7  -2  -2  509.75   18.20
   7  -2  -2  481.15   17.30
   7  -2  -2  486.75   19.00
   7  -2  -2  486.95   17.10
  -7  -2   2  488.35   16.90
  -7  -2   2  501.65   17.40
   7   2  -2  515.25   19.10
   7   2  -2  481.55   17.10
  -7   2   2  506.75   16.50
   7   2  -2  491.45   17.50
   7   2  -2  441.96   17.90
   7   2  -2  495.05   18.30
   7   2  -2  468.25   17.20
  -7   2   2  488.45   16.80
   6  -2  -2  516.95   20.30
  -6  -2   2  529.55   19.00
   6  -2  -2  528.55   20.60
  -6  -2   2  569.94   18.70
   6  -2  -2  564.54   18.80
  -6  -2   2  525.05   19.70
   6  -2  -2  542.95   19.70
   6   2  -2  536.65   18.90
  -6   2   2  541.95   18.20
   6   2  -2  563.44   18.90
   6   2  -2  553.14   19.20
  -6   2   2  551.14   18.00
   6   2  -2  534.45   19.90
   6   2  -2  551.64   19.10
   5  -2  -2  258.77    9.60
  -5  -2   2  272.87   11.00
  -5  -2   2  264.07    9.50
   5  -2  -2  240.88   10.50
   5  -2  -2  259.37   10.40
  -5  -2   2  255.97   10.10
  -5  -2   2  276.07    9.40
   5  -2  -2  277.37   10.60
   5  -2  -2  251.17   11.40
   5   2  -2  261.27    9.90
   5   2  -2  259.47   11.00
   5   2  -2  274.87   10.20
  -5   2   2  263.57    8.80
   5   2  -2  263.47    9.80
   5   2  -2  263.57    9.90
  -4  -2   2  269.67   10.00
   4  -2  -2  266.97    9.60
  -4  -2   2  248.38    9.10
   4  -2  -2  220.38   10.00
  -4  -2   2  260.27    9.00
   4   2  -2  278.17    8.80
   4   2  -2  278.57   11.20
  -4   2   2  250.57    8.40
   4   2  -2  256.37    9.50
   4   2  -2  250.87    9.60
   4   2  -2  262.57    9.80
  -3  -2   2 1659.03   54.89
  -3  -2   2 1768.62   55.09
  -3  -2   2 1737.23   55.29
   3   2  -2 1708.13   55.19
   3   2  -2 1648.24   54.69
   3   2  -2 1712.93   55.19
  -2  -2   2  485.45   15.90
  -2  -2   2  487.15   16.20
   2   2  -2  491.15   16.20
   2   2  -2  476.55   16.20
   2   2  -2  485.25   16.00
   1  -2  -2 4510.65  147.49
  -1  -2   2 4565.74  160.68
   1   2  -2 4415.86  160.08
   0  -2   2 3401.86  108.89
   0   2   2 3432.06  108.79
  -1  -2  -2 1193.68   37.90
   1  -2   2 1158.58   37.70
  -1  -2  -2 1143.69   37.70
   1  -2   2 1217.38   37.50
   1  -2   2 1186.58   37.80
   1   2   2 1209.48   37.80
  -1   2  -2 1138.79   37.40
   1   2   2 1165.38   37.50
   1   2   2 1196.78   37.70
  -1   2  -2 1070.09   37.70
   2  -2   2  288.27    9.80
   2  -2   2  283.37   10.10
  -2  -2  -2  276.07    9.80
  -2  -2  -2  278.57   10.00
  -2   2  -2  283.17    9.70
   2   2   2  299.77    9.80
   2   2   2  297.77   10.30
  -2   2  -2  295.77   10.30
   2   2   2  302.37   10.00
  -2   2  -2  292.27   10.10
  -3  -2  -2 1689.43   55.29
   3  -2   2 1704.53   55.29
  -3  -2  -2 1742.33   56.09
  -3  -2  -2 1702.03   55.79
  -3   2  -2 1780.92   55.89
   3   2   2 1829.92   56.09
   3   2   2 1675.43   55.49
  -3   2  -2 1720.43   55.09
  -3   2  -2 1668.33   54.99
  -3   2  -2 1610.24   55.89
   3   2   2 1778.52   55.29
   4  -2   2   41.30    3.70
   4  -2   2   40.70    3.90
  -4  -2  -2   40.10    4.70
  -4  -2  -2   44.40    2.50
  -4  -2  -2   39.70    3.10
   4  -2   2   43.20    2.20
   4  -2   2   42.40    2.90
  -4  -2  -2   39.60    3.70
  -4  -2  -2   42.10    3.00
   4  -2   2   43.60    3.70
   4  -2   2   34.50    5.30
  -4  -2  -2   44.50    2.40
   4   2   2   44.60    2.50
   4   2   2   39.30    4.50
  -4   2  -2   45.50    2.30
   4   2   2   38.80    2.90
   4   2   2   37.10    3.60
   4   2   2   41.60    2.80
  -4   2  -2   43.80    2.00
  -4   2  -2   47.50    3.50
   4   2   2   35.90    5.00
  -4   2  -2   46.90    3.90
   4   2   2   37.10    3.10
  -5  -2  -2  531.25   17.40
  -5  -2  -2  505.05   18.40
   5  -2   2  506.75   17.60
   5  -2   2  474.75   18.30
  -5  -2  -2  494.15   18.00
  -5  -2  -2  539.05   17.40
   5  -2   2  489.95   17.60
   5   2   2  547.15   17.50
  -5   2  -2  500.35   17.40
  -5   2  -2  521.15   17.10
   5   2   2  492.05   18.00
  -5   2  -2  477.55   18.80
   5   2   2  525.35   17.60
  -5   2  -2  522.35   17.20
   5   2   2  523.75   17.60
   5   2   2  520.05   18.10
   6  -2   2  122.79    6.90
  -6  -2  -2  118.39    5.30
  -6  -2  -2  115.29    6.10
  -6  -2  -2  119.99    7.00
   6  -2   2  116.69    5.90
  -6  -2  -2  121.39    5.50
  -6  -2  -2  124.19    5.30
   6  -2   2  125.29    6.10
   6  -2   2  109.69    5.80
   6  -2   2  119.59    5.40
  -6   2  -2  123.29    5.00
  -6   2  -2  125.19    4.90
   6   2   2  118.19    5.50
   6   2   2  117.99    5.80
  -6   2  -2  117.69    5.50
   6   2   2  120.89    5.80
   6   2   2  117.19    5.70
   6   2   2  115.79    5.00
   6   2   2  121.89    6.50
  -7  -2  -2  209.48    8.80
  -7  -2  -2  231.38   10.90
  -7  -2  -2  220.68    8.60
  -7  -2  -2  231.88    8.90
   7  -2   2  241.98    9.30
   7  -2   2  236.08    9.50
   7  -2   2  232.08    8.70
  -7  -2  -2  215.58    9.30
   7  -2   2  231.98    9.10
   7  -2   2  228.58    9.90
  -7   2  -2  234.68    8.60
   7   2   2  229.88    8.90
  -7   2  -2  228.28    9.10
  -7   2  -2  240.88    8.80
  -7   2  -2  241.48    8.60
   7   2   2  235.58    9.10
   8  -2   2   -2.20    4.10
   8  -2   2    4.40    2.00
   8  -2   2    6.00    1.30
  -8  -2  -2    6.30    2.00
   8  -2   2    8.70    2.70
  -8  -2  -2    2.90    1.10
  -8  -2  -2    4.20    1.60
  -8  -2  -2    4.80    1.40
   8  -2   2    3.20    1.40
  -8   2  -2    2.10    1.60
   8   2   2    4.10    1.30
  -8   2  -2    5.60    1.50
  -8   2  -2    5.60    1.20
   8   2   2    4.20    1.30
  -9  -2  -2  211.38    8.10
  -9  -2  -2  249.68    8.50
   9   2   2  248.08    8.30
  -9   2  -2  222.28    8.10
   9   2   2  217.98    8.90
  -9   2  -2  235.88    8.10
   9  -3  -2   84.19    3.90
  -9  -3   2   80.39    4.10
  -9  -3   2   86.99    3.70
   9  -3  -2   77.99    4.30
   9  -3  -2   70.99    5.80
  -9  -3   2   80.79    3.80
   9   3  -2   81.39    4.70
   9   3  -2   79.99    5.70
  -9   3   2   78.69    4.30
  -9   3   2   83.59    3.90
  -8  -3   2   22.20    3.40
   8  -3  -2   17.10    3.40
   8  -3  -2   15.70    3.30
  -8  -3   2   20.80    3.10
  -8  -3   2   17.60    2.40
  -8  -3   2   20.20    2.30
   8   3  -2   22.50    3.80
   8   3  -2   20.00    3.20
   8   3  -2   23.60    3.80
   8   3  -2   18.70    2.60
   8   3  -2   19.50    2.40
  -8   3   2   17.30    2.30
  -8   3   2   13.80    3.70
  -8   3   2   19.30    2.60
   7  -3  -2  140.69    7.00
   7  -3  -2  137.69    6.10
  -7  -3   2  128.79    5.80
  -7  -3   2  126.99    6.60
  -7  -3   2  132.29    6.20
  -7  -3   2  123.69    5.70
   7  -3  -2  133.89    8.10
  -7   3   2  129.29    5.20
   7   3  -2  139.39    6.50
   7   3  -2  128.59    6.20
  -7   3   2  133.49    5.60
   7   3  -2  134.89    6.10
   7   3  -2  131.89    7.40
   7   3  -2  141.69    7.90
  -6  -3   2  707.13   23.50
   6  -3  -2  697.63   23.50
  -6  -3   2  678.43   23.80
   6  -3  -2  729.53   24.60
  -6  -3   2  683.13   25.20
  -6  -3   2  711.33   23.50
  -6  -3   2  704.93   24.20
   6  -3  -2  677.23   25.40
   6   3  -2  688.53   25.20
  -6   3   2  672.03   22.70
   6   3  -2  702.73   23.90
   6   3  -2  719.53   23.70
  -6   3   2  649.04   23.80
   6   3  -2  685.23   24.70
   6   3  -2  697.13   23.60
   5  -3  -2  414.66   16.40
   5  -3  -2  390.96   14.90
   5  -3  -2  399.86   14.20
   5  -3  -2  410.76   15.10
  -5  -3   2  405.06   14.60
  -5  -3   2  417.16   14.20
  -5  -3   2  418.76   14.30
  -5  -3   2  423.46   15.50
   5   3  -2  417.46   13.60
   5   3  -2  408.96   14.40
  -5   3   2  396.06   13.40
   5   3  -2  410.56   14.60
   5   3  -2  402.66   14.40
   5   3  -2  382.56   15.40
   4  -3  -2   19.30    2.50
  -4  -3   2   23.80    2.10
  -4  -3   2   18.80    3.00
  -4  -3   2   20.20    3.40
   4  -3  -2   21.40    3.40
  -4  -3   2   20.90    1.80
  -4  -3   2   25.60    3.40
   4   3  -2   22.30    3.20
   4   3  -2   19.60    2.50
   4   3  -2   24.10    2.30
   4   3  -2   22.80    1.70
   4   3  -2   18.20    3.20
  -3  -3   2  976.70   31.60
  -3  -3   2  950.70   31.20
  -3  -3   2  935.41   31.20
   3   3  -2  984.20   31.80
   3   3  -2  956.20   31.80
   3   3  -2  947.91   31.20
   3   3  -2  940.81   31.40
  -2  -3   2  670.13   22.90
   2   3  -2  708.13   22.80
   2   3  -2  709.53   23.10
   2   3  -2  669.23   22.90
   2   3  -2  696.43   23.10
  -1  -3   2  576.54   18.60
  -1  -3   2  568.34   18.80
  -1  -3   2  572.64   18.80
  -1   3   2  554.94   18.40
   1   3  -2  573.64   18.40
   1   3  -2  581.34   19.00
   1   3  -2  529.45   18.80
  -1   3   2  572.84   18.40
   1   3  -2  572.84   19.00
   0  -3   2 2777.32   89.89
   0  -3   2 2732.63   90.29
   0  -3  -2 2726.13   90.09
   0   3  -2 2774.42   90.29
   0   3  -2 2770.32   90.39
   0   3  -2 3126.19   90.09
   0   3   2 2806.42   90.29
   1  -3   2  786.32   26.50
  -1  -3  -2  777.22   26.20
   1  -3   2  807.72   26.30
  -1  -3  -2  821.42   26.60
  -1   3  -2  821.12   26.50
  -1   3  -2  814.72   26.70
   1   3   2  802.22   26.50
   1   3   2  792.12   26.10
  -1   3  -2  819.62   26.10
   1   3   2  821.52   26.30
   1   3   2  807.92   26.50
   2  -3   2  500.65   16.40
  -2  -3  -2  456.75   16.40
  -2  -3  -2  504.15   17.10
  -2  -3  -2  496.25   16.70
   2  -3   2  488.75   16.80
   2   3   2  505.05   17.00
   2   3   2  496.55   16.30
   2   3   2  504.45   16.70
  -2   3  -2  494.45   16.80
  -2   3  -2  493.75   17.00
   3  -3   2  257.77    9.50
  -3  -3  -2  257.77    9.30
  -3  -3  -2  265.67    9.60
  -3  -3  -2  245.98   10.20
  -3  -3  -2  247.78   10.10
  -3  -3  -2  260.57   10.40
   3  -3   2  268.37    9.00
   3  -3   2  263.27   10.00
   3   3   2  251.97    9.50
  -3   3  -2  270.07    9.80
   3   3   2  268.17    9.40
  -3   3  -2  268.97   10.20
  -3   3  -2  267.37    9.00
  -3   3  -2  265.77    8.90
   3   3   2  264.17    9.10
   3   3   2  269.57    9.10
   3   3   2  260.67   10.20
   3   3   2  246.38    9.40
   4  -3   2  425.76   15.50
   4  -3   2  433.86   15.50
  -4  -3  -2  435.16   14.90
   4  -3   2  447.66   15.30
   4  -3   2  429.96   15.00
  -4  -3  -2  447.86   15.20
  -4  -3  -2  424.16   15.70
   4  -3   2  423.96   15.20
  -4  -3  -2  429.66   14.90
   4  -3   2  415.96   16.00
  -4  -3  -2  498.55   17.40
  -4   3  -2  439.76   16.30
  -4   3  -2  436.76   14.60
  -4   3  -2  442.66   14.60
   4   3   2  445.46   15.20
   4   3   2  432.86   14.80
   4   3   2  420.26   16.80
   4   3   2  417.56   15.00
   4   3   2  442.26   14.70
   4   3   2  430.16   15.60
   4   3   2  439.96   14.70
  -4   3  -2  420.96   15.00
   4   3   2  461.55   15.20
  -5  -3  -2  455.25   16.70
  -5  -3  -2  445.36   15.70
   5  -3   2  453.45   16.90
  -5  -3  -2  456.55   15.70
  -5  -3  -2  461.15   16.00
   5  -3   2  460.95   16.40
  -5  -3  -2  459.35   16.50
   5  -3   2  455.05   15.70
   5  -3   2  471.35   16.00
   5  -3   2  445.96   16.30
  -5   3  -2  449.16   15.70
   5   3   2  473.05   16.90
  -5   3  -2  469.55   15.40
   5   3   2  436.26   15.80
   5   3   2  461.35   16.30
   5   3   2  462.55   15.90
  -5   3  -2  463.85   15.40
   5   3   2  445.26   15.80
   5   3   2  443.76   16.00
   5   3   2  454.15   15.40
  -6  -3  -2  151.38    7.10
  -6  -3  -2  145.09    6.20
  -6  -3  -2  145.09    6.30
  -6  -3  -2  146.89    7.70
  -6  -3  -2  153.38    6.40
   6  -3   2  157.98    7.60
   6  -3   2  145.69    6.90
   6  -3   2  150.68    6.20
   6  -3   2  144.29    6.70
   6   3   2  150.18    6.10
  -6   3  -2  147.29    5.90
   6   3   2  147.89    6.40
  -6   3  -2  149.39    5.80
  -6   3  -2  145.69    6.30
   6   3   2  150.28    6.80
   6   3   2  154.68    6.50
   6   3   2  144.29    6.50
   7  -3   2    7.50    2.20
  -7  -3  -2    6.00    1.40
  -7  -3  -2    9.20    1.90
  -7  -3  -2    9.40    2.00
  -7  -3  -2    7.30    3.40
  -7  -3  -2    9.30    2.80
   7  -3   2    6.10    1.50
  -7  -3  -2    0.30    3.30
   7  -3   2   12.20    2.60
   7   3   2    6.30    1.50
   7   3   2    6.40    1.70
  -7   3  -2    6.60    1.30
  -7   3  -2    9.40    1.70
   7   3   2    2.70    2.10
  -7   3  -2    5.30    1.40
  -8  -3  -2  116.79    5.60
   8  -3   2  116.39    5.30
   8  -3   2  113.89    5.30
  -8  -3  -2  116.79    5.30
   8  -3   2  112.39    6.10
  -8  -3  -2  119.79    4.80
   8   3   2  118.79    4.90
  -8   3  -2  110.49    5.00
  -8   3  -2  114.59    4.80
  -8   3  -2  116.39    5.00
  -8   3  -2  112.19    4.70
  -9  -3  -2   18.40    2.00
   9   3   2   22.50    2.80
  -9   3  -2   19.30    1.80
   9   3   2   19.30    1.90
   9  -4  -2   11.60    2.40
   9  -4  -2   11.00    1.50
  -9  -4   2   11.90    1.80
   9   4  -2   19.10    3.50
   9   4  -2   13.20    2.40
  -8  -4   2   27.60    3.00
   8  -4  -2   31.90    3.40
  -8  -4   2   28.30    2.60
   8  -4  -2   27.40    2.60
  -8  -4   2   27.60    2.50
  -8  -4   2   32.10    3.60
   8   4  -2   31.60    2.80
   8   4  -2   28.30    3.70
   8   4  -2   25.90    3.80
   8   4  -2   28.60    2.60
  -8   4   2   30.00    2.50
  -8   4   2   28.30    2.80
  -7  -4   2  120.99    6.10
  -7  -4   2  108.09    5.40
  -7  -4   2  111.69    5.20
   7  -4  -2  117.99    5.40
  -7  -4   2  116.79    5.70
  -7  -4   2  110.99    9.60
   7  -4  -2  125.79    6.40
  -7   4   2  113.19    4.60
   7   4  -2  111.49    5.70
   7   4  -2  118.49    5.60
   7   4  -2  115.19    5.40
   7   4  -2  114.89    7.10
   7   4  -2  113.39    6.80
  -7   4   2  118.99    5.10
   6  -4  -2   84.69    7.90
  -6  -4   2   88.89    4.50
  -6  -4   2   90.79    4.40
   6  -4  -2   88.49    4.60
  -6  -4   2   83.79    5.40
  -6  -4   2   83.99    7.20
   6  -4  -2   97.99    5.80
  -6  -4   2   86.89    4.90
  -6   4   2   85.29    3.50
   6   4  -2   83.79    4.90
   6   4  -2   83.59    6.30
   6   4  -2   80.79    4.80
   6   4  -2   92.69    6.80
   6   4  -2   87.29    4.70
  -5  -4   2  197.58    7.70
   5  -4  -2  185.88   10.90
   5  -4  -2  198.28    7.70
  -5  -4   2  212.68    7.70
  -5  -4   2  199.78    8.60
   5  -4  -2  171.98    9.50
  -5  -4   2  196.48    8.10
   5  -4  -2  186.28    8.50
  -5  -4   2  199.88    9.00
   5   4  -2  201.48    7.90
  -5   4   2  201.78    6.80
   5   4  -2  194.88    7.20
   5   4  -2  183.38    9.10
   5   4  -2  200.58    8.10
   5   4  -2  196.08    8.00
  -4  -4   2   99.99    5.40
  -4  -4   2  102.79    4.50
   4  -4  -2   92.19    5.40
  -4  -4   2  104.09    7.00
  -4  -4   2   97.99    5.70
  -4  -4   2   98.79    5.00
   4  -4  -2   99.09    4.70
   4  -4  -2  102.89    4.90
  -4  -4   2  107.69    4.60
   4   4  -2  105.39    4.90
   4   4  -2   95.79    5.00
   4   4  -2  105.79    4.80
  -4   4   2  100.09    3.60
   4   4  -2  102.49    4.30
   4   4  -2  100.29    8.60
   4   4  -2   97.39    5.20
   4   4  -2   95.69    6.10
  -3  -4   2  271.27   10.50
  -3  -4   2  271.37   11.10
  -3  -4   2  285.97   10.10
  -3  -4   2  289.37   10.20
   3  -4  -2  295.17   11.50
   3  -4  -2  275.37   10.40
  -3  -4   2  284.57   10.60
   3  -4  -2  272.57   10.20
   3   4  -2  280.47    9.70
   3   4  -2  289.27   11.40
   3   4  -2  281.07    9.90
   3   4  -2  287.97   10.30
   3   4  -2  293.57   10.40
   3   4  -2  292.47   11.60
   3   4  -2  295.57   10.20
  -2  -4   2  259.87    9.30
  -2  -4   2  269.37    9.70
  -2  -4   2  267.37    9.40
   2   4  -2  264.77    9.10
   2   4  -2  258.17    9.50
  -2   4   2  270.37    8.80
   2   4  -2  261.47   10.00
   2   4  -2  270.17   10.20
   2   4  -2  269.77    9.60
  -1  -4   2  717.73   23.60
  -1  -4   2  742.83   24.00
   1   4  -2  756.62   24.10
   1   4  -2  710.73   23.90
  -1   4   2  738.83   23.30
  -1   4   2  686.43   23.50
   1   4  -2  692.43   23.50
  -1   4   2  703.63   23.50
   1   4  -2  733.33   24.30
   1   4  -2  725.83   23.50
   0  -4   2  515.15   16.90
   0  -4   2  476.95   16.60
   0  -4   2  490.15   17.20
   0   4   2  545.05   17.30
   0   4   2  489.65   16.90
   0   4   2  519.55   16.90
   0   4  -2  478.55   16.40
   0   4   2  489.55   16.50
   0   4   2  539.85   17.20
   0   4  -2  507.25   17.20
   0   4  -2  474.05   17.10
  -1  -4  -2 1269.97   41.10
  -1  -4  -2 1300.67   41.70
   1  -4   2 1256.87   41.60
   1  -4   2 1263.27   41.20
   1   4   2 1278.27   41.50
   1   4   2 1312.57   41.60
   1   4   2 1236.78   41.10
  -1   4  -2 1259.57   41.00
  -1   4  -2 1262.57   41.80
  -1   4  -2 1243.48   40.90
   1   4   2 1281.67   41.00
  -1   4  -2 1294.07   41.60
   2  -4   2 1142.29   38.20
  -2  -4  -2 1140.19   37.90
  -2  -4  -2 1176.08   38.60
  -2  -4  -2 1108.99   38.60
   2  -4   2 1176.98   37.60
   2  -4   2 1136.69   37.90
   2  -4   2 1174.88   37.90
   2  -4   2 1163.38   38.50
  -2  -4  -2 1177.88   38.60
   2   4   2 1164.48   37.60
   2   4   2 1179.98   38.50
  -2   4  -2 1141.39   37.40
  -2   4  -2 1159.08   38.50
  -2   4  -2 1191.18   38.30
   2   4   2 1152.48   38.00
  -2   4  -2 1180.88   37.50
   2   4   2 1154.88   37.60
   3  -4   2   35.80    1.70
   3  -4   2   31.50    3.40
  -3  -4  -2   30.80    3.80
   3  -4   2   33.00    3.30
   3  -4   2   32.90    4.00
  -3  -4  -2   32.70    3.90
  -3  -4  -2   28.70    3.70
   3  -4   2   37.40    2.90
   3  -4   2   36.70    2.90
  -3  -4  -2   32.30    3.20
   3   4   2   29.80    3.00
   3   4   2   34.10    2.60
   3   4   2   33.50    2.50
   3   4   2   36.80    3.80
   3   4   2   38.10    5.50
  -3   4  -2   30.60    4.10
   3   4   2   30.50    4.60
  -3   4  -2   35.00    2.00
  -3   4  -2   34.50    1.80
   3   4   2   36.00    2.10
   3   4   2   32.30    2.30
   4  -4   2  187.28    7.60
   4  -4   2  198.68    7.40
  -4  -4  -2  178.18    7.50
   4  -4   2  182.18    8.50
   4  -4   2  190.28    7.60
   4  -4   2  175.58    9.80
  -4  -4  -2  179.88    7.80
  -4  -4  -2  186.58    7.40
   4  -4   2  197.98    8.10
  -4  -4  -2  202.38    8.40
  -4  -4  -2  186.68    8.10
  -4   4  -2  193.48    6.90
  -4   4  -2  180.58    7.30
   4   4   2  193.58    7.30
   4   4   2  188.58    7.00
   4   4   2  190.98    8.30
   4   4   2  185.98    7.50
   4   4   2  194.28    7.00
   4   4   2  186.28    7.50
   4   4   2  196.58    7.60
  -4   4  -2  203.88    6.90
  -5  -4  -2  620.74   21.00
   5  -4   2  613.34   21.00
   5  -4   2  635.44   22.00
  -5  -4  -2  638.14   21.90
  -5  -4  -2  625.74   21.80
   5  -4   2  610.84   21.50
   5  -4   2  608.34   20.80
  -5  -4  -2  643.44   22.00
   5  -4   2  620.04   21.60
  -5  -4  -2  611.34   20.90
   5   4   2  643.14   21.30
  -5   4  -2  609.44   20.90
  -5   4  -2  620.64   20.60
   5   4   2  597.04   21.00
   5   4   2  603.74   20.50
  -5   4  -2  610.64   20.50
   5   4   2  614.64   21.50
   5   4   2  632.94   21.10
   5   4   2  598.04   21.20
  -6  -4  -2  959.70   31.40
   6  -4   2  898.91   30.50
   6  -4   2  907.11   31.60
   6  -4   2  925.91   30.80
   6  -4   2  955.00   31.40
  -6  -4  -2  960.60   31.60
  -6  -4  -2  934.91   30.70
  -6  -4  -2  887.11   31.30
  -6  -4  -2  912.21   31.90
   6   4   2  871.41   30.70
   6   4   2  914.11   30.80
  -6   4  -2  948.31   30.40
   6   4   2  922.51   31.10
   6   4   2  947.61   30.90
  -6   4  -2  913.01   30.50
  -6   4  -2  931.71   30.70
   6   4   2  949.71   31.30
  -7  -4  -2   88.29    4.80
  -7  -4  -2   80.69    6.50
   7  -4   2   86.69    4.70
   7  -4   2   82.89    3.90
  -7  -4  -2   85.59    4.90
   7  -4   2   78.39    4.50
   7  -4   2   79.39    5.10
  -7  -4  -2   84.79    4.20
  -7  -4  -2   86.29    5.30
  -7   4  -2   89.89    3.90
   7   4   2   85.89    4.30
   7   4   2   85.49    4.20
  -7   4  -2   88.49    3.90
  -7   4  -2   87.39    4.20
   7   4   2   82.69    4.60
   8  -4   2   15.60    2.20
  -8  -4  -2   14.40    2.20
   8  -4   2   18.10    2.50
  -8   4  -2   17.20    2.00
  -8   4  -2   14.40    2.40
   8   4   2   10.70    1.50
  -8   4  -2   14.40    1.90
  -9  -4  -2   40.80    2.60
  -9   4  -2   42.90    2.20
   9   4   2   38.10    2.20
   9  -5  -2    1.90    1.10
   9  -5  -2    1.70    1.20
  -8  -5   2   79.49    4.20
   8  -5  -2   80.49    3.80
  -8  -5   2   80.39    4.20
   8  -5  -2   80.79    4.50
   8   5  -2   78.29    4.60
  -8   5   2   70.29    4.10
   8   5  -2   83.59    3.90
  -7  -5   2  371.86   13.30
   7  -5  -2  363.76   14.30
  -7  -5   2  346.97   16.10
  -7  -5   2  386.76   13.50
  -7  -5   2  388.56   14.00
   7  -5  -2  381.06   13.50
   7   5  -2  380.46   14.90
   7   5  -2  389.76   13.60
  -7   5   2  374.66   13.00
   7   5  -2  380.46   13.90
   7   5  -2  392.06   13.50
  -6  -5   2   54.09    4.50
   6  -5  -2   52.89    4.60
  -6  -5   2   49.40    3.70
  -6  -5   2   49.70    6.20
  -6  -5   2   53.39    3.40
  -6  -5   2   51.69    3.80
   6  -5  -2   48.20    3.50
  -6  -5   2   49.60    6.30
   6  -5  -2   48.20    3.90
   6   5  -2   52.19    3.80
   6   5  -2   49.80    3.60
   6   5  -2   54.29    6.20
   6   5  -2   45.80    3.90
  -6   5   2   51.89    2.60
  -5  -5   2  480.35   17.50
  -5  -5   2  499.65   18.50
  -5  -5   2  504.65   17.40
  -5  -5   2  470.95   18.00
   5  -5  -2  503.15   17.20
  -5  -5   2  518.95   17.50
  -5  -5   2  496.45   18.10
   5  -5  -2  498.95   17.30
   5  -5  -2  532.75   18.40
  -5   5   2  511.05   16.40
   5   5  -2  496.15   17.00
   5   5  -2  466.85   19.10
   5   5  -2  491.85   17.40
   5   5  -2  507.35   17.50
   5   5  -2  478.65   17.70
   5   5  -2  497.35   17.30
   4  -5  -2   59.69    3.60
  -4  -5   2   63.89    4.00
   4  -5  -2   56.19    4.30
   4  -5  -2   62.79    4.60
  -4  -5   2   61.69    4.50
  -4  -5   2   55.99    4.70
   4  -5  -2   48.50    5.30
  -4  -5   2   59.49    4.80
  -4  -5   2   58.59    3.50
  -4  -5   2   61.09    3.60
   4   5  -2   64.29    3.50
   4   5  -2   61.89    4.20
   4   5  -2   66.29    4.40
  -4   5   2   61.39    2.60
   4   5  -2   56.89    3.70
   4   5  -2   67.09    3.70
  -3  -5   2   96.69    5.60
   3  -5  -2  108.69    5.00
   3  -5  -2   96.89    5.80
  -3  -5   2   98.09    4.60
  -3  -5   2   98.79    4.90
   3  -5  -2  109.99    5.20
  -3  -5   2  101.59    4.70
   3  -5  -2  102.19    6.40
  -3  -5   2  106.09    5.70
   3  -5  -2  106.19    5.70
   3  -5  -2  107.59    4.90
  -3  -5   2  104.69    5.30
   3   5  -2  102.79    4.20
   3   5  -2  108.09    4.80
   3   5  -2  100.89    4.80
  -3   5   2  108.29    3.90
   3   5  -2  103.69    4.90
   3   5  -2  103.79    4.40
   3   5  -2   94.29    6.20
  -2  -5   2  415.16   15.50
   2  -5  -2  426.36   15.10
   2  -5  -2  431.06   14.90
  -2  -5   2  432.76   15.10
  -2  -5   2  424.96   15.20
  -2  -5   2  454.15   14.70
   2  -5  -2  413.46   15.20
   2  -5  -2  421.46   15.00
   2  -5  -2  411.06   15.80
  -2  -5   2  445.66   14.70
  -2   5   2  429.16   14.10
   2   5  -2  445.36   14.30
   2   5  -2  415.36   14.90
   2   5  -2  440.36   16.40
   2   5  -2  423.56   15.90
   2   5  -2  442.16   14.30
   2   5  -2  414.36   14.50
  -2   5   2  376.46   14.20
   2   5  -2  450.65   15.10
   2   5  -2  438.96   14.90
  -1  -5   2  221.28    8.00
  -1  -5   2  216.18    8.20
   1  -5  -2  207.78    8.50
  -1  -5   2  199.78    9.10
  -1  -5   2  203.98    8.70
  -1  -5   2  207.28    8.40
   1  -5  -2  197.38    8.00
   1  -5  -2  219.48    8.70
   1  -5  -2  196.98    8.20
  -1  -5   2  212.88    7.80
   1   5  -2  215.98    7.30
  -1   5   2  195.18    7.70
   1   5  -2  209.38    7.60
   1   5  -2  214.68    7.90
  -1   5   2  207.88    7.70
   1   5  -2  220.08    8.90
  -1   5   2  216.48    7.60
   1   5  -2  213.88    8.80
  -1   5   2  213.58    7.20
   1   5  -2  201.48    7.70
   1   5  -2  201.28    8.10
   0  -5  -2 1032.20   33.10
   0  -5  -2  962.30   33.30
   0  -5   2  996.80   33.30
   0  -5   2 1084.69   33.40
   0  -5  -2  972.60   33.20
   0  -5  -2 1081.19   33.90
   0  -5  -2 1014.80   32.80
   0  -5  -2  918.71   34.30
   0  -5   2 1024.00   32.90
   0  -5   2 1003.30   33.40
   0  -5   2 1010.00   33.00
   0   5  -2  966.30   32.90
   0   5   2 1004.40   32.40
   0   5  -2  975.90   32.40
   0   5   2 1042.90   32.60
   0   5   2  973.40   33.20
   0   5  -2  955.80   32.70
   0   5  -2 1029.10   33.40
   0   5   2  984.90   33.10
   0   5  -2 1019.90   33.60
   0   5  -2  872.31   33.20
   0   5  -2 1087.79   33.70
   1  -5   2  710.83   23.70
  -1  -5  -2  688.53   23.70
  -1  -5  -2  632.14   24.10
  -1  -5  -2  676.93   24.20
   1  -5   2  747.03   23.50
   1  -5   2  706.13   24.00
   1  -5   2  711.53   23.70
  -1  -5  -2  714.03   24.40
  -1  -5  -2  686.03   23.90
  -1  -5  -2  722.23   23.10
  -1  -5  -2  677.53   23.90
   1  -5   2  703.63   24.10
   1  -5   2  728.33   24.50
  -1   5  -2  717.43   23.50
  -1   5  -2  681.93   23.70
   1   5   2  709.23   23.50
   1   5   2  726.53   24.30
  -1   5  -2  784.92   25.20
  -1   5  -2  689.03   23.20
   1   5   2  735.83   24.10
  -1   5  -2  699.23   23.10
  -1   5  -2  733.63   24.40
   1   5   2  720.03   23.30
  -2  -5  -2   50.79    3.90
  -2  -5  -2   58.19    4.50
   2  -5   2   55.79    3.40
  -2  -5  -2   46.40    3.70
   2  -5   2   56.09    3.30
   2  -5   2   51.29    3.60
   2  -5   2   50.69    3.80
   2  -5   2   45.10    5.40
  -2  -5  -2   58.49    3.70
   2  -5   2   56.29    2.50
   2  -5   2   51.89    4.10
  -2  -5  -2   46.60    3.70
   2   5   2   54.09    2.70
   2   5   2   54.29    2.80
  -2   5  -2   55.69    4.60
  -2   5  -2   55.69    4.50
  -2   5  -2   56.69    2.60
  -2   5  -2   47.50    3.50
  -2   5  -2   52.59    2.40
   2   5   2   53.39    3.60
   2   5   2   55.49    3.20
   2   5   2   53.49    3.40
   3  -5   2  250.37    9.80
   3  -5   2  237.68    9.30
  -3  -5  -2  238.48    9.60
  -3  -5  -2  255.57    9.50
  -3  -5  -2  268.07    9.70
  -3  -5  -2  253.07   10.00
   3  -5   2  241.18    9.90
  -3  -5  -2  248.98   10.20
   3  -5   2  254.57    9.20
   3  -5   2  254.97    9.30
   3   5   2  230.28    9.50
   3   5   2  263.17    9.70
  -3   5  -2  261.97    8.70
   3   5   2  253.27    9.40
   3   5   2  253.87   10.70
   3   5   2  252.67    8.90
   3   5   2  247.38    9.10
  -3   5  -2  239.68    9.20
   3   5   2  255.47    9.00
  -3   5  -2  208.68   11.60
   4  -5   2   47.80    3.90
  -4  -5  -2   47.50    4.20
  -4  -5  -2   56.19    4.00
   4  -5   2   53.69    3.30
   4  -5   2   49.20    4.60
   4  -5   2   45.30    4.40
   4  -5   2   45.60    3.50
  -4  -5  -2   52.99    3.70
   4  -5   2   44.10    3.40
  -4  -5  -2   44.70    4.20
   4   5   2   50.59    3.40
  -4   5  -2   48.80    2.70
  -4   5  -2   51.69    2.50
   4   5   2   46.60    3.10
   4   5   2   45.80    3.60
   4   5   2   46.90    3.70
   4   5   2   47.90    2.90
   4   5   2   46.20    3.30
   4   5   2   47.50    2.80
   4   5   2   50.59    4.90
  -4   5  -2   48.80    3.40
   5  -5   2  195.38    7.60
   5  -5   2  193.38    8.90
   5  -5   2  196.98    8.40
  -5  -5  -2  200.78    8.70
   5  -5   2  195.38    7.90
   5  -5   2  188.98    8.40
  -5  -5  -2  184.48    8.50
  -5  -5  -2  200.68    8.40
  -5  -5  -2  197.18    8.60
   5   5   2  192.88    7.30
   5   5   2  200.68    7.80
  -5   5  -2  195.48    7.60
   5   5   2  209.18    8.10
   5   5   2  196.08    8.70
  -5   5  -2  205.48    7.40
  -5   5  -2  201.18    7.30
   5   5   2  185.78    8.00
   5   5   2  198.38    7.90
   6  -5   2  204.38    8.90
   6  -5   2  208.58    8.60
  -6  -5  -2  191.08    8.60
   6  -5   2  196.88    7.60
  -6  -5  -2  192.88    9.00
   6  -5   2  208.68    8.20
  -6  -5  -2  214.28    8.60
  -6  -5  -2  206.68    8.60
   6   5   2  196.18    8.00
  -6   5  -2  213.88    7.60
   6   5   2  204.48    8.00
  -6   5  -2  206.18    7.90
  -6   5  -2  212.18    7.60
   6   5   2  204.48    8.00
   6   5   2  207.78    8.30
  -7  -5  -2    8.80    2.00
   7  -5   2    8.90    1.90
   7  -5   2    7.90    1.90
  -7  -5  -2    8.70    1.80
  -7  -5  -2    9.80    2.10
   7  -5   2    7.20    1.80
   7   5   2   13.40    2.10
  -7   5  -2    7.60    1.40
  -7   5  -2   14.30    1.90
   7   5   2   10.30    1.50
  -7   5  -2   12.40    1.70
   7   5   2   10.90    2.00
   8  -5   2   65.19    4.90
  -8  -5  -2   72.69    3.60
   8  -5   2   73.59    4.50
  -8  -5  -2   90.99    6.00
   8   5   2   74.19    4.80
  -8   5  -2   82.99    4.10
  -8   5  -2   79.49    3.40
   8   5   2   84.99    4.10
  -8   5  -2   76.79    3.40
   8   5   2   77.09    4.30
   8  -6  -2    2.90    1.10
  -8  -6   2    5.20    1.80
  -8  -6   2    3.20    2.10
   8  -6  -2    2.20    1.30
   8   6  -2    9.90    2.00
   8   6  -2    6.20    1.50
   7  -6  -2  157.48    7.00
   7  -6  -2  157.38    6.20
  -7  -6   2  148.59    6.60
   7   6  -2  151.58    6.70
   7   6  -2  161.88    6.30
  -7   6   2  153.98    5.90
  -7   6   2  147.49    6.10
   6  -6  -2  322.47   11.70
  -6  -6   2  327.57   12.50
   6  -6  -2  360.26   12.90
  -6  -6   2  311.07   13.40
  -6  -6   2  307.17   11.60
  -6  -6   2  335.47   12.80
   6   6  -2  326.47   11.90
   6   6  -2  315.57   12.20
  -6   6   2  299.47   11.90
  -6   6   2  325.67   11.00
  -5  -6   2  179.38    8.40
   5  -6  -2  185.58    7.50
   5  -6  -2  179.48    8.50
  -5  -6   2  184.38    8.40
   5  -6  -2  176.88    7.30
  -5  -6   2  174.28    8.80
   5   6  -2  179.78    7.50
   5   6  -2  191.28    7.60
   5   6  -2  187.98    7.70
   5   6  -2  177.68    7.80
  -5   6   2  181.58    6.50
   4  -6  -2  176.68    7.50
  -4  -6   2  196.08    8.40
  -4  -6   2  186.78    7.60
  -4  -6   2  189.48    8.50
   4  -6  -2  187.58    8.50
  -4  -6   2  190.48    8.60
   4  -6  -2  191.68    7.60
   4  -6  -2  187.08    8.30
   4   6  -2  191.68    7.70
   4   6  -2  188.28    8.30
   4   6  -2  192.38    7.70
   4   6  -2  191.18    7.60
   4   6  -2  178.48    6.90
   4   6  -2  184.58    7.90
   3  -6  -2   17.00    2.70
  -3  -6   2   19.70    3.50
  -3  -6   2   22.10    3.20
  -3  -6   2   15.30    2.30
   3  -6  -2   18.80    2.50
   3  -6  -2   21.00    3.00
  -3  -6   2   18.90    3.20
   3  -6  -2   25.70    3.50
   3  -6  -2   12.40    2.40
  -3  -6   2   17.80    3.10
  -3   6   2   21.40    1.50
   3   6  -2   22.40    2.70
   3   6  -2   19.40    2.70
   3   6  -2   20.30    2.10
   3   6  -2   18.00    2.50
   3   6  -2   15.30    2.50
   3   6  -2   15.20    2.10
   2  -6  -2  936.91   31.60
   2  -6  -2  914.51   31.50
   2  -6  -2  966.30   32.20
  -2  -6   2  921.11   31.90
   2  -6  -2  955.20   31.50
   2  -6  -2 1019.30   31.90
  -2  -6   2  941.01   31.90
  -2  -6   2  932.61   31.70
  -2  -6   2  923.41   31.50
   2   6  -2  943.41   31.30
  -2   6   2  950.10   30.80
  -2   6   2  938.41   30.60
   2   6  -2  939.41   31.40
   2   6  -2  905.21   31.10
   2   6  -2  962.20   31.80
   2   6  -2  922.71   30.70
  -1  -6   2  260.77    9.80
   1  -6  -2  276.17   10.10
  -1  -6   2  256.57   10.20
  -1  -6   2  264.17    9.70
   1  -6  -2  267.27    9.40
  -1  -6   2  250.97    9.70
  -1  -6   2  248.58   10.20
   1  -6  -2  258.17   10.50
   1  -6  -2  262.37    9.70
   1  -6  -2  241.08    9.80
   1  -6  -2  230.28    9.70
  -1   6   2  254.57    9.10
  -1   6   2  261.57    8.90
   1   6  -2  261.97   12.00
   1   6  -2  263.57    9.00
   1   6  -2  258.47    9.60
   1   6  -2  257.27    9.70
   1   6  -2  260.47    9.10
   1   6  -2  248.58    9.20
   0  -6  -2  288.67   11.10
   0  -6   2  299.87   10.70
   0  -6   2  282.97   11.00
   0  -6  -2  283.27   10.40
   0  -6  -2  298.67   11.30
   0  -6  -2  289.67   10.60
   0  -6  -2  292.17   10.80
   0  -6   2  275.97   10.50
   0  -6   2  291.77   11.10
   0  -6   2  295.37   10.50
   0  -6  -2  276.97   10.90
   0   6   2  293.07   10.00
   0   6   2  262.67   10.90
   0   6   2  280.57   10.50
   0   6  -2  284.17   10.00
   0   6  -2  299.27   10.30
   0   6   2  299.07   10.20
   0   6  -2  296.67   11.30
  -1  -6  -2  354.26   13.00
  -1  -6  -2  350.96   12.90
  -1  -6  -2  367.26   13.50
   1  -6   2  377.46   13.40
   1  -6   2  374.46   12.50
   1  -6   2  359.56   13.20
  -1  -6  -2  370.66   13.70
  -1  -6  -2  354.06   13.10
   1  -6   2  364.66   13.20
   1  -6   2  358.86   12.90
   1  -6   2  358.06   12.90
  -1  -6  -2  355.86   13.40
   1   6   2  359.96   13.70
  -1   6  -2  383.56   14.10
   1   6   2  364.66   12.60
   1   6   2  348.57   12.90
  -1   6  -2  357.66   12.60
  -1   6  -2  351.86   12.40
   1   6   2  374.16   12.50
  -1   6  -2  362.16   12.90
  -1   6  -2  353.96   12.30
   1   6   2  375.56   13.00
   2  -6   2   12.50    2.10
   2  -6   2    9.70    1.80
  -2  -6  -2   11.30    2.60
   2  -6   2    9.60    2.20
  -2  -6  -2   10.30    1.80
  -2  -6  -2    5.80    1.70
   2  -6   2   11.10    2.30
   2  -6   2    7.10    2.10
  -2  -6  -2    6.90    2.30
   2   6   2   10.50    2.10
  -2   6  -2    8.80    1.50
  -2   6  -2    8.50    1.30
   2   6   2    6.10    2.10
  -2   6  -2   10.00    2.00
   2   6   2    5.70    1.40
   2   6   2    6.90    1.20
  -2   6  -2    7.10    3.20
  -2   6  -2   11.50    2.30
  -3  -6  -2   26.10    3.80
  -3  -6  -2   21.10    3.20
   3  -6   2   22.00    2.70
   3  -6   2   22.40    3.20
   3  -6   2   23.50    3.40
  -3  -6  -2   19.20    3.50
  -3  -6  -2   23.70    3.10
  -3  -6  -2   26.90    2.60
   3  -6   2   25.00    3.00
   3  -6   2   26.20    2.70
   3   6   2   26.80    2.20
   3   6   2   26.00    2.20
   3   6   2   23.50    3.50
   3   6   2   23.20    2.70
  -3   6  -2   27.10    2.80
   3   6   2   28.80    2.70
  -3   6  -2   25.90    1.80
   3   6   2   25.10    2.70
   4  -6   2   29.20    4.50
   4  -6   2   27.10    2.80
  -4  -6  -2   19.80    3.00
  -4  -6  -2   22.00    3.30
   4  -6   2   23.70    2.70
   4  -6   2   30.20    4.10
  -4  -6  -2   22.80    3.70
   4  -6   2   32.00    3.60
   4  -6   2   26.50    3.10
  -4  -6  -2   18.30    3.10
   4   6   2   23.70    2.90
   4   6   2   27.50    2.50
  -4   6  -2   26.60    2.10
  -4   6  -2   21.90    2.80
   4   6   2   27.20    2.90
   4   6   2   26.20    2.60
   4   6   2   27.20    2.20
   4   6   2   24.70    3.50
  -4   6  -2   23.20    1.80
   4   6   2   21.40    2.70
  -5  -6  -2  133.49    6.70
   5  -6   2  136.59    7.20
   5  -6   2  150.68    6.80
   5  -6   2  149.39    6.20
   5  -6   2  142.39    7.00
  -5  -6  -2  149.09    6.70
   5  -6   2  147.19    5.90
  -5  -6  -2  139.79    7.00
   5   6   2  145.49    6.40
   5   6   2  136.99    5.60
  -5   6  -2  149.49    5.60
  -5   6  -2  145.89    6.00
   5   6   2  137.39    6.10
  -5   6  -2  142.89    5.60
   5   6   2  139.89    6.30
   6  -6   2   73.99    4.20
  -6  -6  -2   85.29    4.70
   6  -6   2   79.59    5.00
   6  -6   2   87.09    4.90
  -6  -6  -2   80.09    5.40
  -6  -6  -2   79.79    4.40
  -6  -6  -2   78.19    4.50
   6   6   2   70.09    4.50
  -6   6  -2   76.79    3.80
   6   6   2   81.39    3.90
  -6   6  -2   75.29    3.50
   6   6   2   80.69    4.30
   6   6   2   75.59    4.10
  -6   6  -2   77.69    3.60
   7  -6   2    4.20    1.60
  -7  -6  -2    5.90    2.60
  -7  -6  -2    0.40    1.30
  -7  -6  -2    4.90    1.60
   7  -6   2    3.10    1.90
   7   6   2    3.00    1.70
  -7   6  -2    3.30    1.00
  -7   6  -2    2.20    1.10
   7   6   2    3.20    1.50
  -7   6  -2    1.90    1.20
   7   6   2    0.80    1.00
  -8  -6  -2   12.20    1.90
  -8   6  -2   13.30    1.60
   8  -7  -2   27.30    2.70
   8  -7  -2   33.20    2.10
   8   7  -2   32.60    2.20
  -7  -7   2   13.60    2.00
   7  -7  -2   15.40    1.90
  -7  -7   2   17.20    2.70
   7  -7  -2   12.10    2.40
  -7  -7   2   13.20    4.80
   7   7  -2   18.80    2.60
   7   7  -2   10.20    1.80
   6  -7  -2   19.50    2.50
   6  -7  -2   23.00    3.10
  -6  -7   2   20.50    3.00
  -6  -7   2   18.30    2.90
  -6  -7   2   13.50    3.60
   6  -7  -2   19.40    2.20
  -6  -7   2   16.30    2.60
   6   7  -2   19.60    2.40
  -6   7   2   21.70    2.20
  -6   7   2   19.50    2.70
   6   7  -2   17.90    2.70
   5  -7  -2  283.87   10.40
  -5  -7   2  276.47   11.10
   5  -7  -2  282.47   11.40
  -5  -7   2  287.87   11.10
  -5  -7   2  281.97   11.20
  -5  -7   2  273.47   11.60
   5  -7  -2  290.17   10.50
   5   7  -2  296.07   10.60
   5   7  -2  282.57   10.90
  -5   7   2  268.67    9.60
   5   7  -2  293.57   10.90
   5   7  -2  265.97   10.30
  -5   7   2  274.77    9.90
   4  -7  -2    4.40    1.70
   4  -7  -2    5.10    2.20
  -4  -7   2    7.60    2.40
   4  -7  -2    5.60    1.60
  -4  -7   2    4.00    2.60
   4  -7  -2    5.10    2.50
  -4  -7   2    8.90    2.40
  -4  -7   2    5.40    2.30
   4   7  -2   10.40    2.20
   4   7  -2    8.00    1.80
   4   7  -2    8.10    1.80
   4   7  -2    5.90    1.90
  -4   7   2    9.50    1.50
  -3  -7   2    4.10    1.90
   3  -7  -2    5.90    1.90
  -3  -7   2    4.60    2.40
   3  -7  -2    3.80    2.40
  -3  -7   2    6.20    2.40
   3  -7  -2    4.40    2.20
  -3  -7   2    6.40    2.10
   3  -7  -2    5.20    1.60
   3   7  -2    6.60    1.40
  -3   7   2    7.40    1.40
  -3   7   2    6.30    1.00
   3   7  -2    7.50    1.90
   3   7  -2    5.60    1.70
   3   7  -2    6.50    1.30
   3   7  -2    5.30    1.70
   3   7  -2    4.40    1.80
  -2  -7   2  453.15   17.00
   2  -7  -2  450.05   17.30
  -2  -7   2  467.75   16.60
   2  -7  -2  448.76   16.50
   2  -7  -2  462.15   16.50
   2  -7  -2  468.55   16.50
   2  -7  -2  446.36   16.20
  -2  -7   2  465.65   16.60
  -2  -7   2  478.65   17.10
  -2   7   2  474.65   15.80
   2   7  -2  462.65   15.70
   2   7  -2  467.75   16.30
   2   7  -2  469.75   15.90
   2   7  -2  463.85   16.30
   2   7  -2  456.15   15.70
   2   7  -2  475.75   17.00
  -2   7   2  483.65   15.60
   2   7  -2  472.55   16.50
   1  -7  -2  707.53   23.50
  -1  -7   2  681.13   23.10
   1  -7  -2  717.23   23.90
   1  -7  -2  647.74   23.30
   1  -7  -2  695.83   23.50
   1  -7  -2  679.63   22.60
  -1  -7   2  673.33   23.60
  -1  -7   2  674.23   23.30
   1  -7  -2  641.94   24.20
   1  -7  -2  686.63   23.10
  -1  -7   2  674.83   23.00
  -1  -7   2  664.93   23.70
   1   7  -2  687.23   23.90
   1   7  -2  573.64   23.60
   1   7  -2  677.83   23.20
   1   7  -2  711.03   23.20
  -1   7   2  705.43   22.70
   1   7  -2  710.73   22.80
  -1   7   2  714.83   22.70
  -1   7   2  702.33   25.30
   1   7  -2  659.43   22.60
   0  -7  -2  348.57   13.60
   0  -7   2  357.16   13.60
   0  -7   2  367.36   12.60
   0  -7  -2  347.77   13.30
   0  -7   2  363.96   13.10
   0  -7  -2  365.36   13.00
   0  -7  -2  350.86   12.70
   0  -7   2  373.66   13.00
   0  -7  -2  360.46   13.50
   0  -7   2  357.56   13.40
   0  -7  -2  353.66   13.20
   0   7  -2  371.66   14.20
   0   7   2  357.06   12.90
   0   7   2  364.76   12.60
   0   7  -2  344.47   12.90
   0   7   2  344.17   12.90
   0   7   2  375.86   12.50
   0   7  -2  373.26   12.50
   0   7  -2  370.76   12.70
   0   7  -2  360.76   12.70
   1  -7   2   52.59    4.00
  -1  -7  -2   57.49    3.80
   1  -7   2   57.69    3.80
   1  -7   2   50.39    4.10
  -1  -7  -2   58.99    4.40
  -1  -7  -2   55.09    3.80
  -1  -7  -2   56.19    4.40
   1  -7   2   57.39    3.60
  -1  -7  -2   59.39    3.80
   1  -7   2   50.99    4.00
   1   7   2   57.09    2.90
  -1   7  -2   45.10    5.90
  -1   7  -2   62.09    2.90
   1   7   2   58.59    3.70
   1   7   2   57.89    3.70
  -1   7  -2   54.79    2.90
  -1   7  -2   56.89    3.40
  -1   7  -2   57.49    3.70
   1   7   2   58.39    3.70
   1   7   2   60.49    3.10
   2  -7   2    4.40    1.80
  -2  -7  -2    2.00    2.30
  -2  -7  -2    7.10    2.40
  -2  -7  -2    4.70    1.50
   2  -7   2    5.30    1.70
   2  -7   2    8.30    2.20
   2  -7   2    5.90    1.60
  -2  -7  -2    6.60    2.20
  -2  -7  -2    4.70    1.60
   2  -7   2    5.50    2.00
   2   7   2    5.10    1.50
   2   7   2    7.30    1.20
  -2   7  -2    4.50    1.50
  -2   7  -2    4.70    2.10
   2   7   2    2.90    1.10
   2   7   2    4.50    2.80
   2   7   2    7.00    1.60
   2   7   2    3.10    1.30
  -2   7  -2    4.00    0.90
   3  -7   2   26.20    3.50
  -3  -7  -2   30.70    3.90
   3  -7   2   28.30    3.10
  -3  -7  -2   29.30    3.30
   3  -7   2   29.00    2.80
  -3  -7  -2   26.80    3.30
   3  -7   2   30.90    2.90
  -3  -7  -2   27.50    3.60
  -3   7  -2   31.40    2.30
   3   7   2   26.40    2.30
  -3   7  -2   28.70    2.80
   3   7   2   23.80    2.90
   3   7   2   30.40    2.80
   3   7   2   31.40    2.80
   3   7   2   28.30    2.30
   3   7   2   25.30    4.40
  -3   7  -2   26.90    1.90
   4  -7   2  158.18    6.30
   4  -7   2  162.68    6.70
  -4  -7  -2  163.08    7.60
  -4  -7  -2  155.38    7.00
   4  -7   2  159.58    7.30
  -4  -7  -2  174.88    7.50
  -4  -7  -2  146.19    8.20
   4  -7   2  153.48    7.80
   4  -7   2  172.08    6.90
   4   7   2  151.68    6.60
  -4   7  -2  156.28    6.40
   4   7   2  153.48    6.50
   4   7   2  181.58    8.70
   4   7   2  154.58    6.10
  -4   7  -2  160.28    6.10
   4   7   2  156.58    6.20
  -4   7  -2  159.08    6.10
   4   7   2  157.68    6.90
   5  -7   2  285.57   10.10
  -5  -7  -2  265.17   10.90
  -5  -7  -2  290.37   11.00
   5  -7   2  292.47   10.70
   5  -7   2  298.67   11.20
   5  -7   2  291.27   11.70
  -5  -7  -2  295.67   11.40
  -5  -7  -2  312.27   11.20
  -5   7  -2  303.57   10.40
   5   7   2  288.47   10.00
  -5   7  -2  300.77   10.50
   5   7   2  280.57   11.40
   5   7   2  313.47   11.10
   5   7   2  301.97   10.80
  -5   7  -2  298.07   10.30
  -6  -7  -2   -0.10    1.20
   6  -7   2    3.90    1.70
   6  -7   2    1.50    1.50
  -6  -7  -2    0.00    1.80
  -6  -7  -2   -0.90    1.40
  -6   7  -2    0.00    0.90
   6   7   2    0.00    1.30
  -6   7  -2    0.60    1.00
   6   7   2    1.70    0.90
  -7  -7  -2   51.09    3.20
  -7  -7  -2   44.20    4.00
   7  -7   2   48.00    3.10
   7   7   2   46.70    3.40
  -7   7  -2   51.79    2.80
  -7   7  -2   54.39    2.50
   7   7   2   48.30    3.00
  -7  -8   2   -0.60    1.40
   7  -8  -2   -0.30    1.00
   7  -8  -2    1.90    1.50
   7   8  -2    0.50    1.00
  -6  -8   2   51.99    3.80
   6  -8  -2   49.10    2.90
   6  -8  -2   47.20    2.80
  -6  -8   2   51.59    3.50
   6  -8  -2   51.19    3.50
  -6  -8   2   52.79    3.20
   6   8  -2   52.59    2.90
   6   8  -2   56.39    3.70
  -5  -8   2    8.10    1.90
  -5  -8   2   13.30    2.20
   5  -8  -2   13.30    2.10
   5  -8  -2    7.40    2.00
  -5  -8   2    7.30    4.40
   5  -8  -2   12.60    2.00
   5   8  -2    9.20    1.60
   5   8  -2    6.90    1.80
   5   8  -2    5.80    1.50
  -5   8   2    7.90    1.30
  -5   8   2   11.30    1.60
  -4  -8   2   69.49    5.40
   4  -8  -2   72.89    4.90
   4  -8  -2   73.39    4.30
   4  -8  -2   73.19    4.30
   4  -8  -2   87.09    7.40
   4   8  -2   68.39    4.70
  -4   8   2   67.99    3.40
  -4   8   2   67.59    3.20
   4   8  -2   70.29    4.30
  -3  -8   2   31.60    4.40
   3  -8  -2   36.50    4.50
   3  -8  -2   35.90    3.20
   3  -8  -2   28.60    2.70
  -3  -8   2   31.20    3.70
   3  -8  -2   29.50    3.50
  -3  -8   2   29.60    3.50
  -3  -8   2   23.10    3.90
   3   8  -2   33.50    3.30
   3   8  -2   31.60    2.90
  -3   8   2   29.30    2.00
   3   8  -2   32.40    2.40
  -3   8   2   29.10    2.30
   3   8  -2   30.50    3.00
   3   8  -2   28.50    4.30
   2  -8  -2   98.19    5.00
   2  -8  -2   95.59    5.00
   2  -8  -2   93.29    5.00
  -2  -8   2   86.99    5.50
  -2  -8   2   95.09    5.40
  -2  -8   2   89.29    5.10
   2  -8  -2   92.09    4.60
   2  -8  -2   93.89    6.20
  -2  -8   2   90.29    5.10
   2   8  -2   90.19    5.20
   2   8  -2   84.99    4.80
  -2   8   2   93.49    3.90
   2   8  -2   84.19    5.80
   2   8  -2   90.09    4.00
  -2   8   2   78.59    5.10
   2   8  -2   89.49    4.30
  -2   8   2   95.69    4.10
   2   8  -2   87.89    4.60
   2   8  -2   88.39    4.10
  -1  -8   2  611.44   21.20
  -1  -8   2  627.44   21.90
   1  -8  -2  638.84   21.70
  -1  -8   2  569.54   20.60
  -1  -8   2  624.54   21.50
  -1  -8   2  607.14   21.90
   1  -8  -2  652.83   21.70
   1  -8  -2  634.04   20.70
   1  -8  -2  642.44   21.70
   1  -8  -2  640.74   21.40
  -1   8   2  622.84   21.00
   1   8  -2  621.94   20.80
   1   8  -2  589.74   22.40
  -1   8   2  628.24   21.20
   1   8  -2  632.64   21.00
   1   8  -2  594.64   20.90
  -1   8   2  633.24   20.80
   1   8  -2  639.44   21.40
   0  -8   2  407.76   15.50
   0  -8   2  399.76   14.90
   0  -8   2  435.86   15.50
   0  -8   2  411.36   15.20
   0  -8   2  437.06   15.10
   0  -8  -2  417.96   15.20
   0  -8  -2  428.96   15.60
   0  -8  -2  415.16   14.90
   0  -8  -2  418.46   14.70
   0   8  -2  403.06   16.50
   0   8   2  421.16   14.50
   0   8  -2  432.06   14.50
   0   8   2  422.96   14.90
   0   8  -2  441.06   15.10
   0   8  -2  447.76   14.80
   0   8   2  428.16   14.60
   0   8  -2  423.76   14.50
  -1  -8  -2   69.49    4.00
  -1  -8  -2   66.29    3.90
   1  -8   2   61.69    3.90
  -1  -8  -2   70.09    4.20
   1  -8   2   67.99    4.00
  -1  -8  -2   64.99    4.60
  -1  -8  -2   61.79    4.30
   1  -8   2   64.79    4.50
   1  -8   2   62.49    4.20
   1  -8   2   65.59    4.20
  -1   8  -2   92.39   11.80
   1   8   2   67.39    3.30
  -1   8  -2   65.69    3.20
  -1   8  -2   65.39    4.10
  -1   8  -2   67.29    3.70
   1   8   2   60.39    3.90
   1   8   2   68.89    3.90
   2  -8   2    7.00    1.70
  -2  -8  -2    4.00    1.60
   2  -8   2    6.50    1.80
  -2  -8  -2    3.10    2.10
   2  -8   2   11.10    2.20
   2  -8   2    7.10    2.10
   2  -8   2    6.40    1.90
  -2  -8  -2    5.80    2.00
  -2  -8  -2    9.20    1.90
   2   8   2    4.90    1.30
  -2   8  -2    8.10    2.10
   2   8   2    6.90    1.20
   2   8   2    6.40    1.20
  -2   8  -2    5.60    1.40
   2   8   2    8.90    1.90
   2   8   2    7.90    1.60
  -3  -8  -2   41.90    3.70
   3  -8   2   43.70    3.30
   3  -8   2   41.80    4.40
   3  -8   2   42.50    3.80
   3  -8   2   42.50    3.30
  -3  -8  -2   41.00    3.40
   3  -8   2   42.90    3.00
  -3  -8  -2   40.70    3.80
   3   8   2   42.40    3.30
   3   8   2   41.00    2.50
   3   8   2   40.40    3.10
   3   8   2   45.50    2.90
  -3   8  -2   40.50    2.50
  -3   8  -2   43.70    2.50
  -3   8  -2   45.90    3.00
   3   8   2   34.60    5.80
   3   8   2   44.60    2.90
   4  -8   2  154.18    7.40
   4  -8   2  152.38    6.30
   4  -8   2  156.98    6.00
   4  -8   2  155.18    6.70
  -4  -8  -2  157.68    6.60
  -4  -8  -2  154.38    6.70
  -4  -8  -2  157.28    7.00
   4  -8   2  152.78    6.40
  -4   8  -2  158.78    5.90
  -4   8  -2  150.18    5.90
   4   8   2  134.99    7.70
   4   8   2  167.78    6.30
   4   8   2  153.38    5.90
   4   8   2  159.78    5.90
   4   8   2  167.68    6.70
  -4   8  -2  157.78    6.10
  -5  -8  -2  202.88    7.60
   5  -8   2  192.28    8.20
   5  -8   2  199.48    7.40
  -5  -8  -2  199.48    7.80
  -5  -8  -2  202.88    7.60
  -5   8  -2  196.38    7.10
  -5   8  -2  189.88    7.20
   5   8   2  201.28    7.80
   5   8   2  196.88    7.40
  -5   8  -2  201.68    7.20
   5   8   2  187.68    7.30
  -6  -8  -2   31.00    2.40
   6  -8   2   33.40    2.70
  -6  -8  -2   25.40    2.10
  -6   8  -2   33.00    2.10
  -6   8  -2   31.50    2.00
   6   8   2   31.20    2.10
   6   8   2   35.60    2.80
   6  -9  -2   25.80    4.20
  -6  -9   2   17.90    2.10
  -6  -9   2   24.00    2.70
   6  -9  -2   22.90    1.80
   6   9  -2   22.80    2.00
  -5  -9   2   13.40    2.40
   5  -9  -2   16.90    1.90
   5  -9  -2   18.00    1.80
   5  -9  -2   17.80    3.40
  -5  -9   2   21.00    2.30
  -5  -9   2   17.00    2.50
   5   9  -2   16.20    2.30
   5   9  -2   16.20    2.10
   5   9  -2   21.60    3.20
  -5   9   2   15.10    2.30
  -4  -9   2   31.20    3.40
  -4  -9   2   33.10    2.90
   4  -9  -2   28.30    2.40
   4  -9  -2   30.80    3.80
  -4  -9   2   29.30    2.80
   4  -9  -2   35.70    2.60
   4   9  -2   36.10    2.60
  -4   9   2   40.50    3.40
  -4   9   2   32.10    2.20
   4   9  -2   30.70    2.30
   4   9  -2   31.00    4.10
  -3  -9   2   36.20    3.20
   3  -9  -2   36.20    4.20
  -3  -9   2   38.80    3.10
   3  -9  -2   39.20    2.80
  -3  -9   2   34.60    3.60
   3  -9  -2   34.40    3.20
   3  -9  -2   35.10    2.70
   3   9  -2   34.50    2.30
   3   9  -2   33.90    3.90
   3   9  -2   36.40    2.60
  -3   9   2   31.70    2.20
  -3   9   2   32.80    2.20
  -3   9   2   34.70    3.30
   3   9  -2   28.80    4.70
   3   9  -2   33.30    2.80
  -2  -9   2   25.20    3.50
  -2  -9   2   29.50    3.50
   2  -9  -2   24.10    2.80
  -2  -9   2   26.00    3.60
   2  -9  -2   25.50    2.90
   2  -9  -2   37.50    4.80
  -2   9   2   21.00    1.90
   2   9  -2   27.70    3.00
   2   9  -2   26.20    2.10
  -2   9   2   24.00    2.10
  -2   9   2   28.90    2.90
   2   9  -2   19.40    3.50
  -1  -9   2  135.89    6.00
   1  -9  -2  145.69    7.30
   1  -9  -2  150.18    8.00
   1  -9  -2  134.79    6.20
  -1  -9   2  132.99    6.30
   1  -9  -2  131.29    6.00
  -1   9   2  135.09    5.30
   1   9  -2  116.29    8.10
   1   9  -2  129.29    5.20
  -1   9   2  133.49    5.30
   1   9  -2  138.39    5.50
   1   9  -2  131.49    5.50
   1   9  -2  138.29    6.00
  -1   9   2  114.89    5.80
   0  -9   2    4.50    2.40
   0  -9   2    0.60    1.40
   0  -9  -2   -1.30    1.60
   0  -9  -2    0.70    2.10
   0  -9  -2   -0.20    1.30
   0  -9   2    0.90    2.70
   0  -9   2    2.00    1.60
   0   9  -2    7.20    4.50
   0   9  -2    1.00    1.00
   0   9   2    0.70    0.90
   0   9  -2    1.10    1.50
   0   9  -2    0.40    1.10
   0   9   2    1.80    1.00
   0   9  -2   -0.30    1.10
   1  -9   2  110.89    5.40
  -1  -9  -2  109.69    5.00
   1  -9   2   98.19    5.10
   1  -9   2  110.49    6.00
  -1   9  -2   99.09    4.90
   1   9   2  105.69    4.60
   1   9   2  108.79    4.50
  -1   9  -2  108.19    4.50
   2  -9   2   62.09    3.60
  -2  -9  -2   60.69    3.50
   2  -9   2   60.99    3.30
  -2  -9  -2   60.19    4.10
   2  -9   2   56.59    3.60
   2  -9   2   57.59    4.10
  -2   9  -2   65.59    3.20
  -2   9  -2   62.99    4.00
  -2   9  -2   62.59    3.00
   2   9   2   65.29    4.20
   2   9   2   62.19    3.20
   2   9   2   58.19    3.40
   2   9   2   62.79    3.10
  -2   9  -2   63.89    3.10
   2   9   2   63.09    3.50
   3  -9   2   39.30    3.60
   3  -9   2   36.50    2.60
   3  -9   2   30.20    2.80
  -3  -9  -2   35.40    2.70
   3  -9   2   34.90    2.90
   3  -9   2   35.10    3.10
  -3  -9  -2   33.70    3.30
   3   9   2   35.70    3.20
   3   9   2   33.60    3.50
   3   9   2   37.00    2.20
  -3   9  -2   38.20    2.20
  -3   9  -2   38.10    2.40
   3   9   2   39.90    2.60
   3   9   2   36.30    2.30
  -3   9  -2   36.20    2.40
   4  -9   2   36.10    3.10
   4  -9   2   27.80    2.80
   4  -9   2   31.60    2.80
  -4  -9  -2   31.10    2.80
  -4  -9  -2   34.40    2.40
  -4   9  -2   26.90    2.30
   4   9   2   29.50    2.10
   4   9   2   33.00    2.20
   4   9   2   30.90    3.20
  -4   9  -2   28.40    2.00
   4   9   2   29.90    1.90
  -4   9  -2   31.30    1.90
   5  -9   2   79.99    4.00
  -5  -9  -2   76.89    3.40
  -5  -9  -2   74.79    4.70
  -5   9  -2   72.19    3.20
   5   9   2   73.69    4.10
  -5   9  -2   78.39    3.40
   5   9   2   80.29    3.50
  -5 -10   2   13.60    1.90
   5 -10  -2   16.20    1.60
  -4 -10   2    4.10    1.30
  -4 -10   2    4.50    2.40
  -4 -10   2    7.00    1.50
   4 -10  -2    3.20    1.00
   4 -10  -2    3.30    0.90
  -4  10   2    5.80    1.50
   4  10  -2    6.40    1.20
  -3 -10   2   31.80    2.50
  -3 -10   2   33.50    2.70
   3 -10  -2   34.60    2.40
   3 -10  -2   32.60    2.10
  -3 -10   2   33.50    3.70
  -3 -10   2   33.10    2.50
   3  10  -2   31.90    2.20
  -2 -10   2  105.59    4.90
  -2 -10   2  102.89    4.80
   2 -10  -2  116.09    4.80
  -2 -10   2  106.49    5.30
   2 -10  -2  114.69    4.60
  -2 -10   2  116.99    4.80
   2  10  -2  111.69    4.70
  -2  10   2  111.89    4.60
  -2  10   2  108.79    4.60
   2  10  -2  106.99    4.20
  -2  10   2  105.59    4.40
  -1 -10   2    4.20    1.40
   1 -10  -2    6.50    1.40
   1 -10  -2    3.00    1.10
  -1 -10   2    7.70    2.00
  -1 -10   2    4.70    1.50
  -1 -10   2    5.70    1.30
   1  10  -2    3.60    1.10
   1  10  -2    4.70    2.00
   1  10  -2    4.30    0.90
  -1  10   2    4.70    1.20
  -1  10   2    5.50    1.30
  -1  10   2    5.80    1.00
   0 -10  -2   24.60    2.30
   0 -10  -2   26.40    2.60
   0 -10   2   22.60    3.10
   0 -10   2   25.20    2.20
   0 -10  -2   25.30    2.50
   0 -10   2   22.70    2.30
   0 -10   2   23.40    2.60
   0  10   2   26.80    2.20
   0  10   2   26.00    2.10
   0  10  -2   26.30    2.30
   0  10   2   27.50    1.90
   0  10  -2   25.50    1.90
   0  10  -2   22.70    1.90
   0  10  -2   23.80    2.90
   1 -10   2   26.50    2.30
   1 -10   2   26.00    3.30
   1 -10   2   26.60    3.00
   1 -10   2   22.20    2.40
  -1 -10  -2   25.80    2.60
  -1 -10  -2   23.30    2.20
  -1 -10  -2   27.90    2.60
  -1  10  -2   24.90    1.90
  -1  10  -2   26.90    2.50
  -1  10  -2   26.80    1.90
   1  10   2   27.20    2.00
   1  10   2   29.30    2.40
   1  10   2   26.40    1.90
   2 -10   2   22.10    2.90
  -2 -10  -2   22.80    2.40
   2 -10   2   23.40    2.40
   2 -10   2   23.90    2.80
  -2 -10  -2   26.60    2.40
  -2 -10  -2   22.00    2.00
  -2  10  -2   24.00    2.40
   2  10   2   23.20    1.90
   2  10   2   21.00    1.70
  -2  10  -2   23.40    1.80
  -3 -10  -2   32.40    2.50
   3 -10   2   34.90    2.90
  -3 -10  -2   30.50    2.30
   3 -10   2   33.50    3.10
   3 -10   2   28.10    3.20
  -3 -10  -2   31.50    2.10
  -3  10  -2   28.60    1.90
  -3  10  -2   31.30    1.90
   3  10   2   34.00    2.10
   3  10   2   36.20    3.20
   3  10   2   31.10    1.80
  -4 -10  -2   26.90    2.00
   4 -10   2   21.70    2.30
  -4 -10  -2   27.60    2.10
  -4 -10  -2   21.20    1.70
   4  10   2   30.20    2.00
  -4  10  -2   27.10    1.60
   3 -11  -2   62.69    2.70
  -3 -11   2   62.29    3.00
   3  11  -2   58.09    2.70
   2 -11  -2  146.99    5.20
  -2 -11   2  134.89    5.00
   2 -11  -2  134.39    5.00
  -2 -11   2  131.49    5.10
  -2  11   2  144.79    5.00
   2  11  -2  133.79    5.10
  -1 -11   2   78.19    3.30
   1 -11  -2   86.29    3.80
   1 -11  -2   73.79    3.70
  -1  11   2   71.19    3.20
  -1  11   2   75.59    3.10
   1  11  -2   77.09    3.30
   0 -11   2   19.80    3.10
   0  11   2   23.10    2.00
   0  11  -2   21.80    1.60
   0  11   2   23.40    2.00
   0  11  -2   18.10    2.20
   0  11   2   22.40    1.80
   1 -11   2   13.50    1.90
  -1 -11  -2   14.80    1.60
   1  11   2   12.40    1.30
   1  11   2   11.20    1.60
  -1  11  -2   13.60    1.40
  -2 -11  -2   10.10    1.60
  -2  11  -2   10.20    1.40
   2  11   2   12.40    1.60
  10   0  -3    0.40    1.70
 -10   0   3    3.50    1.30
  -9   0   3   13.00    2.20
   9   0  -3   14.70    3.00
   9   0  -3   13.60    2.90
  -9   0   3   15.00    2.60
  -9   0   3   19.70    3.30
  -9   0   3   16.00    2.50
  -8   0   3  247.18    9.10
   8   0  -3  244.98   11.10
   8   0  -3  233.98   10.10
  -8   0   3  250.97    9.10
  -8   0   3  240.38    9.60
   8   0  -3  243.08   10.90
   7   0  -3   27.70    3.50
  -7   0   3   26.20    4.70
  -7   0   3   24.70    2.70
   7   0  -3   26.60    3.50
   7   0  -3   22.00    4.20
   7   0  -3   28.20    5.30
   7   0  -3   27.40    4.80
  -6   0   3   59.49    3.00
   6   0  -3   55.39    4.90
   6   0  -3   59.49    4.10
  -6   0   3   53.89    3.40
   6   0  -3   57.39    5.60
   6   0  -3   55.19    4.00
   6   0  -3   58.99    5.00
   6   0  -3   57.79    6.00
  -5   0   3   14.50    2.50
   5   0  -3   18.00    3.30
   5   0  -3   13.50    2.40
  -5   0   3   19.80    1.60
   5   0  -3   19.10    3.40
   5   0  -3   23.20    3.20
   5   0  -3   11.80    2.70
  -4   0   3  417.96   13.20
   4   0  -3  406.16   13.30
   4   0  -3  396.96   14.80
   4   0  -3  402.96   13.30
   4   0  -3  380.56   15.20
   4   0  -3  397.26   14.10
   3   0  -3 3768.32  123.59
  -3   0   3 3932.21  122.59
   2   0  -3 6859.61  230.18
  -2   0   3 6902.11  230.18
  -1   0   3  497.45   15.90
   1   0  -3  470.35   15.60
  -1   0   3  501.55   15.80
   1   0  -3  475.55   15.90
   0   0  -3   34.80    1.70
   0   0   3   34.70    1.80
   0   0  -3   34.20    1.70
   0   0   3   36.10    1.60
   0   0   3   33.70    1.70
   1   0   3  799.62   26.00
   1   0   3  799.62   26.20
  -1   0  -3  835.12   25.90
  -1   0  -3  787.82   26.30
  -1   0  -3  797.92   26.30
   1   0   3  803.32   26.30
   2   0   3  592.74   19.60
  -2   0  -3  597.14   19.30
  -2   0  -3  588.24   19.40
  -2   0  -3  571.54   19.80
  -2   0  -3  592.34   19.90
   2   0   3  603.94   19.90
   2   0   3  606.44   19.40
  -3   0  -3 3737.33  120.79
   3   0   3 3728.23  120.79
  -3   0  -3 3832.02  120.69
  -3   0  -3 3672.33  119.89
   3   0   3 3758.12  119.89
   3   0   3 3748.62  119.89
   3   0   3 3808.22  120.29
   4   0   3   46.80    3.40
   4   0   3   49.20    5.70
  -4   0  -3   43.40    3.30
   4   0   3   40.90    3.90
  -4   0  -3   42.20    2.30
  -4   0  -3   46.20    2.40
   4   0   3   38.00    3.80
  -4   0  -3   45.20    3.00
   4   0   3   49.20    3.80
   4   0   3   47.60    3.30
   5   0   3   -1.00    1.90
   5   0   3    0.70    1.60
  -5   0  -3    2.30    1.80
   5   0   3    0.40    2.80
  -5   0  -3    1.80    1.00
   5   0   3    2.00    1.40
  -5   0  -3    4.10    1.00
  -5   0  -3    4.40    1.40
  -5   0  -3    1.50    1.70
   5   0   3    2.00    1.10
   6   0   3   97.49    4.40
   6   0   3  102.99    5.20
   6   0   3   96.29    6.10
  -6   0  -3  101.49    4.90
  -6   0  -3  108.99    4.70
  -6   0  -3  102.49    5.40
   6   0   3   98.79    5.60
   6   0   3  104.29    5.00
  -6   0  -3  104.99    7.00
  -6   0  -3  107.89    4.60
   7   0   3   30.30    2.90
  -7   0  -3   26.40    2.80
  -7   0  -3   25.40    2.30
  -7   0  -3   24.70    4.70
  -7   0  -3   32.30    2.80
   7   0   3   25.90    2.90
   7   0   3   27.20    3.40
  -7   0  -3   24.00    3.10
  -8   0  -3    0.50    2.50
   8   0   3   -0.10    1.00
  -8   0  -3   -0.10    1.00
   8   0   3    1.20    1.50
  -8   0  -3    1.20    1.40
   8   0   3    1.40    1.30
  -8   0  -3    1.60    1.40
  -9   0  -3    0.90    1.30
   9   0   3   -0.70    1.70
 -10  -1   3   49.60    2.50
  10   1  -3   39.00    3.10
  -9  -1   3   18.50    2.60
   9  -1  -3   19.00    2.40
  -9  -1   3   16.10    2.10
   9  -1  -3   14.70    2.70
  -9  -1   3   11.70    1.70
  -9  -1   3   18.00    2.50
   9  -1  -3   16.20    3.30
   9   1  -3   12.40    2.10
   9   1  -3   16.20    3.00
  -9   1   3   17.50    2.90
  -9   1   3   16.70    2.30
  -9   1   3   18.50    2.70
  -8  -1   3   33.50    2.70
  -8  -1   3   31.20    3.60
   8  -1  -3   28.00    6.00
  -8  -1   3   33.40    2.70
  -8   1   3   34.00    2.80
   8   1  -3   37.90    4.90
  -8   1   3   33.60    2.70
   8   1  -3   40.20    5.50
  -8   1   3   35.50    4.30
   7  -1  -3  374.06   14.70
   7  -1  -3  383.56   15.60
  -7  -1   3  384.56   13.20
   7  -1  -3  372.96   13.60
   7  -1  -3  356.16   13.70
  -7  -1   3  386.36   13.40
  -7  -1   3  355.66   13.90
  -7   1   3  374.66   13.00
   7   1  -3  390.66   15.60
   7   1  -3  380.16   13.80
   7   1  -3  372.06   13.80
  -7   1   3  356.16   13.10
   7   1  -3  369.76   14.80
   6  -1  -3   23.80    3.90
   6  -1  -3   12.00    2.20
   6  -1  -3   15.00    2.30
  -6  -1   3   18.70    2.40
   6  -1  -3   16.10    3.90
  -6  -1   3   15.70    2.70
   6  -1  -3    8.80    2.80
   6   1  -3   10.90    2.40
   6   1  -3   15.80    2.90
   6   1  -3   18.30    2.70
   6   1  -3   13.40    2.60
   6   1  -3   10.60    2.90
  -6   1   3   16.20    1.70
   6   1  -3   15.80    2.50
  -6   1   3   21.80    2.80
  -5  -1   3  849.41   27.50
   5  -1  -3  832.52   27.90
   5  -1  -3  831.92   29.30
  -5  -1   3  831.82   27.30
   5  -1  -3  827.92   29.20
   5  -1  -3  849.02   27.70
   5  -1  -3  809.42   28.50
  -5   1   3  834.22   27.00
   5   1  -3  808.82   27.80
   5   1  -3  843.52   27.90
   5   1  -3  830.52   27.80
   5   1  -3  822.92   28.00
   5   1  -3  841.92   29.30
   5   1  -3  836.72   28.70
   4  -1  -3  335.47   12.60
  -4  -1   3  339.77   11.50
   4  -1  -3  341.07   13.40
  -4  -1   3  341.57   11.20
   4   1  -3  323.97   11.90
   4   1  -3  314.77   11.60
  -4   1   3  327.87   10.80
   4   1  -3  316.87   11.80
   4   1  -3  358.06   13.40
   4   1  -3  318.67   12.70
  -3  -1   3 3899.41  120.49
   3  -1  -3 3726.13  120.49
   3   1  -3 3649.33  120.19
  -1  -1   3 3940.11  125.79
   0  -1  -3  999.90   33.00
   0  -1  -3 1010.10   33.00
   0  -1   3 1014.80   33.30
   0  -1  -3 1030.50   33.20
   0  -1   3 1038.50   33.10
   0  -1   3 1016.00   33.20
   0   1  -3 1022.20   33.30
   0   1  -3 1060.29   33.30
   0   1   3 1014.90   33.20
   0   1   3 1063.09   33.20
   0   1   3 1026.40   33.00
   1  -1   3   46.70    2.30
  -1  -1  -3   46.50    2.30
   1  -1   3   52.89    2.30
  -1  -1  -3   44.30    2.20
   1  -1   3   46.00    2.10
  -1   1  -3   48.30    2.30
  -1   1  -3   48.10    2.40
   1   1   3   46.70    2.00
   1   1   3   49.30    2.30
   1   1   3   48.90    2.30
  -1   1  -3   50.69    2.00
  -2  -1  -3  522.45   17.00
  -2  -1  -3  478.65   16.60
   2  -1   3  478.95   16.20
   2  -1   3  487.45   16.70
   2  -1   3  511.55   16.50
  -2  -1  -3  504.35   16.80
  -2  -1  -3  463.75   16.20
   2  -1   3  504.65   16.40
  -2   1  -3  504.05   16.70
   2   1   3  511.95   16.80
   2   1   3  507.85   16.50
  -2   1  -3  422.46   16.20
  -2   1  -3  495.65   16.70
  -3  -1  -3 2125.19   67.29
  -3  -1  -3 2043.00   66.69
   3  -1   3 2099.39   66.89
   3  -1   3 2044.60   66.59
  -3  -1  -3 2019.90   67.49
   3  -1   3 2061.39   66.59
   3  -1   3 2070.19   67.49
  -3  -1  -3 2083.39   66.59
   3   1   3 2101.19   66.99
   3   1   3 2163.18   67.59
  -3   1  -3 2068.89   66.59
   3   1   3 2124.69   66.69
  -3   1  -3 2098.49   66.49
  -3   1  -3 1944.81   67.29
   3   1   3 2091.99   66.59
  -4  -1  -3  115.89    7.70
  -4  -1  -3  127.59    5.80
  -4  -1  -3  129.89    5.30
   4  -1   3  116.39    6.10
   4  -1   3  126.69    5.60
  -4  -1  -3  132.09    5.00
   4  -1   3  127.29    5.90
   4  -1   3  121.19    5.40
  -4  -1  -3  123.19    4.90
   4  -1   3  123.89    5.70
  -4  -1  -3  132.59    5.80
   4  -1   3  124.49    7.00
   4   1   3  119.19    6.10
  -4   1  -3  124.89    5.30
   4   1   3  123.59    5.40
   4   1   3  125.49    5.20
   4   1   3  113.29    7.20
   4   1   3  126.19    5.80
  -4   1  -3  131.19    6.00
   4   1   3  124.39    5.40
  -4   1  -3  138.79    4.90
   5  -1   3   36.30    3.20
  -5  -1  -3   38.90    2.60
   5  -1   3   35.80    2.50
  -5  -1  -3   39.00    3.40
  -5  -1  -3   35.10    3.80
  -5  -1  -3   35.10    2.90
   5  -1   3   35.90    3.60
   5  -1   3   36.00    3.10
  -5  -1  -3   39.40    2.60
   5  -1   3   35.50    4.50
   5   1   3   36.10    3.40
  -5   1  -3   36.30    3.00
   5   1   3   27.70    3.30
   5   1   3   37.70    5.80
  -5   1  -3   36.80    2.30
   5   1   3   37.50    3.00
  -5   1  -3   35.20    2.40
   5   1   3   37.10    2.60
   5   1   3   29.70    4.30
  -5   1  -3   45.70    4.40
   5   1   3   35.20    3.80
   6  -1   3   31.50    3.20
  -6  -1  -3   30.40    2.90
  -6  -1  -3   31.40    4.70
   6  -1   3   32.00    3.60
  -6  -1  -3   31.10    2.70
   6  -1   3   28.90    4.40
  -6  -1  -3   31.90    3.50
   6  -1   3   27.00    3.20
  -6  -1  -3   30.20    2.50
  -6   1  -3   34.00    3.30
  -6   1  -3   30.70    2.90
  -6   1  -3   32.40    5.90
   6   1   3   30.50    3.40
   6   1   3   34.90    2.70
   6   1   3   36.50    3.10
  -6   1  -3   32.90    2.40
   6   1   3   32.50    3.90
  -6   1  -3   31.40    2.40
   7  -1   3   18.80    2.60
  -7  -1  -3   23.80    3.00
  -7  -1  -3   23.00    3.20
  -7  -1  -3   16.50    2.30
   7  -1   3   19.80    3.10
  -7  -1  -3   31.70    4.60
   7  -1   3   22.30    3.10
  -7  -1  -3   24.50    2.60
  -7   1  -3   20.20    2.90
   7   1   3   19.10    2.60
  -7   1  -3   21.60    2.10
  -7   1  -3   22.30    2.50
   7   1   3   25.20    2.90
  -7   1  -3   21.60    2.50
  -7   1  -3   25.00    5.70
   7   1   3   17.50    2.70
  -8  -1  -3    7.60    1.80
   8  -1   3    9.30    1.80
  -8  -1  -3    9.10    1.30
  -8  -1  -3    8.50    2.40
   8  -1   3   11.40    1.90
   8  -1   3    8.40    1.80
  -8   1  -3    9.50    1.50
  -8   1  -3   11.60    1.80
  -8   1  -3    6.30    2.10
   8   1   3    8.50    1.40
   8   1   3   10.90    1.50
  -8   1  -3    9.80    1.70
  -9  -1  -3    6.40    1.40
   9  -1   3    5.80    3.00
  -9   1  -3    7.30    1.10
  -9   1  -3    6.90    1.40
   9   1   3    7.20    1.40
   9   1   3    3.80    1.70
  -9  -2   3  114.89    4.80
  -9  -2   3  113.79    5.20
   9  -2  -3  108.29    4.80
  -9  -2   3  115.99    8.00
   9  -2  -3  112.69    5.90
   9  -2  -3  112.19    5.40
  -9  -2   3  111.69    5.10
  -9   2   3  106.59    4.90
   9   2  -3  104.49    5.60
   9   2  -3  107.59    5.40
  -9   2   3  104.79    5.40
  -8  -2   3   67.59    4.00
  -8  -2   3   63.69    4.40
   8  -2  -3   60.49    3.90
   8  -2  -3   57.29    5.10
  -8  -2   3   62.49    3.50
  -8  -2   3   64.19    3.70
   8   2  -3   65.09    3.90
   8   2  -3   58.39    5.10
  -8   2   3   62.79    3.70
  -8   2   3   57.89    3.40
   8   2  -3   60.49    4.80
  -7  -2   3  127.69    6.90
  -7  -2   3  142.19    5.90
   7  -2  -3  126.59    7.90
  -7  -2   3  138.09    6.60
   7  -2  -3  134.39    7.10
   7  -2  -3  138.79    6.20
  -7  -2   3  135.79    6.00
   7   2  -3  132.09    7.40
   7   2  -3  133.49    6.40
  -7   2   3  134.49    5.40
   7   2  -3  127.49    6.50
   7   2  -3  138.99    6.50
   7   2  -3  137.99    7.30
  -7   2   3  134.89    6.40
   7   2  -3  159.88    8.30
  -6  -2   3   67.39    4.60
   6  -2  -3   60.89    3.70
  -6  -2   3   57.19    3.40
   6  -2  -3   49.90    5.60
   6  -2  -3   49.00    4.50
  -6  -2   3   59.39    3.20
   6  -2  -3   48.40    4.90
   6   2  -3   48.20    4.40
   6   2  -3   49.60    5.30
  -6   2   3   57.19    2.70
   6   2  -3   57.29    4.10
   6   2  -3   53.89    3.90
   6   2  -3   55.09    3.90
   6   2  -3   52.99    5.10
   5  -2  -3   13.20    2.80
   5  -2  -3    3.90    3.70
  -5  -2   3    8.30    1.30
   5  -2  -3    7.20    2.10
  -5  -2   3    7.20    2.60
   5  -2  -3    7.20    3.00
  -5  -2   3    4.80    1.30
   5  -2  -3    6.50    1.80
  -5   2   3    7.00    1.20
   5   2  -3    4.40    2.70
   5   2  -3    6.90    1.70
   5   2  -3    7.60    2.50
   5   2  -3    2.60    1.60
   5   2  -3    2.90    1.60
   5   2  -3    4.40    2.40
   4  -2  -3  632.84   23.50
  -4  -2   3  696.93   22.70
   4  -2  -3  703.73   22.80
   4  -2  -3  653.43   24.40
  -4  -2   3  697.13   23.40
  -4  -2   3  680.73   22.50
   4   2  -3  721.83   24.10
   4   2  -3  688.63   23.00
   4   2  -3  661.73   23.80
   4   2  -3  692.33   24.50
   4   2  -3  676.73   23.00
  -3  -2   3 1265.27   41.50
  -3  -2   3 1274.07   41.60
  -3  -2   3 1335.77   42.10
   3   2  -3 1224.88   41.90
   3   2  -3 1347.17   42.00
   3   2  -3 1259.17   41.30
  -2  -2   3  422.26   14.30
   2   2  -3  423.16   14.20
   2   2  -3  441.86   14.50
   2   2  -3  418.16   14.40
   1  -2  -3  781.72   25.50
  -1  -2   3  807.42   25.90
  -1  -2   3  812.52   26.20
  -1  -2   3  784.82   26.10
  -1   2   3  780.02   25.60
   1   2  -3  827.02   26.30
   1   2  -3  783.72   26.00
   0  -2  -3  915.71   29.30
   0  -2   3  935.01   29.20
   0  -2   3  868.01   29.50
   0   2   3  911.11   29.00
   0   2  -3  903.01   29.00
   0   2   3  889.71   29.30
   0   2  -3  888.51   29.50
   0   2   3  909.31   29.30
   0   2  -3  891.91   29.50
   1  -2   3  260.97    9.20
  -1  -2  -3  271.17    9.20
  -1  -2  -3  263.57    9.40
   1  -2   3  265.97    9.10
   1  -2   3  273.87    9.50
   1  -2   3  279.57    9.30
   1   2   3  270.77    9.40
   1   2   3  259.57    9.20
   1   2   3  264.17    9.00
  -1   2  -3  263.97    9.50
  -1   2  -3  266.17    9.00
  -1   2  -3  289.67    9.50
  -1   2  -3  261.37    8.90
   1   2   3  257.87    9.30
   2  -2   3  966.40   32.70
   2  -2   3 1001.40   32.40
  -2  -2  -3 1026.30   32.90
  -2  -2  -3  977.30   32.50
   2  -2   3  987.00   32.20
   2  -2   3 1002.30   32.10
  -2  -2  -3  951.90   32.20
  -2   2  -3  963.90   32.70
   2   2   3  983.00   32.20
   2   2   3 1013.80   32.50
  -2   2  -3  984.20   32.00
  -2   2  -3 1002.10   32.80
   2   2   3 1040.10   32.90
   3  -2   3  302.27   10.60
  -3  -2  -3  287.97   10.70
   3  -2   3  297.37   11.20
   3  -2   3  289.27   10.80
  -3  -2  -3  319.57   11.00
  -3  -2  -3  303.77   10.50
  -3  -2  -3  293.57   11.40
   3  -2   3  255.37   12.10
  -3  -2  -3  310.87   11.70
   3   2   3  292.07   10.80
  -3   2  -3  321.17   11.40
  -3   2  -3  306.47   11.20
   3   2   3  308.07   10.40
  -3   2  -3  298.97   10.40
   3   2   3  308.87   10.40
   3   2   3  318.87   11.50
   3   2   3  316.77   10.70
  -3   2  -3  300.17   10.20
  -3   2  -3  292.27   10.60
   4  -2   3  139.69    6.00
  -4  -2  -3  141.59    5.80
   4  -2   3  144.79    6.60
   4  -2   3  122.79    7.20
   4  -2   3  133.99    8.00
  -4  -2  -3  140.89    6.00
   4  -2   3  152.38    5.80
   4  -2   3  149.39    6.60
  -4  -2  -3  140.19    6.60
   4  -2   3  147.49    6.50
  -4  -2  -3  143.99    5.80
  -4  -2  -3  162.58    6.60
  -4   2  -3  151.48    5.50
   4   2   3  154.08    6.60
   4   2   3  152.88    6.10
  -4   2  -3  154.58    5.60
   4   2   3  149.29    5.70
  -4   2  -3  146.49    6.90
   4   2   3  145.49    6.10
  -4   2  -3  150.08    6.00
   4   2   3  152.38    5.70
   4   2   3  143.59    7.30
   4   2   3  143.19    5.90
   4   2   3  158.48    6.10
  -5  -2  -3   98.39    5.20
  -5  -2  -3   89.19    4.60
   5  -2   3   86.29    3.80
   5  -2   3   90.69    5.10
  -5  -2  -3   90.29    4.40
   5  -2   3   94.59    4.90
  -5  -2  -3   92.79    4.30
   5  -2   3   89.09    4.60
  -5  -2  -3   86.19    5.30
   5  -2   3   98.49    8.20
   5   2   3   91.29    4.40
  -5   2  -3   89.79    4.50
   5   2   3   80.99    4.50
   5   2   3   98.49    4.60
   5   2   3   86.69    5.00
   5   2   3   85.99    4.80
  -5   2  -3   98.99    4.10
   5   2   3   93.39    5.50
  -5   2  -3   99.19    6.50
  -6  -2  -3   68.99    4.20
  -6  -2  -3   69.19    5.60
   6  -2   3   75.99    4.50
   6  -2   3   75.89    5.20
   6  -2   3   73.99    4.20
  -6  -2  -3   77.99    4.80
   6  -2   3   62.39    6.10
  -6  -2  -3   75.39    4.00
  -6  -2  -3   73.59    4.10
   6  -2   3   73.49    4.80
  -6   2  -3   71.59    3.60
   6   2   3   72.19    5.10
  -6   2  -3   79.89    4.20
   6   2   3   71.09    4.60
   6   2   3   80.89    4.70
  -6   2  -3   76.39    3.60
   6   2   3   79.99    4.20
  -6   2  -3   70.69    7.70
   6   2   3   73.49    3.90
   6   2   3   75.39    4.70
   7  -2   3   85.09    4.90
  -7  -2  -3   91.09    4.60
  -7  -2  -3   76.59    4.20
   7  -2   3   88.69    4.40
   7  -2   3   80.39    4.90
   7  -2   3   79.59    5.10
  -7  -2  -3   81.59    6.60
   7   2   3   80.89    4.60
   7   2   3   81.19    4.30
  -7   2  -3   82.09    4.00
  -7   2  -3   84.99    3.90
  -7   2  -3   79.19    4.20
  -8  -2  -3  190.28    7.00
   8  -2   3  193.68    7.00
   8  -2   3  182.78    8.60
  -8  -2  -3  195.78    7.50
   8  -2   3  187.98    7.50
  -8  -2  -3  187.58    7.50
   8   2   3  197.08    7.30
   8   2   3  193.08    7.20
  -8   2  -3  197.28    7.40
  -8   2  -3  179.08    7.00
  -8   2  -3  180.08    7.50
  -8   2  -3  199.68    7.10
  -9  -2  -3  144.09    5.40
   9   2   3  146.39    6.00
  -9   2  -3  139.29    5.10
   9   2   3  135.19    5.20
  -9  -3   3  107.09    4.30
   9  -3  -3   91.39    6.00
  -9  -3   3  104.89    5.00
  -9  -3   3  104.59    4.40
   9  -3  -3  105.59    4.50
   9  -3  -3  101.59    4.90
   9   3  -3   87.29    5.10
   9   3  -3   99.69    5.30
  -9   3   3  110.89    6.10
   8  -3  -3  253.57   10.70
   8  -3  -3  258.17   11.40
  -8  -3   3  269.77    9.80
   8  -3  -3  262.07    9.90
  -8  -3   3  280.67   10.40
  -8  -3   3  281.47   10.10
  -8  -3   3  258.87   10.20
  -8   3   3  277.97    9.80
   8   3  -3  266.37   10.00
   8   3  -3  259.57   10.60
   8   3  -3  263.87   10.70
   8   3  -3  262.67   11.20
  -8   3   3  276.07    9.60
   8   3  -3  265.87   10.00
   8   3  -3  265.67   10.90
   7  -3  -3  119.29    6.80
  -7  -3   3  126.09    5.60
  -7  -3   3  120.69    5.50
   7  -3  -3  115.99    7.50
  -7  -3   3  124.69    6.50
  -7  -3   3  118.09    6.00
   7  -3  -3  119.59    5.60
   7   3  -3  123.79    5.80
   7   3  -3  120.79    7.40
  -7   3   3  133.39    5.00
   7   3  -3  120.89    5.90
   7   3  -3  123.99    6.20
   7   3  -3  119.99    7.00
   6  -3  -3   14.10    3.50
   6  -3  -3    8.50    2.50
  -6  -3   3    9.40    2.20
   6  -3  -3    9.20    1.80
  -6  -3   3    9.80    1.60
  -6  -3   3   10.60    1.80
  -6  -3   3   10.00    3.00
   6   3  -3   13.30    2.50
   6   3  -3    7.50    2.80
   6   3  -3    8.20    3.00
   6   3  -3    9.40    1.80
   6   3  -3   11.40    2.10
  -6   3   3   11.10    1.70
  -5  -3   3  343.47   12.80
  -5  -3   3  333.77   13.40
   5  -3  -3  324.27   13.70
  -5  -3   3  334.77   11.70
  -5  -3   3  333.67   11.60
  -5  -3   3  320.97   12.60
   5   3  -3  326.27   12.10
   5   3  -3  289.17   12.70
   5   3  -3  320.97   12.10
   5   3  -3  299.97   14.00
   5   3  -3  338.57   13.60
   4  -3  -3  923.51   34.00
   4  -3  -3 1145.59   36.40
   4  -3  -3  967.30   32.60
   4  -3  -3  973.10   33.20
   4  -3  -3  976.10   32.40
  -4  -3   3  971.00   33.10
   4  -3  -3  986.60   34.10
  -4  -3   3  995.20   32.40
  -4  -3   3  930.41   33.10
  -4  -3   3 1011.10   32.40
  -4  -3   3  940.01   32.80
   4   3  -3  965.40   32.70
   4   3  -3 1023.90   32.70
   4   3  -3  979.30   33.60
   4   3  -3  988.20   32.80
   4   3  -3 1036.30   32.00
   4   3  -3  947.41   34.00
   4   3  -3  987.90   32.60
  -3  -3   3  265.07    9.40
  -3  -3   3  265.47    9.90
  -3  -3   3  270.77    9.40
   3   3  -3  277.87    9.30
   3   3  -3  253.97   10.10
   3   3  -3  262.27    9.70
   3   3  -3  257.27   10.90
   3   3  -3  263.87    9.80
  -2  -3   3  549.15   18.90
  -2  -3   3  550.54   18.70
  -2  -3   3  575.74   18.60
   2   3  -3  549.65   18.90
   2   3  -3  570.14   19.10
   2   3  -3  590.54   19.20
   2   3  -3  541.95   18.70
  -1  -3   3 2125.89   72.29
  -1  -3   3 2352.96   72.89
  -1   3   3 2232.58   71.49
   1   3  -3 2329.27   72.29
   1   3  -3 2186.08   72.19
   1   3  -3 2262.97   72.39
   1   3  -3 2212.88   71.69
   0  -3   3  934.51   30.00
   0  -3   3  925.91   30.20
   0  -3   3  927.31   29.70
   0   3   3  927.91   29.50
   0   3   3  921.01   29.90
   0   3  -3  939.91   29.50
   0   3   3  846.72   30.00
   0   3  -3  915.41   30.20
   0   3  -3  897.21   30.20
   1  -3   3  531.85   17.60
   1  -3   3  535.85   18.00
   1  -3   3  519.95   17.30
  -1  -3  -3  531.65   17.30
  -1  -3  -3  534.95   17.80
   1  -3   3  498.85   17.30
  -1   3  -3  498.75   17.10
  -1   3  -3  545.85   18.00
  -1   3  -3  513.65   17.20
   1   3   3  548.85   17.30
  -1   3  -3  532.05   17.90
   1   3   3  500.05   17.30
   1   3   3  517.85   17.70
  -2  -3  -3  416.96   15.10
   2  -3   3  439.46   14.40
  -2  -3  -3  426.86   14.50
  -2   3  -3  430.56   14.00
  -2   3  -3  414.96   14.90
  -2   3  -3  430.36   14.10
   2   3   3  421.56   14.50
  -2   3  -3  425.36   15.00
   2   3   3  410.56   14.10
   2   3   3  416.96   15.00
   2   3   3  416.56   14.20
  -3  -3  -3  785.52   27.50
  -3  -3  -3  840.52   28.20
   3  -3   3  839.92   27.60
   3  -3   3  801.02   27.90
   3  -3   3  892.41   27.50
   3  -3   3  811.82   27.90
  -3  -3  -3  861.91   27.90
  -3  -3  -3  831.72   28.20
  -3   3  -3  828.02   28.30
   3   3   3  821.12   28.30
   3   3   3  862.11   27.80
   3   3   3  862.81   27.40
   3   3   3  815.22   27.50
   3   3   3  857.11   27.30
  -3   3  -3  812.32   27.10
   3   3   3  801.42   27.50
  -3   3  -3  846.92   27.20
   3   3   3  824.02   28.60
  -3   3  -3  819.02   27.40
   4  -3   3  360.96   13.40
   4  -3   3  378.96   13.30
  -4  -3  -3  359.36   12.70
   4  -3   3  361.06   12.90
   4  -3   3  370.86   12.40
   4  -3   3  349.67   13.10
  -4  -3  -3  360.46   12.80
  -4  -3  -3  353.46   13.50
  -4  -3  -3  370.96   13.40
   4  -3   3  351.66   13.90
   4   3   3  369.36   13.50
   4   3   3  365.26   12.60
  -4   3  -3  361.56   12.70
   4   3   3  361.66   12.80
   4   3   3  357.46   12.70
   4   3   3  373.76   13.10
   4   3   3  371.86   12.60
   4   3   3  357.96   13.00
  -4   3  -3  365.66   12.40
  -4   3  -3  362.16   12.40
  -4   3  -3  380.16   14.30
  -5  -3  -3  441.66   14.90
  -5  -3  -3  400.56   14.90
  -5  -3  -3  417.56   15.80
   5  -3   3  420.96   15.50
   5  -3   3  421.66   15.50
   5  -3   3  422.16   15.00
   5  -3   3  427.56   15.20
   5  -3   3  422.26   16.10
  -5  -3  -3  414.06   15.70
   5   3   3  438.06   15.10
   5   3   3  432.26   15.50
  -5   3  -3  436.06   14.90
   5   3   3  429.26   15.20
   5   3   3  414.66   15.90
  -5   3  -3  409.86   16.90
   5   3   3  456.35   15.30
  -5   3  -3  440.56   14.70
  -5   3  -3  449.86   14.60
   5   3   3  441.46   15.10
   5   3   3  427.66   14.60
  -6  -3  -3  132.39    7.10
  -6  -3  -3  130.99    6.30
  -6  -3  -3  123.19    5.60
   6  -3   3  126.29    5.60
   6  -3   3  126.39    6.30
   6  -3   3  126.89    6.30
  -6  -3  -3  122.19    6.30
   6  -3   3  118.79    6.90
  -6   3  -3  128.59    5.20
   6   3   3  126.39    6.20
   6   3   3  126.19    5.90
   6   3   3  131.49    5.70
   6   3   3  122.99    5.70
  -6   3  -3  137.79    5.30
   6   3   3  119.29    5.60
  -6   3  -3  132.99    5.70
   7  -3   3    3.30    1.30
  -7  -3  -3    6.80    2.90
  -7  -3  -3    9.70    2.00
  -7  -3  -3    5.50    1.50
   7  -3   3    9.10    2.50
  -7  -3  -3    2.90    1.70
  -7  -3  -3    2.40    1.90
   7  -3   3    5.20    2.70
   7  -3   3    5.90    1.90
  -7   3  -3    4.00    1.20
   7   3   3    4.30    1.30
  -7   3  -3    4.50    1.10
   7   3   3    6.70    1.70
   7   3   3   -0.70    2.40
   7   3   3    4.40    1.80
  -8  -3  -3    6.20    1.80
   8  -3   3    5.70    1.70
  -8  -3  -3    3.50    1.30
  -8   3  -3    5.40    1.60
   8   3   3    6.60    1.30
  -8   3  -3    5.10    1.20
  -8   3  -3    6.10    1.20
   9   3   3   53.59    2.70
   9  -4  -3  270.37    9.60
   9   4  -3  217.98    9.20
   9   4  -3  228.88    9.00
  -8  -4   3  154.78    6.20
  -8  -4   3  166.18    6.40
   8  -4  -3  157.58    7.00
  -8  -4   3  146.99    6.70
  -8  -4   3  158.38    6.70
   8  -4  -3  160.68    6.30
  -8   4   3  148.19    6.40
   8   4  -3  157.28    7.00
   8   4  -3  156.88    7.50
   8   4  -3  153.98    6.30
  -7  -4   3  644.94   22.60
   7  -4  -3  613.84   21.80
  -7  -4   3  642.04   22.00
  -7  -4   3  635.64   21.90
   7  -4  -3  661.13   22.90
  -7  -4   3  648.14   22.20
   7   4  -3  621.04   22.90
   7   4  -3  665.23   23.80
   7   4  -3  662.43   22.20
   7   4  -3  647.94   22.40
   7   4  -3  641.84   22.00
  -7   4   3  646.74   21.30
   6  -4  -3   41.90    3.30
   6  -4  -3   47.00    4.30
  -6  -4   3   36.60    7.00
  -6  -4   3   42.60    3.20
  -6  -4   3   47.30    3.10
  -6  -4   3   43.40    3.80
   6  -4  -3   42.60    6.20
  -6  -4   3   48.50    4.70
  -6   4   3   44.20    2.40
   6   4  -3   37.10    3.70
   6   4  -3   40.70    3.50
   6   4  -3   38.80    3.70
   6   4  -3   42.00    5.00
   6   4  -3   36.50    5.40
  -5  -4   3   83.39    4.30
   5  -4  -3   77.69    7.30
  -5  -4   3   85.29    4.30
  -5  -4   3   79.09    4.70
   5  -4  -3   78.49    5.10
  -5  -4   3   73.79    6.20
   5  -4  -3   81.59    4.20
   5  -4  -3   78.79    4.60
  -5  -4   3   87.79    5.50
   5   4  -3   73.09    4.70
   5   4  -3   75.69    5.70
   5   4  -3   80.69    6.60
   5   4  -3   75.49    4.40
   5   4  -3   80.09    4.50
   5   4  -3   81.89    3.40
   4  -4  -3   89.09    5.40
  -4  -4   3   89.09    8.00
  -4  -4   3   93.99    4.40
   4  -4  -3   84.39    4.30
   4  -4  -3   95.49    7.80
  -4  -4   3   91.39    4.20
  -4  -4   3   87.19    4.80
   4  -4  -3   93.69    4.70
  -4  -4   3   82.49    5.50
   4  -4  -3   78.99    6.30
   4   4  -3  101.79    6.00
   4   4  -3   90.99    4.90
   4   4  -3   91.99    3.90
   4   4  -3   82.39    7.40
   4   4  -3   82.69    5.00
   4   4  -3   93.19    4.60
   4   4  -3   88.09    4.50
  -3  -4   3  485.55   16.50
   3  -4  -3  464.95   16.60
  -3  -4   3  474.45   16.80
   3  -4  -3  490.15   17.50
  -3  -4   3  485.25   17.50
   3  -4  -3  472.55   17.30
   3  -4  -3  472.55   16.70
  -3  -4   3  491.95   16.60
  -3  -4   3  500.25   17.10
   3  -4  -3  519.25   19.10
   3   4  -3  484.85   17.00
   3   4  -3  480.95   16.70
   3   4  -3  491.05   17.70
   3   4  -3  483.25   16.60
   3   4  -3  481.25   16.80
   3   4  -3  480.05   16.70
  -2  -4   3  300.87   10.40
   2  -4  -3  252.87   10.70
  -2  -4   3  286.87    9.90
  -2  -4   3  280.97    9.80
   2  -4  -3  271.77   10.30
   2   4  -3  280.07   10.10
   2   4  -3  285.57    9.50
   2   4  -3  271.17   10.80
   2   4  -3  279.27   10.10
   2   4  -3  273.17   10.80
   2   4  -3  276.57   10.10
   2   4  -3  288.87    9.50
   2   4  -3  278.27   10.20
  -1  -4   3  723.63   23.80
  -1  -4   3  763.92   24.20
  -1  -4   3  727.33   23.80
  -1   4   3  701.13   23.50
  -1   4   3  737.03   23.50
   1   4  -3  703.33   24.50
   1   4  -3  738.83   23.50
   1   4  -3  716.23   23.50
   1   4  -3  678.53   24.90
   1   4  -3  731.63   24.20
   1   4  -3  713.73   24.00
   0  -4   3 3070.59   99.99
   0  -4   3 3211.58   99.69
   0  -4   3 3262.87   99.69
   0  -4   3 3170.68  100.49
   0   4   3 3112.59   99.99
   0   4   3 3075.39   99.59
   0   4  -3 3092.49   99.49
   0   4   3 3108.59   99.49
   0   4  -3 3234.48  100.49
   0   4  -3 3036.80   99.49
   0   4  -3 3063.59  100.29
   0   4  -3 2929.31   99.89
  -1  -4  -3   33.20    3.70
  -1  -4  -3   40.80    1.90
   1  -4   3   38.80    3.50
   1  -4   3   33.20    2.90
  -1  -4  -3   35.30    3.70
  -1  -4  -3   48.30    5.10
  -1   4  -3   37.90    2.90
   1   4   3   45.60    2.40
  -1   4  -3   39.70    2.80
   1   4   3   36.60    3.00
   1   4   3   37.10    3.10
   1   4   3   41.30    2.10
  -1   4  -3   39.40    1.90
   2  -4   3   89.49    4.90
  -2  -4  -3   97.39    5.50
   2  -4   3   92.59    4.50
  -2  -4  -3   94.99    6.00
   2  -4   3   93.09    4.70
  -2  -4  -3   88.59    5.00
  -2  -4  -3   98.09    5.70
   2  -4   3   96.89    5.30
  -2  -4  -3  106.69    4.20
   2   4   3   97.49    4.10
  -2   4  -3   96.99    3.80
  -2   4  -3   97.69    3.70
  -2   4  -3   93.49    5.00
   2   4   3   97.59    3.90
   2   4   3   91.69    4.50
   2   4   3  102.19    5.60
  -2   4  -3   87.79    4.30
   3  -4   3  616.54   20.90
   3  -4   3  618.34   21.20
   3  -4   3  610.84   20.40
  -3  -4  -3  598.94   20.90
   3  -4   3  618.04   20.80
   3  -4   3  603.64   21.10
  -3  -4  -3  611.84   21.50
  -3  -4  -3  600.04   21.50
   3  -4   3  582.34   20.90
  -3  -4  -3  628.04   21.40
   3   4   3  597.74   20.40
   3   4   3  614.34   20.70
   3   4   3  674.33   21.70
   3   4   3  629.24   20.50
  -3   4  -3  620.04   20.30
  -3   4  -3  614.44   21.80
  -3   4  -3  617.34   20.30
  -3   4  -3  600.84   20.50
   3   4   3  622.44   20.70
   3   4   3  589.34   21.70
   3   4   3  626.04   21.00
   4  -4   3 2273.57   73.09
   4  -4   3 2295.57   73.09
  -4  -4  -3 2170.18   73.09
   4  -4   3 2247.78   72.69
   4  -4   3 2222.48   72.59
   4  -4   3 2275.37   73.49
  -4  -4  -3 2221.28   73.29
  -4  -4  -3 2192.28   72.39
  -4  -4  -3 2289.77   73.39
   4   4   3 2296.27   72.29
   4   4   3 2248.97   72.99
  -4   4  -3 2159.98   72.19
   4   4   3 2272.97   72.29
  -4   4  -3 2261.27   72.49
   4   4   3 2070.99   72.69
   4   4   3 2347.86   73.19
   4   4   3 2302.67   72.59
  -4   4  -3 2200.38   72.19
  -4   4  -3 2272.07   74.19
   4   4   3 2305.67   72.89
  -5  -4  -3  579.44   20.40
   5  -4   3  548.05   20.50
   5  -4   3  546.05   19.60
   5  -4   3  564.94   20.00
   5  -4   3  588.84   20.20
  -5  -4  -3  564.54   20.40
   5  -4   3  581.24   19.50
  -5  -4  -3  571.14   20.40
  -5  -4  -3  573.44   19.40
   5   4   3  570.84   19.80
  -5   4  -3  572.04   19.20
  -5   4  -3  578.44   19.50
   5   4   3  576.44   20.20
  -5   4  -3  592.74   19.30
   5   4   3  581.24   19.90
   5   4   3  563.54   19.60
   5   4   3  556.24   19.10
   5   4   3  586.14   19.70
  -6  -4  -3  484.15   17.40
   6  -4   3  462.85   17.20
  -6  -4  -3  483.75   17.30
  -6  -4  -3  482.45   17.10
   6  -4   3  464.45   16.80
  -6  -4  -3  486.25   17.70
   6  -4   3  471.25   16.50
   6  -4   3  473.25   17.40
   6   4   3  483.35   17.20
  -6   4  -3  482.45   16.40
   6   4   3  488.75   16.60
   6   4   3  487.25   16.90
   6   4   3  474.55   16.80
   6   4   3  502.15   16.80
  -6   4  -3  481.05   16.40
  -6   4  -3  484.25   16.60
   7  -4   3   68.79    3.30
  -7  -4  -3   67.09    5.70
  -7  -4  -3   66.99    4.10
  -7  -4  -3   62.69    4.10
   7  -4   3   67.29    4.70
  -7  -4  -3   66.79    3.90
   7  -4   3   65.59    4.70
   7  -4   3   59.39    3.80
  -7   4  -3   62.09    3.40
  -7   4  -3   65.79    3.20
  -7   4  -3   65.79    3.40
   7   4   3   71.99    4.10
   7   4   3   60.89    3.60
   7   4   3   64.09    3.50
   7   4   3   63.19    4.30
   8  -4   3   70.39    3.80
  -8  -4  -3   72.29    3.60
  -8  -4  -3   77.69    5.50
  -8  -4  -3   66.19    4.10
  -8   4  -3   74.69    3.50
   8   4   3   73.79    3.40
  -8   4  -3   72.49    3.20
  -8   4  -3   68.09    3.30
   9  -5  -3   26.60    2.20
   9  -5  -3   23.60    2.50
  -9  -5   3   31.60    2.40
  -8  -5   3  178.98    6.90
   8  -5  -3  185.88    6.90
  -8  -5   3  180.58    7.20
   8  -5  -3  182.98    7.50
   8   5  -3  180.48    6.80
   8   5  -3  168.98    7.40
  -7  -5   3  403.46   14.00
   7  -5  -3  400.66   14.80
  -7  -5   3  370.26   14.30
  -7  -5   3  398.06   14.40
  -7  -5   3  395.96   13.90
  -7  -5   3  362.06   17.50
   7  -5  -3  406.36   13.90
   7   5  -3  415.06   14.00
  -7   5   3  391.36   13.40
   7   5  -3  392.76   15.40
   7   5  -3  406.06   14.50
  -6  -5   3    6.50    1.80
  -6  -5   3   14.50    2.20
  -6  -5   3   14.60    2.30
   6  -5  -3    8.10    2.40
  -6  -5   3    9.60    2.60
   6  -5  -3    9.60    2.00
   6   5  -3   11.80    3.90
  -6   5   3    9.00    1.40
   6   5  -3   12.40    2.10
   6   5  -3   14.10    2.30
   6   5  -3   14.10    2.30
  -5  -5   3   53.39    3.40
  -5  -5   3   52.99    5.70
  -5  -5   3   56.29    3.50
  -5  -5   3   46.30    4.80
   5  -5  -3   54.39    3.60
  -5  -5   3   52.79    6.30
  -5  -5   3   45.90    3.80
   5  -5  -3   54.09    3.60
   5  -5  -3   50.99    4.50
   5   5  -3   54.49    4.30
   5   5  -3   53.29    2.90
   5   5  -3   55.59    4.30
   5   5  -3   50.59    3.80
   5   5  -3   52.59    3.70
  -4  -5   3  270.07   10.10
  -4  -5   3  258.37   10.30
  -4  -5   3  263.07   10.00
  -4  -5   3  274.47   11.10
  -4  -5   3  282.97   11.00
   4  -5  -3  256.97   10.00
   4  -5  -3  264.27   10.00
   4  -5  -3  261.67   10.90
   4   5  -3  291.47   10.60
   4   5  -3  265.37    9.90
   4   5  -3  279.57   10.20
   4   5  -3  261.47   10.40
   4   5  -3  281.97   10.30
  -3  -5   3  284.67   10.60
   3  -5  -3  306.67   13.00
   3  -5  -3  290.37   10.80
   3  -5  -3  290.47   11.70
  -3  -5   3  295.27   11.60
  -3  -5   3  303.27   11.70
  -3  -5   3  293.27   10.70
   3  -5  -3  299.37   11.40
  -3  -5   3  299.27   11.40
   3  -5  -3  284.77   10.80
  -3   5   3  289.17    9.90
   3   5  -3  292.77   10.80
   3   5  -3  285.47   10.20
   3   5  -3  303.57   10.80
   3   5  -3  305.27   10.80
   3   5  -3  292.67   11.00
   2  -5  -3 1130.19   36.60
  -2  -5   3 1106.19   36.00
  -2  -5   3 1118.69   36.80
   2  -5  -3 1098.99   36.40
   2  -5  -3 1115.59   36.30
  -2  -5   3 1131.29   36.60
  -2  -5   3 1065.49   36.70
   2  -5  -3 1063.09   36.90
   2  -5  -3 1109.39   36.30
   2  -5  -3 1065.39   37.20
  -2  -5   3 1093.39   36.00
   2   5  -3 1100.79   36.30
   2   5  -3 1060.39   36.10
  -2   5   3 1117.89   35.40
   2   5  -3 1147.59   36.60
   2   5  -3 1083.19   35.60
   2   5  -3 1073.79   35.60
   2   5  -3 1088.99   35.70
   2   5  -3 1115.29   36.20
   1  -5  -3   98.39    4.70
  -1  -5   3   98.79    4.50
   1  -5  -3   91.09    4.70
   1  -5  -3   86.89    4.80
  -1  -5   3  102.29    4.30
   1  -5  -3   97.39    5.20
  -1  -5   3   94.09    4.40
  -1  -5   3   87.49    5.40
   1  -5  -3  102.69    5.90
  -1  -5   3   95.39    5.10
  -1  -5   3   91.09    5.20
   1  -5  -3   87.89    5.70
  -1  -5   3   91.49    5.40
   1   5  -3   94.39    6.00
   1   5  -3   94.79    3.80
   1   5  -3   94.49    3.80
   1   5  -3   93.09    4.40
   1   5  -3   90.79    5.10
  -1   5   3   99.49    3.70
   1   5  -3   93.19    6.10
   1   5  -3   95.49    4.10
   1   5  -3   90.49    4.60
   1   5  -3   91.39    4.40
  -1   5   3   97.09    4.40
  -1   5   3   84.39    4.50
   0  -5  -3  244.38    9.30
   0  -5  -3  219.38    8.90
   0  -5   3  216.58    8.70
   0  -5   3  223.18    9.20
   0  -5  -3  232.18    9.60
   0  -5  -3  240.28    9.60
   0  -5   3  229.18    8.80
   0  -5   3  228.58    8.90
   0  -5  -3  220.68    8.50
   0  -5   3  232.18    9.30
   0  -5  -3  225.38    9.00
   0   5  -3  240.68    9.20
   0   5  -3  220.68    8.80
   0   5   3  240.88    8.30
   0   5  -3  237.48    8.10
   0   5  -3  227.68    8.40
   0   5   3  243.08    8.10
   0   5  -3  237.08    8.10
   0   5  -3  229.58    8.70
   0   5  -3  232.68   10.10
   1  -5   3  122.09    5.90
   1  -5   3  120.49    5.90
   1  -5   3  117.19    5.40
  -1  -5  -3  125.29    5.90
   1  -5   3  119.29    6.90
  -1  -5  -3  127.89    6.10
  -1  -5  -3  128.09    6.20
   1  -5   3  126.29    5.60
  -1  -5  -3  117.29    6.40
  -1  -5  -3  125.59    5.80
   1  -5   3  121.69    6.50
   1  -5   3  129.89    5.30
   1   5   3  128.99    5.10
  -1   5  -3  130.49    4.80
  -1   5  -3  132.59    4.90
  -1   5  -3  126.09    6.10
  -1   5  -3  119.59    5.60
   1   5   3  132.09    4.90
   1   5   3  114.99    6.00
   1   5   3  134.09    6.20
  -1   5  -3  128.69    5.20
   2  -5   3  222.28    8.90
  -2  -5  -3  215.78    9.30
   2  -5   3  227.38    8.50
   2  -5   3  215.48    9.10
   2  -5   3  223.88    8.10
  -2  -5  -3  220.18    8.70
   2  -5   3  214.28    8.50
  -2  -5  -3  224.48    9.00
  -2  -5  -3  207.18    9.00
   2  -5   3  216.38    8.40
   2  -5   3  206.88    8.80
  -2  -5  -3  229.38    8.00
  -2  -5  -3  203.68    8.80
   2   5   3  210.28    8.50
  -2   5  -3  234.38    7.80
  -2   5  -3  228.48    8.20
  -2   5  -3  218.48    9.40
   2   5   3  214.48    8.40
   2   5   3  223.18    8.90
  -2   5  -3  224.18    7.90
   2   5   3  223.28    8.00
   2   5   3  224.68    8.10
  -2   5  -3  217.98    8.70
  -3  -5  -3  525.45   19.30
   3  -5   3  499.65   18.40
  -3  -5  -3  526.25   19.20
   3  -5   3  569.94   18.60
   3  -5   3  526.15   18.40
   3  -5   3  531.65   19.20
  -3  -5  -3  527.35   18.40
  -3  -5  -3  527.25   18.60
   3  -5   3  562.24   19.00
   3   5   3  506.05   18.80
   3   5   3  554.44   18.10
  -3   5  -3  530.95   18.20
  -3   5  -3  552.94   17.90
  -3   5  -3  558.64   18.00
   3   5   3  557.54   18.20
   3   5   3  498.15   19.60
  -3   5  -3  531.55   19.90
   3   5   3  532.95   18.30
   3   5   3  541.85   18.30
   3   5   3  562.04   18.70
   4  -5   3  535.65   19.50
   4  -5   3  546.95   20.20
  -4  -5  -3  599.84   20.10
   4  -5   3  563.24   19.70
  -4  -5  -3  533.85   19.90
   4  -5   3  565.94   19.10
   4  -5   3  563.34   19.10
  -4  -5  -3  567.44   19.50
  -4   5  -3  586.04   18.80
   4   5   3  530.95   19.50
   4   5   3  577.04   19.50
   4   5   3  563.94   19.10
   4   5   3  566.34   18.90
  -4   5  -3  580.04   19.00
   4   5   3  542.05   18.70
  -4   5  -3  472.85   22.10
   4   5   3  551.64   20.00
   4   5   3  552.44   18.80
  -4   5  -3  578.54   18.70
   5  -5   3   81.79    4.90
   5  -5   3   79.09    4.10
  -5  -5  -3   70.39    4.90
   5  -5   3   71.99    4.80
   5  -5   3   79.09    5.30
  -5  -5  -3   78.59    5.00
  -5  -5  -3   77.49    5.00
   5  -5   3   68.69    4.80
  -5  -5  -3   76.99    4.70
   5   5   3   79.49    4.40
  -5   5  -3   79.59    3.70
   5   5   3   77.29    5.50
  -5   5  -3   80.49    4.00
   5   5   3   80.29    4.30
   5   5   3   78.49    3.70
   5   5   3   76.29    4.70
   5   5   3   76.39    4.10
  -5   5  -3   79.09    3.60
   6  -5   3   43.80    3.70
   6  -5   3   37.20    3.90
  -6  -5  -3   41.30    4.50
   6  -5   3   46.70    4.00
  -6  -5  -3   44.20    3.70
  -6  -5  -3   39.80    3.40
   6  -5   3   43.50    2.90
  -6  -5  -3   43.10    3.90
  -6   5  -3   39.70    3.20
   6   5   3   37.50    2.80
   6   5   3   38.90    3.00
  -6   5  -3   42.30    2.60
  -6   5  -3   40.60    2.50
   6   5   3   41.80    3.20
   6   5   3   41.70    3.70
  -7  -5  -3   22.50    2.80
  -7  -5  -3   18.70    2.80
   7  -5   3   23.30    3.20
   7  -5   3   18.20    2.60
  -7  -5  -3   18.10    2.60
   7   5   3   17.70    2.80
   7   5   3   20.50    2.20
  -7   5  -3   19.90    1.80
  -7   5  -3   19.40    2.20
   7   5   3   20.20    2.20
  -7   5  -3   20.20    2.00
  -8  -5  -3   20.50    2.20
  -8   5  -3   23.30    2.00
   8   5   3   20.30    2.10
  -8   5  -3   23.10    1.80
  -8  -6   3  155.58    6.40
   8  -6  -3  163.68    6.10
   8  -6  -3  169.18    6.70
   8   6  -3  173.58    6.80
   8   6  -3  157.78    6.70
   7  -6  -3  148.09    6.70
  -7  -6   3  144.09    6.30
  -7  -6   3  147.39    6.30
  -7  -6   3  139.99    6.30
   7  -6  -3  145.39    5.90
   7   6  -3  154.48    6.00
   7   6  -3  146.29    6.40
  -6  -6   3  120.29    6.50
   6  -6  -3  108.39    5.10
  -6  -6   3  112.69    8.20
  -6  -6   3  112.59    7.70
  -6  -6   3   99.69    5.20
   6  -6  -3  128.39    6.20
   6   6  -3  114.29    5.70
   6   6  -3  127.19    6.00
  -5  -6   3  343.97   12.70
  -5  -6   3  344.47   14.20
  -5  -6   3  352.16   13.70
  -5  -6   3  330.57   12.90
  -5  -6   3  346.67   13.50
   5  -6  -3  370.86   12.80
   5  -6  -3  340.87   13.60
   5  -6  -3  368.76   12.70
   5   6  -3  364.16   13.40
   5   6  -3  340.77   12.30
  -5   6   3  357.86   11.90
   5   6  -3  350.26   12.70
   5   6  -3  370.56   13.00
   4  -6  -3  189.28    7.30
  -4  -6   3  150.38    7.40
   4  -6  -3  184.58    8.00
   4  -6  -3  182.38    7.30
  -4  -6   3  171.38    8.20
  -4  -6   3  182.98    8.20
   4  -6  -3  181.58    8.40
  -4  -6   3  179.78    8.30
  -4  -6   3  179.38    8.40
  -4  -6   3  174.08    7.20
   4   6  -3  170.48    7.30
   4   6  -3  192.08    7.60
  -4   6   3  186.48    6.40
   4   6  -3  179.38    7.70
   4   6  -3  176.68    7.20
   3  -6  -3  205.98    9.50
   3  -6  -3  213.18    8.60
  -3  -6   3  229.28    9.60
  -3  -6   3  229.78    9.40
  -3  -6   3  215.58    9.30
   3  -6  -3  224.08    8.60
   3  -6  -3  214.68    9.00
  -3  -6   3  221.48    9.40
  -3  -6   3  219.68    8.50
  -3   6   3  228.78    7.70
   3   6  -3  226.38    8.90
   3   6  -3  215.28    8.00
   3   6  -3  216.28    8.60
   3   6  -3  227.48    8.60
   3   6  -3  226.58    8.80
   2  -6  -3  356.66   12.80
  -2  -6   3  348.37   13.30
  -2  -6   3  349.57   13.10
  -2  -6   3  345.97   12.40
  -2  -6   3  354.86   13.00
   2  -6  -3  351.16   12.80
   2  -6  -3  343.37   13.80
  -2  -6   3  348.37   14.60
   2  -6  -3  342.77   12.70
   2  -6  -3  351.76   13.00
   2  -6  -3  326.37   13.60
  -2   6   3  355.86   11.90
   2   6  -3  354.96   13.10
   2   6  -3  350.36   12.60
   2   6  -3  351.66   12.00
   2   6  -3  361.06   12.80
   2   6  -3  355.66   12.10
   2   6  -3  357.06   12.10
  -1  -6   3  261.67   10.30
   1  -6  -3  259.57    9.40
  -1  -6   3  239.78   11.80
  -1  -6   3  241.78    9.90
   1  -6  -3  292.87   11.00
   1  -6  -3  264.87   10.30
  -1  -6   3  272.47   10.10
  -1   6   3  254.57    9.80
   1   6  -3  258.37   10.00
   1   6  -3  247.68    9.80
   1   6  -3  255.37    9.20
  -1   6   3  271.27    9.20
  -1   6   3  269.37    9.40
   1   6  -3  272.07   10.40
   1   6  -3  264.87    9.20
   0  -6  -3  108.79    5.20
   0  -6  -3  116.99    5.90
   0  -6  -3  112.89    5.10
   0  -6   3  110.29    5.10
   0  -6   3  108.39    5.60
   0  -6  -3  111.59    5.80
   0  -6   3  122.29    7.00
   0   6   3  112.79    4.50
   0   6   3  106.99    4.70
   0   6  -3  117.49    5.90
   0   6  -3   92.69    5.50
   0   6   3  110.59    6.20
   0   6  -3  113.29    4.50
   0   6   3  103.09    5.10
   0   6  -3  114.89    4.40
   1  -6   3   17.30    3.10
   1  -6   3   19.60    2.30
  -1  -6  -3   22.30    3.10
   1  -6   3   16.10    2.70
   1  -6   3   23.90    3.40
  -1  -6  -3   21.30    3.00
  -1  -6  -3   18.90    2.60
  -1  -6  -3   22.80    3.00
  -1  -6  -3   17.80    2.90
   1  -6   3   14.70    2.50
   1  -6   3   21.90    2.80
  -1  -6  -3   23.40    3.00
   1   6   3   25.50    3.30
  -1   6  -3   21.20    2.90
   1   6   3   24.10    2.20
   1   6   3   22.60    1.90
  -1   6  -3   22.10    1.70
   1   6   3   23.50    2.60
  -1   6  -3   19.80    2.40
  -1   6  -3   19.90    3.90
   2  -6   3   69.09    4.20
   2  -6   3   67.99    4.00
  -2  -6  -3   69.29    4.30
   2  -6   3   63.69    4.00
  -2  -6  -3   65.39    4.20
  -2  -6  -3   72.79    4.10
  -2  -6  -3   62.29    4.80
   2  -6   3   73.49    5.60
   2  -6   3   67.49    4.40
  -2  -6  -3   72.19    4.80
  -2   6  -3   62.99    5.80
  -2   6  -3   63.39    3.60
   2   6   3   64.69    4.00
   2   6   3   63.69    3.90
   2   6   3   69.69    3.50
   2   6   3   68.79    5.00
   2   6   3   72.79    4.10
  -2   6  -3   65.59    4.60
  -2   6  -3   65.89    3.20
   3  -6   3   59.09    4.40
  -3  -6  -3   63.59    3.50
   3  -6   3   64.79    4.30
  -3  -6  -3   59.59    4.90
  -3  -6  -3   61.69    4.80
  -3  -6  -3   65.39    4.30
   3  -6   3   63.59    4.00
  -3  -6  -3   64.89    4.20
   3  -6   3   56.39    4.90
   3  -6   3   69.39    3.90
  -3   6  -3   69.59    3.10
   3   6   3   65.49    3.30
  -3   6  -3   62.89    3.60
  -3   6  -3   62.79    7.00
   3   6   3   65.39    3.70
   3   6   3   61.39    4.80
   3   6   3   67.89    4.00
   3   6   3   63.69    3.40
  -4  -6  -3   11.10    2.80
  -4  -6  -3    9.60    1.90
   4  -6   3   10.00    2.60
   4  -6   3    9.20    2.40
  -4  -6  -3    8.90    1.90
  -4  -6  -3   10.10    2.70
   4  -6   3    7.90    1.60
   4  -6   3    9.40    2.30
   4   6   3   13.10    2.40
  -4   6  -3   12.60    2.30
  -4   6  -3   11.40    1.50
   4   6   3    8.50    1.70
   4   6   3   12.10    2.20
   4   6   3    6.80    1.50
  -4   6  -3    8.30    1.80
   4   6   3    7.50    2.40
   5  -6   3  124.79    6.60
  -5  -6  -3  113.89    6.00
  -5  -6  -3  126.29    5.80
   5  -6   3  124.89    5.30
  -5  -6  -3  122.39    6.20
   5  -6   3  128.89    7.90
   5  -6   3  124.49    6.00
  -5  -6  -3  121.79    6.20
   5  -6   3  114.59    6.40
   5   6   3  119.79    5.30
  -5   6  -3  125.49    5.30
  -5   6  -3  126.39    5.00
   5   6   3  129.79    5.80
   5   6   3  123.09    6.20
   5   6   3  119.19    5.40
  -5   6  -3  121.79    5.00
   6  -6   3   99.09    5.60
  -6  -6  -3  114.49    5.10
   6  -6   3  113.59    5.60
  -6  -6  -3  109.39    5.30
   6  -6   3  108.39    5.60
   6  -6   3  108.79    4.50
  -6  -6  -3  110.49    5.20
   6   6   3  112.99    4.70
  -6   6  -3  114.69    4.70
  -6   6  -3  109.99    4.60
   6   6   3  111.49    5.10
  -6   6  -3  112.49    4.50
   6   6   3  109.89    4.90
   7  -6   3    7.20    1.80
   7  -6   3    6.20    2.10
  -7  -6  -3    7.70    1.90
  -7  -6  -3    4.10    1.50
  -7  -6  -3    9.90    1.50
   7   6   3   10.70    2.30
  -7   6  -3    7.20    1.20
  -7   6  -3    6.90    1.10
   7   6   3    5.80    1.60
   7   6   3    7.60    1.20
   8  -7  -3    3.90    1.40
   8   7  -3    3.10    1.40
  -7  -7   3   91.59    6.10
   7  -7  -3  110.09    4.40
  -7  -7   3  112.69    4.80
   7  -7  -3  100.99    5.00
   7   7  -3  109.49    4.50
   7   7  -3  107.59    5.00
  -6  -7   3   21.30    3.10
   6  -7  -3   25.70    2.50
   6  -7  -3   26.80    2.30
  -6  -7   3   17.70    2.80
  -6  -7   3   21.80    3.00
   6  -7  -3   26.10    3.20
   6   7  -3   23.00    2.80
   6   7  -3   24.40    2.50
  -5  -7   3  163.88    7.60
  -5  -7   3  157.58    8.40
   5  -7  -3  163.88    6.70
  -5  -7   3  165.38    9.00
   5   7  -3  166.68    7.20
   5   7  -3  165.88    6.80
  -5   7   3  156.68    5.90
   5   7  -3  150.38    6.50
   5   7  -3  162.98    7.10
   4  -7  -3   53.19    3.60
   4  -7  -3   55.89    4.60
   4  -7  -3   58.69    5.00
  -4  -7   3   54.59    4.60
  -4  -7   3   61.89    4.70
  -4  -7   3   48.80    5.00
  -4  -7   3   58.59    4.70
   4  -7  -3   54.09    3.70
  -4   7   3   58.49    2.70
   4   7  -3   57.99    3.80
   4   7  -3   55.19    3.80
   4   7  -3   55.39    3.70
   4   7  -3   53.09    3.90
  -3  -7   3   26.00    3.80
  -3  -7   3   25.00    3.80
  -3  -7   3   27.10    3.80
  -3  -7   3   31.80    4.10
   3  -7  -3   25.20    3.00
   3  -7  -3   24.40    2.70
   3  -7  -3   31.70    3.60
   3  -7  -3   34.90    4.90
   3   7  -3   26.60    3.30
   3   7  -3   31.00    3.20
   3   7  -3   31.70    3.30
  -3   7   3   34.20    2.80
  -3   7   3   30.00    1.90
   3   7  -3   25.00    2.90
   3   7  -3   30.40    2.40
   2  -7  -3 1013.70   34.00
  -2  -7   3 1046.60   34.60
  -2  -7   3 1004.90   34.50
  -2  -7   3 1043.80   34.40
  -2  -7   3 1014.80   34.70
   2  -7  -3 1034.80   34.20
   2  -7  -3 1007.70   34.30
   2  -7  -3 1057.59   34.10
   2   7  -3 1010.70   33.90
  -2   7   3 1009.90   33.40
   2   7  -3 1040.90   34.10
   2   7  -3  997.50   34.20
   2   7  -3 1021.50   34.60
  -2   7   3 1038.50   33.30
   2   7  -3  997.80   33.40
   1  -7  -3  394.96   14.30
  -1  -7   3  374.16   14.60
  -1  -7   3  395.66   14.20
   1  -7  -3  408.16   14.70
   1  -7  -3  394.86   13.30
  -1  -7   3  389.86   14.40
  -1  -7   3  380.96   14.10
   1  -7  -3  403.96   14.30
   1  -7  -3  379.56   13.90
  -1  -7   3  378.16   13.90
   1  -7  -3  387.16   14.20
   1   7  -3  366.96   14.00
   1   7  -3  392.26   13.30
   1   7  -3  396.16   13.50
   1   7  -3  375.16   13.30
   1   7  -3  385.76   13.90
  -1   7   3  396.76   13.50
   1   7  -3  379.66   14.70
  -1   7   3  397.56   13.30
   0  -7   3  181.08    7.90
   0  -7   3  182.88    7.40
   0  -7  -3  175.38    7.10
   0  -7   3  170.58    7.70
   0  -7   3  179.48    8.00
   0  -7   3  177.28    7.60
   0  -7  -3  173.88    7.40
   0  -7  -3  186.58    8.10
   0  -7  -3  184.68    7.70
   0  -7  -3  184.68    8.10
   0  -7  -3  187.08    7.90
   0  -7   3  171.98    7.40
   0   7   3  178.38    7.40
   0   7   3  184.88    7.00
   0   7  -3  178.78    7.00
   0   7   3  190.08    6.80
   0   7  -3  186.68    6.80
   0   7   3  170.48    7.50
   0   7  -3  182.88    7.40
   0   7  -3  183.38    6.80
   0   7  -3  173.18    8.50
   1  -7   3  172.28    7.80
  -1  -7  -3  177.48    7.30
   1  -7   3  168.88    7.50
  -1  -7  -3  196.28    8.00
  -1  -7  -3  179.48    7.90
   1  -7   3  179.88    7.40
   1  -7   3  179.98    7.40
   1  -7   3  166.28    7.50
  -1  -7  -3  176.38    8.00
  -1  -7  -3  167.68    7.20
  -1  -7  -3  174.88    7.50
  -1   7  -3  178.28    6.70
   1   7   3  175.98    7.30
  -1   7  -3  170.18    9.00
   1   7   3  167.58    7.20
   1   7   3  183.78    6.80
  -1   7  -3  177.88    7.30
   1   7   3  182.98    6.90
  -1   7  -3  181.18    7.00
   2  -7   3  382.16   13.60
  -2  -7  -3  368.56   13.60
  -2  -7  -3  370.16   13.60
  -2  -7  -3  369.56   14.30
   2  -7   3  391.16   13.80
   2  -7   3  369.76   13.60
  -2  -7  -3  388.56   14.40
   2  -7   3  391.56   14.20
  -2  -7  -3  360.26   13.50
   2   7   3  385.66   13.60
  -2   7  -3  389.96   13.10
  -2   7  -3  375.26   13.10
  -2   7  -3  360.16   15.60
   2   7   3  395.66   13.50
  -2   7  -3  364.86   13.60
   2   7   3  386.86   13.20
   2   7   3  350.76   14.80
   2   7   3  387.46   13.80
  -2   7  -3  403.16   13.40
   2   7   3  385.26   13.30
   3  -7   3  117.89    5.30
   3  -7   3  108.09    5.60
  -3  -7  -3  120.29    6.20
   3  -7   3  126.19    5.70
   3  -7   3  119.69    6.10
  -3  -7  -3  117.49    5.70
  -3  -7  -3  120.89    5.60
  -3  -7  -3  108.99    6.20
   3   7   3  117.89    5.60
   3   7   3  120.29    5.40
  -3   7  -3  117.69    4.80
   3   7   3  106.59    7.00
  -3   7  -3  122.19    5.20
  -3   7  -3  116.29    4.80
   3   7   3  118.09    5.30
   3   7   3  120.99    4.90
   3   7   3  114.69    5.00
   4  -7   3   98.69    5.80
   4  -7   3   86.39    5.30
  -4  -7  -3   90.29    5.30
   4  -7   3   93.89    5.20
  -4  -7  -3  101.09    5.40
   4  -7   3   87.89    4.30
  -4  -7  -3   93.79    4.90
   4   7   3   88.79    4.40
   4   7   3   85.59    4.70
  -4   7  -3   92.79    4.00
   4   7   3   95.39    4.80
  -4   7  -3   87.69    4.00
   4   7   3   83.49    4.00
  -4   7  -3   89.69    4.30
   4   7   3   93.79    4.20
   4   7   3   87.69    5.90
   5  -7   3   55.79    4.20
  -5  -7  -3   57.79    3.90
   5  -7   3   54.69    4.30
  -5  -7  -3   54.79    3.70
   5  -7   3   54.09    3.10
  -5  -7  -3   55.99    3.50
   5  -7   3   57.79    3.80
   5   7   3   51.49    2.80
  -5   7  -3   54.09    2.80
   5   7   3   50.99    4.90
  -5   7  -3   51.89    2.90
   5   7   3   55.99    3.10
  -5   7  -3   56.79    2.90
   5   7   3   56.29    3.50
   6  -7   3   40.90    3.20
  -6  -7  -3   43.70    3.10
  -6  -7  -3   46.00    3.10
  -6  -7  -3   43.80    2.80
  -6   7  -3   45.00    2.50
   6   7   3   44.10    2.50
   6   7   3   45.40    3.20
  -6   7  -3   46.10    2.50
  -6   7  -3   36.30    2.70
  -7  -7  -3    2.60    1.20
   7   7   3    0.00    1.30
  -7   7  -3    1.10    0.90
   7  -8  -3    5.50    1.00
   7   8  -3    7.80    1.10
   7   8  -3    8.60    1.60
   6  -8  -3   19.00    1.90
  -6  -8   3   16.30    2.40
   6  -8  -3   17.60    3.00
   6  -8  -3   22.50    2.60
  -6  -8   3   15.20    2.40
  -6  -8   3   14.20    2.40
   6   8  -3   15.50    1.90
   6   8  -3   16.20    2.70
   5  -8  -3   24.80    3.50
   5  -8  -3   24.20    2.20
  -5  -8   3   21.20    3.00
   5  -8  -3   27.00    2.30
  -5  -8   3   28.30    3.40
  -5  -8   3   21.90    2.90
   5   8  -3   26.40    2.60
  -5   8   3   26.20    2.60
   5   8  -3   27.20    2.50
   5   8  -3   27.70    3.00
  -4  -8   3    7.80    1.90
  -4  -8   3    7.20    2.80
  -4  -8   3    6.10    2.00
  -4  -8   3    8.20    2.00
   4  -8  -3    8.20    2.20
   4  -8  -3    7.40    1.70
   4  -8  -3    5.80    2.30
   4  -8  -3    4.10    1.20
   4   8  -3    7.00    1.40
   4   8  -3    3.40    2.10
   4   8  -3    7.80    1.50
  -4   8   3    9.50    1.60
   4   8  -3    5.90    1.80
  -3  -8   3    2.30    2.00
  -3  -8   3   -0.60    1.90
   3  -8  -3    1.50    1.70
  -3  -8   3   -0.60    1.80
  -3  -8   3    0.20    2.40
   3  -8  -3    1.30    1.80
   3  -8  -3    1.70    1.50
   3   8  -3    5.10    1.60
   3   8  -3    4.70    1.90
   3   8  -3    0.90    1.50
  -3   8   3    1.80    1.30
   3   8  -3    5.20    2.10
   3   8  -3    0.80    1.40
  -3   8   3    1.90    0.90
  -2  -8   3  390.26   18.20
   2  -8  -3  467.45   16.20
   2  -8  -3  456.75   16.10
   2  -8  -3  451.95   16.30
  -2  -8   3  478.05   16.40
  -2  -8   3  455.15   16.70
  -2  -8   3  469.65   16.60
   2  -8  -3  477.65   16.30
  -2   8   3  451.85   15.40
   2   8  -3  451.45   16.40
   2   8  -3  430.06   15.30
   2   8  -3  443.36   15.40
   2   8  -3  446.96   16.10
   2   8  -3  444.96   15.90
   2   8  -3  521.65   19.70
  -2   8   3  463.35   15.50
   1  -8  -3  201.08    8.10
  -1  -8   3  184.18    8.10
  -1  -8   3  194.08    8.00
  -1  -8   3  194.38    8.10
   1  -8  -3  188.08    8.10
   1  -8  -3  200.38    8.10
  -1  -8   3  193.18    7.90
   1  -8  -3  190.08    7.70
  -1  -8   3  189.48    8.40
  -1   8   3  195.98    7.20
   1   8  -3  192.88    7.30
  -1   8   3  197.48    7.10
   1   8  -3  184.58    7.70
   1   8  -3  182.18    7.30
  -1   8   3  182.98    7.80
   1   8  -3  181.88    8.90
   0  -8   3   13.80    2.40
   0  -8   3   20.10    3.20
   0  -8   3   21.00    2.90
   0  -8   3   17.00    2.70
   0  -8  -3   22.60    2.90
   0  -8   3   21.10    2.50
   0  -8  -3   16.10    2.00
   0  -8  -3   22.40    2.90
   0  -8  -3   20.30    2.70
   0  -8  -3   22.20    3.60
   0   8  -3   21.10    2.40
   0   8   3   20.30    3.20
   0   8   3   21.60    2.10
   0   8  -3   20.70    2.80
   0   8  -3   18.50    3.60
   0   8  -3   16.70    2.10
   0   8   3   21.50    3.10
   0   8   3   21.10    1.90
   0   8   3   20.90    3.50
  -1  -8  -3   76.59    4.20
   1  -8   3   76.09    4.50
  -1  -8  -3   85.39    5.20
   1  -8   3   73.09    4.40
  -1  -8  -3   72.49    4.80
  -1  -8  -3   79.39    4.40
   1  -8   3   76.59    4.50
  -1  -8  -3   70.89    4.20
   1  -8   3   86.59    4.80
   1  -8   3   73.29    4.90
  -1   8  -3   79.49    4.00
   1   8   3   78.89    3.70
   1   8   3   81.29    3.80
  -1   8  -3   80.89    3.70
   1   8   3   82.19    4.20
  -1   8  -3   85.19    4.40
  -1   8  -3   80.89    3.60
   1   8   3   79.09    4.20
   1   8   3   81.59    4.40
  -2  -8  -3   55.89    4.00
   2  -8   3   52.49    3.70
  -2  -8  -3   53.09    3.50
   2  -8   3   57.29    4.10
  -2  -8  -3   54.59    4.40
  -2  -8  -3   56.69    3.60
   2  -8   3   57.59    3.90
   2  -8   3   56.59    3.50
   2   8   3   58.19    3.50
   2   8   3   50.39    3.00
   2   8   3   55.99    3.70
   2   8   3   56.79    3.40
  -2   8  -3   58.09    4.30
   2   8   3   55.19    3.00
  -2   8  -3   60.89    3.30
  -2   8  -3   56.89    2.90
  -2   8  -3   57.59    3.00
   3  -8   3   58.49    3.70
  -3  -8  -3   68.89    6.00
  -3  -8  -3   59.79    4.40
   3  -8   3   54.59    4.00
   3   8   3   68.19    3.80
   3   8   3   57.29    3.50
   3   8   3   65.19    3.80
  -3   8  -3   62.79    3.10
   3   8   3   62.79    3.10
   3   8   3   59.29    7.30
  -3   8  -3   67.19    3.10
  -4  -8  -3   90.79    4.40
  -4  -8  -3   90.29    4.60
   4  -8   3   93.19    5.00
   4  -8   3   88.59    4.00
   4  -8   3   97.59    5.30
   4  -8   3   93.79    4.70
  -4  -8  -3   85.29    4.70
   4   8   3   90.09    4.20
  -4   8  -3   89.19    3.90
  -4   8  -3   88.49    4.00
   4   8   3   90.99    4.60
  -4   8  -3   90.09    3.90
   4   8   3   87.29    3.90
   4   8   3   91.49    3.80
  -5  -8  -3   56.39    3.40
  -5  -8  -3   53.59    3.20
   5  -8   3   53.79    3.60
  -5  -8  -3   54.69    3.00
   5   8   3   54.09    2.80
   5   8   3   52.19    4.20
  -5   8  -3   56.59    3.00
   5   8   3   54.79    3.60
  -5   8  -3   47.80    3.30
  -5   8  -3   55.99    2.70
   6  -8   3   19.20    2.50
  -6  -8  -3   18.30    2.40
  -6  -8  -3   16.30    1.90
   6   8   3   18.90    1.80
  -6   8  -3   18.70    1.60
   6  -9  -3    6.20    1.10
   6   9  -3    7.80    1.30
  -5  -9   3   16.60    2.60
   5  -9  -3   14.40    1.80
  -5  -9   3   16.40    2.70
   5  -9  -3   13.10    1.70
  -5  -9   3   16.20    3.10
   5   9  -3   15.80    2.40
   5   9  -3   13.00    2.00
   5   9  -3   14.60    2.40
   4  -9  -3   35.20    2.50
  -4  -9   3   32.40    3.00
  -4  -9   3   32.20    2.80
  -4  -9   3   32.10    2.90
   4  -9  -3   35.20    2.40
   4   9  -3   33.10    2.40
   4   9  -3   36.20    2.70
   4   9  -3   33.30    3.90
  -4   9   3   30.00    2.60
   3  -9  -3  118.69    5.30
   3  -9  -3  119.99    5.10
  -3  -9   3  112.69    5.40
  -3  -9   3  114.79    5.30
   3  -9  -3  112.59    5.00
  -3  -9   3  112.79    5.50
   3   9  -3  114.29    5.10
  -3   9   3  112.59    4.60
   3   9  -3  118.69    5.00
  -2  -9   3   25.70    2.80
  -2  -9   3   21.70    3.10
   2  -9  -3   29.00    2.70
   2  -9  -3   27.60    2.50
  -2  -9   3   24.20    3.20
  -2  -9   3   25.00    3.00
   2  -9  -3   26.90    2.70
   2   9  -3   23.30    2.00
  -2   9   3   26.60    2.80
   2   9  -3   27.70    2.40
  -2   9   3   24.60    3.10
  -2   9   3   27.00    2.10
  -1  -9   3   37.50    3.50
  -1  -9   3   39.20    3.40
   1  -9  -3   42.90    3.30
   1  -9  -3   38.20    3.40
   1  -9  -3   43.10    2.90
  -1  -9   3   43.00    3.60
  -1  -9   3   36.90    3.10
   1  -9  -3   41.60    3.20
   1   9  -3   38.90    2.60
   1   9  -3   39.10    2.90
  -1   9   3   39.10    2.40
   1   9  -3   29.60    5.50
  -1   9   3   44.30    3.10
   1   9  -3   38.80    2.40
  -1   9   3   38.20    2.40
   0  -9  -3    9.40    1.70
   0  -9   3   10.80    1.80
   0  -9  -3   17.80    2.30
   0  -9  -3   16.80    2.50
   0  -9   3   11.30    2.10
   0  -9   3   17.80    2.80
   0  -9  -3   16.00    2.40
   0  -9   3    8.70    1.70
   0   9   3   14.20    2.30
   0   9  -3   10.00    4.30
   0   9  -3   15.00    1.80
   0   9   3   13.70    1.70
   0   9  -3    7.50    2.20
   0   9   3   13.50    1.70
   0   9  -3   10.60    1.70
   1  -9   3    3.40    1.70
  -1  -9  -3    8.30    1.80
  -1  -9  -3    9.30    2.10
  -1  -9  -3    7.20    1.50
   1  -9   3    3.70    1.90
  -1  -9  -3    8.10    1.70
   1  -9   3    5.50    1.40
  -1  -9  -3    7.40    1.40
  -1   9  -3    4.50    1.10
   1   9   3    6.50    1.20
  -1   9  -3    5.90    1.80
  -1   9  -3    7.10    1.70
  -1   9  -3    7.00    1.20
   1   9   3    8.30    1.30
   1   9   3    6.80    1.60
   1   9   3    9.60    1.80
  -2  -9  -3   11.60    2.10
  -2  -9  -3   12.40    1.60
   2  -9   3   13.40    2.10
   2  -9   3   15.80    2.00
  -2  -9  -3   13.90    2.20
   2  -9   3   16.30    2.30
   2   9   3   16.60    1.90
  -2   9  -3   13.20    2.00
   2   9   3   11.40    1.70
  -2   9  -3   13.70    1.80
   2   9   3   14.90    2.10
  -2   9  -3   14.60    1.60
   2   9   3   13.90    2.10
   2   9   3   16.70    2.90
  -2   9  -3    8.40    2.70
  -3  -9  -3    4.90    1.40
   3  -9   3    5.70    1.20
  -3  -9  -3    5.40    1.20
  -3  -9  -3    3.70    1.80
   3  -9   3    6.20    1.60
   3  -9   3    7.60    1.90
   3   9   3    5.50    1.20
  -3   9  -3    6.30    1.10
  -3   9  -3    6.30    1.20
   3   9   3    5.10    1.10
   3   9   3    6.90    2.10
   3   9   3    3.30    2.30
   3   9   3    6.10    1.00
  -3   9  -3    5.80    1.50
   4  -9   3   15.70    2.50
   4  -9   3   12.40    2.30
  -4  -9  -3   14.60    1.90
  -4  -9  -3   15.40    1.80
   4   9   3   10.50    1.70
  -4   9  -3   11.70    1.40
   4   9   3   13.70    2.00
   4   9   3   11.90    1.70
  -4   9  -3   14.30    1.60
  -5  -9  -3    5.00    1.00
   5   9   3    4.80    1.20
  -5   9  -3    3.10    0.70
  -4 -10   3    3.50    1.50
  -4 -10   3    6.40    1.20
   4 -10  -3    6.40    1.10
   4  10  -3    7.10    1.30
   3 -10  -3   28.70    2.10
  -3 -10   3   29.70    2.40
  -3 -10   3   25.80    3.20
   3 -10  -3   35.30    2.30
  -3 -10   3   40.90    4.40
  -3 -10   3   35.00    2.40
  -3  10   3   28.30    2.10
   3  10  -3   28.20    2.10
  -3  10   3   34.40    2.90
  -2 -10   3    2.60    2.10
   2 -10  -3    3.60    1.00
   2 -10  -3    4.90    1.20
  -2 -10   3    4.90    1.30
  -2 -10   3    4.70    1.40
   2 -10  -3    5.20    1.30
  -2 -10   3    8.30    1.70
  -2  10   3    4.60    1.40
   2  10  -3    4.60    1.30
  -2  10   3    3.00    1.30
  -2  10   3    5.50    2.00
  -2  10   3    5.30    1.10
   1 -10  -3    3.70    1.20
  -1 -10   3    5.60    1.30
  -1 -10   3    6.20    1.40
  -1 -10   3   14.10    3.40
   1 -10  -3    7.70    1.40
  -1 -10   3    6.60    1.80
   1 -10  -3    6.40    1.20
  -1  10   3    6.00    1.20
  -1  10   3    5.80    1.20
   1  10  -3    6.50    1.30
   1  10  -3    6.50    1.00
  -1  10   3    5.70    1.40
   0 -10   3   -0.10    1.10
   0 -10   3   -1.30    1.40
   0 -10  -3    0.00    1.60
   0 -10  -3   -0.20    1.00
   0 -10  -3    0.90    1.20
   0 -10  -3    0.20    1.20
   0  10   3    0.80    1.10
   0  10   3   -0.20    0.80
   0  10  -3    0.80    1.00
   0  10  -3    0.70    1.40
   0  10  -3    0.80    0.80
   0  10   3    0.00    0.90
  -1 -10  -3   32.80    2.70
  -1 -10  -3   35.50    2.50
   1 -10   3   29.20    2.30
   1 -10   3   33.70    2.90
  -1  10  -3   31.50    2.20
  -1  10  -3   36.00    2.00
   1  10   3   33.40    2.10
   1  10   3   36.40    2.70
  -1  10  -3   33.30    2.90
  -2 -10  -3   22.90    2.10
   2 -10   3   21.00    2.40
   2 -10   3   21.70    2.80
  -2  10  -3   24.60    1.90
   2  10   3   20.60    1.80
   2  10   3   24.00    1.60
  -2  10  -3   21.80    1.70
   3 -10   3    2.80    1.50
  -3 -10  -3    2.30    1.00
  -3 -10  -3    0.50    1.60
  -3 -10  -3    2.10    1.00
   3 -10   3    0.30    1.40
  -3  10  -3   -2.10    1.50
  -3  10  -3    0.20    1.00
   3  10   3    1.80    1.00
   3  10   3    1.90    0.80
  -4  10  -3    9.70    1.40
  -2 -11   3   23.60    2.00
   2 -11  -3   21.50    1.80
   2  11  -3   23.00    1.80
  -1 -11   3   79.59    3.40
   1 -11  -3   82.19    3.40
  -1  11   3   86.49    3.30
   1  11  -3   81.99    3.50
   0 -11  -3   25.00    1.90
   0 -11   3   26.90    3.00
   0  11   3   27.50    2.00
   0  11   3   24.70    1.60
  -1 -11  -3   10.40    1.60
   1  11   3    6.50    1.20
   1  11   3    5.80    1.00
  10   0  -4   19.10    2.90
  -9   0   4    2.40    1.60
   9   0  -4    1.80    1.80
  -9   0   4    2.10    1.50
   9   0  -4    2.40    1.70
  -9   0   4    0.70    1.70
   8   0  -4   -3.30    2.80
  -8   0   4    3.00    1.50
   8   0  -4    0.40    1.90
  -8   0   4    3.30    2.40
  -8   0   4    0.90    1.40
   8   0  -4    2.30    2.50
  -8   0   4    2.00    5.20
   8   0  -4    1.70    2.20
   7   0  -4  213.88    9.80
   7   0  -4  205.68   10.10
   7   0  -4  206.98   10.50
  -7   0   4  225.78    8.50
   7   0  -4  218.18    8.90
  -7   0   4  231.28    8.20
  -6   0   4  141.59    5.50
   6   0  -4  143.09    7.90
  -6   0   4  140.19    6.00
   6   0  -4  145.39    7.60
   6   0  -4  128.29    6.30
   6   0  -4  134.19    6.40
   6   0  -4  140.19    8.00
   6   0  -4  127.29    7.00
   5   0  -4   26.00    3.30
   5   0  -4   33.10    4.40
   5   0  -4   27.10    3.90
   5   0  -4   28.10    3.40
  -5   0   4   30.70    3.20
   5   0  -4   39.50    4.10
   5   0  -4   36.40    3.70
   5   0  -4   28.70    4.50
   4   0  -4  311.47   13.70
   4   0  -4  365.46   12.80
   4   0  -4  366.16   14.00
   4   0  -4  359.96   12.70
   4   0  -4  351.46   13.40
   4   0  -4  345.57   12.70
  -4   0   4  366.96   11.80
   3   0  -4  957.40   31.30
   3   0  -4  925.01   30.60
   3   0  -4  957.20   30.50
   2   0  -4  104.39    4.00
  -2   0   4  104.49    3.90
  -2   0   4  110.39    4.10
  -1   0   4  586.74   19.00
  -1   0   4  581.84   19.40
   0   0   4  318.77   11.10
   0   0   4  320.57   11.20
   0   0   4  331.77   11.40
   0   0  -4  337.37   11.30
   0   0   4  328.17   11.30
   0   0  -4  342.27   11.10
   1   0   4 1947.91   63.29
  -1   0  -4 1932.11   62.79
   1   0   4 1899.71   62.69
  -1   0  -4 2008.00   62.99
  -2   0  -4  796.92   25.60
   2   0   4  801.62   25.80
   2   0   4  765.12   26.40
   2   0   4  793.02   26.00
   2   0   4  781.52   25.70
  -2   0  -4  758.62   26.20
  -2   0  -4  816.12   26.60
  -3   0  -4  435.96   15.30
   3   0   4  442.26   16.10
   3   0   4  478.95   15.80
  -3   0  -4  455.95   15.60
   3   0   4  469.55   15.50
   3   0   4  449.46   16.10
  -3   0  -4  472.75   15.50
  -3   0  -4  475.35   16.20
   3   0   4  468.85   16.80
   3   0   4  461.25   15.50
  -3   0  -4  446.46   16.90
   4   0   4   61.19    3.90
  -4   0  -4   58.39    3.10
  -4   0  -4   65.29    4.00
  -4   0  -4   64.39    3.20
   4   0   4   61.19    4.30
   4   0   4   60.79    3.70
   4   0   4   61.09    3.90
  -4   0  -4   62.79    4.20
  -4   0  -4   66.19    3.50
   4   0   4   59.99    3.40
  -5   0  -4   30.20    3.30
   5   0   4   25.00    2.70
   5   0   4   31.40    3.50
  -5   0  -4   30.40    2.70
  -5   0  -4   33.10    4.00
   5   0   4   31.50    2.90
  -5   0  -4   24.60    2.80
   5   0   4   29.40    5.80
   5   0   4   29.10    3.60
   6   0   4  147.99    6.60
  -6   0  -4  151.38    8.20
  -6   0  -4  148.59    6.10
   6   0   4  146.59    6.20
  -6   0  -4  145.89    6.80
  -6   0  -4  142.69    6.20
   6   0   4  143.09    6.80
  -6   0  -4  139.79    5.90
   6   0   4  139.09    6.00
  -7   0  -4   -2.90    2.70
   7   0   4    0.20    1.30
  -7   0  -4   -1.80    3.90
  -7   0  -4    2.80    1.20
   7   0   4    0.30    1.30
  -7   0  -4   -0.20    1.50
   7   0   4    2.90    1.70
  -7   0  -4    0.70    1.40
  -8   0  -4    7.40    1.50
  -8   0  -4   11.40    1.90
   8   0   4   11.20    1.50
   8   0   4    9.40    1.30
  -9  -1   4  118.69    4.90
   9  -1  -4  105.89    4.90
  -9  -1   4  118.29    5.20
  -9  -1   4  117.89    5.00
   9  -1  -4  113.19    5.80
   9  -1  -4  117.69    5.50
   9   1  -4  111.99    5.80
  -9   1   4  108.59    4.90
   9   1  -4  112.99    5.40
  -9   1   4  104.69    5.60
  -8  -1   4   41.60    2.90
  -8  -1   4   33.80    3.80
  -8  -1   4   43.20    3.00
  -8  -1   4   29.90    4.80
   8  -1  -4   37.00    3.30
   8  -1  -4   45.30    4.60
   8  -1  -4   39.20    4.10
  -8   1   4   35.30    3.00
   8   1  -4   34.90    4.10
   8   1  -4   42.50    4.60
   8   1  -4   39.60    4.40
  -8   1   4   34.50    3.20
   7  -1  -4 1050.59   33.60
  -7  -1   4  968.20   33.90
   7  -1  -4  949.71   35.00
   7  -1  -4 1035.20   34.80
  -7  -1   4 1026.60   33.30
   7  -1  -4  992.90   35.50
  -7  -1   4  978.50   33.90
  -7  -1   4  995.20   33.40
   7   1  -4 1028.70   33.80
  -7   1   4 1049.30   33.30
   7   1  -4 1014.80   34.80
  -7   1   4  990.10   33.00
   7   1  -4  989.40   33.70
   7   1  -4 1021.00   35.10
   7   1  -4  999.40   33.60
   7   1  -4 1007.20   34.10
  -6  -1   4   74.69    6.40
  -6  -1   4   82.69    3.80
   6  -1  -4   73.69    4.50
   6  -1  -4   75.19    6.10
   6  -1  -4   83.19    5.50
  -6  -1   4   82.09    4.30
   6  -1  -4   76.89    6.10
   6   1  -4   77.79    5.00
   6   1  -4   81.49    5.90
   6   1  -4   82.39    5.10
   6   1  -4   75.59    6.10
  -6   1   4   78.39    5.00
  -6   1   4   77.29    4.70
   6   1  -4   84.99    4.80
   6   1  -4   76.69    4.90
  -5  -1   4   21.40    2.50
  -5  -1   4   23.30    1.90
   5  -1  -4   27.70    4.50
   5  -1  -4   22.40    4.10
   5  -1  -4   20.90    3.30
   5  -1  -4   17.50    3.50
   5  -1  -4   22.80    3.20
   5   1  -4   22.00    2.90
   5   1  -4   15.80    3.10
   5   1  -4   23.40    4.10
   5   1  -4   17.80    3.10
   5   1  -4   24.30    3.10
   4  -1  -4 1498.35   50.49
   4  -1  -4 1387.46   49.80
  -4  -1   4 1552.54   48.80
  -4  -1   4 1572.34   49.00
   4  -1  -4 1490.35   50.59
   4   1  -4 1552.14   49.40
   4   1  -4 1514.45   49.40
  -4   1   4 1540.55   48.40
   4   1  -4 1442.26   50.49
   4   1  -4 1557.24   49.60
   4   1  -4 1529.75   50.19
  -3  -1   4  233.68    8.10
  -3  -1   4  223.78    8.40
   3   1  -4  238.88    8.40
   3   1  -4  235.58    8.80
  -2  -1   4  246.78    8.70
  -2  -1   4  243.78    8.90
  -2  -1   4  242.38    8.70
  -2  -1   4  240.08    8.40
   2   1  -4  261.07    8.00
  -2   1   4  240.98    8.20
  -2   1   4  240.48    8.10
   2   1  -4  243.68    9.60
  -1  -1   4 2057.49   65.79
  -1  -1   4 2085.69   65.69
  -1  -1   4 2110.19   65.59
  -1  -1   4 1983.30   65.49
   1   1  -4 1984.10   65.89
  -1   1   4 1999.90   65.49
   1   1  -4 2073.99   65.69
  -1   1   4 2034.90   65.19
   0  -1  -4 1521.15   49.70
   0  -1   4 1534.95   50.19
   0  -1  -4 1566.84   49.60
   0  -1   4 1563.44   50.09
   0  -1   4 1598.54   49.90
   0   1   4 1563.94   49.99
   0   1  -4 1591.94   50.19
   0   1   4 1552.84   49.99
   0   1   4 1456.55   49.70
   0   1  -4 1544.65   49.99
   1  -1   4  564.04   19.10
  -1  -1  -4  568.34   19.40
   1  -1   4  582.14   19.70
   1  -1   4  584.64   19.30
  -1  -1  -4  571.44   19.10
   1   1   4  585.94   19.10
  -1   1  -4  568.94   18.90
   1   1   4  569.64   19.40
  -1   1  -4  578.94   18.80
  -1   1  -4  601.64   19.60
   1   1   4  563.24   19.20
  -1   1  -4  587.34   19.40
   2  -1   4  446.56   14.30
   2  -1   4  433.46   14.30
  -2  -1  -4  355.26   15.20
  -2  -1  -4  429.06   14.70
   2  -1   4  402.46   14.50
  -2  -1  -4  432.16   15.10
   2  -1   4  442.26   15.10
  -2   1  -4  439.66   14.20
  -2   1  -4  429.46   14.20
  -2   1  -4  437.56   14.90
   2   1   4  439.26   15.10
   2   1   4  419.26   14.30
   2   1   4  435.66   14.40
   2   1   4  398.46   14.50
  -2   1  -4  432.16   15.10
   3  -1   4  236.98    8.50
  -3  -1  -4  232.28    9.20
   3  -1   4  230.28    8.70
   3  -1   4  225.08    8.50
  -3  -1  -4  247.08    8.50
   3  -1   4  225.28    9.00
  -3  -1  -4  224.78    8.70
  -3  -1  -4  254.87    9.20
  -3  -1  -4  232.48    8.50
   3  -1   4  240.28    9.20
  -3   1  -4  233.08    8.30
   3   1   4  234.98    8.80
  -3   1  -4  245.08   10.20
  -3   1  -4  244.18    9.30
   3   1   4  236.98    8.40
   3   1   4  235.88   10.00
  -3   1  -4  235.38    8.60
  -3   1  -4  245.78    8.40
   3   1   4  219.58    9.40
   3   1   4  245.58    9.60
   3   1   4  247.38    8.80
   3   1   4  235.68    8.50
  -4  -1  -4  310.37   11.00
   4  -1   4  316.27   11.50
  -4  -1  -4  300.67   11.90
   4  -1   4  320.47   11.40
   4  -1   4  316.77   11.40
  -4  -1  -4  322.37   12.00
  -4  -1  -4  309.17   11.20
   4  -1   4  307.37   11.70
  -4  -1  -4  316.97   11.10
   4   1   4  308.07   11.60
   4   1   4  310.07   11.70
  -4   1  -4  312.87   11.20
   4   1   4  293.77   11.40
  -4   1  -4  325.67   11.00
  -4   1  -4  310.97   10.90
   4   1   4  316.07   11.00
   4   1   4  320.87   11.40
  -4   1  -4  323.07   12.20
   4   1   4  317.07   11.10
   5  -1   4   40.80    3.20
  -5  -1  -4   45.10    3.80
  -5  -1  -4   39.40    2.90
   5  -1   4   40.50    3.00
  -5  -1  -4   47.00    3.20
   5  -1   4   44.00    3.60
   5  -1   4   42.60    3.80
  -5  -1  -4   35.50    4.00
  -5   1  -4   41.00    2.60
  -5   1  -4   43.50    2.70
   5   1   4   41.80    3.10
   5   1   4   38.90    4.10
   5   1   4   40.80    3.90
   5   1   4   42.70    3.20
  -5   1  -4   36.00    4.60
  -5   1  -4   37.30    3.00
   6  -1   4   20.10    5.90
   6  -1   4   33.60    3.70
   6  -1   4   27.60    3.20
  -6  -1  -4   23.80    3.30
  -6  -1  -4   27.30    4.70
  -6  -1  -4   25.40    2.70
   6  -1   4   26.60    3.10
  -6  -1  -4   26.10    2.70
   6   1   4   29.90    2.80
   6   1   4   25.20    2.80
  -6   1  -4   28.60    2.40
  -6   1  -4   33.50    5.60
   6   1   4   28.40    3.40
   6   1   4   21.00    3.60
  -6   1  -4   27.10    3.10
  -6   1  -4   23.20    2.60
  -6   1  -4   29.20    2.60
  -7  -1  -4   30.80    3.00
   7  -1   4   34.80    2.80
  -7  -1  -4   32.60    2.50
   7  -1   4   36.50    3.10
   7  -1   4   34.50    3.00
  -7  -1  -4   27.60    3.40
  -7  -1  -4   30.50    5.80
  -7   1  -4   35.60    3.10
  -7   1  -4   35.00    2.60
  -7   1  -4   32.90    2.50
  -7   1  -4   26.20    3.50
   7   1   4   28.80    2.60
   7   1   4   30.80    3.50
  -7   1  -4   32.10    5.30
   8  -1   4   31.80    2.70
   8  -1   4   28.70    2.20
  -8  -1  -4   31.10    2.70
  -8  -1  -4   28.30    2.70
  -8   1  -4   26.80    2.10
   8   1   4   26.20    2.10
  -8   1  -4   25.40    2.60
   8   1   4   27.60    2.30
  -8   1  -4   23.50    3.30
   9  -2  -4  148.19    7.20
  -9  -2   4  172.28    6.30
   9  -2  -4  173.18    7.00
   9  -2  -4  167.78    6.40
  -9  -2   4  175.08    6.40
   9   2  -4  158.88    7.20
  -9   2   4  150.18    6.70
   9   2  -4  149.99    7.10
   9   2  -4  167.58    6.80
   8  -2  -4   34.50    3.70
  -8  -2   4   37.50    2.80
   8  -2  -4   29.40    4.10
  -8  -2   4   41.90    4.90
  -8  -2   4   30.50    3.10
  -8  -2   4   40.40    3.30
   8  -2  -4   33.90    3.10
   8   2  -4   30.70    3.70
  -8   2   4   35.60    3.60
   8   2  -4   35.60    4.10
  -8   2   4   30.00    2.90
   8   2  -4   31.40    4.00
  -7  -2   4  163.38    6.70
  -7  -2   4  165.88    6.70
  -7  -2   4  160.58    7.50
   7  -2  -4  172.98    9.00
   7  -2  -4  158.38    8.00
  -7  -2   4  160.08    8.00
   7  -2  -4  160.08    6.90
   7   2  -4  160.68    7.20
   7   2  -4  153.18    8.60
   7   2  -4  165.18    8.30
   7   2  -4  155.08    7.50
   7   2  -4  162.98    7.20
   7   2  -4  168.18    8.50
  -7   2   4  159.48    6.30
  -6  -2   4  167.28    6.40
  -6  -2   4  158.98    6.50
   6  -2  -4  150.28    7.70
   6  -2  -4  164.28    6.70
   6  -2  -4  127.49    8.40
   6  -2  -4  140.89    8.40
  -6  -2   4  154.28    7.40
  -6  -2   4  141.09    8.10
  -6   2   4  160.68    5.90
   6   2  -4  156.08    7.40
   6   2  -4  161.68    7.00
   6   2  -4  161.38    7.20
   6   2  -4  155.38    8.50
   6   2  -4  157.08    8.10
   6   2  -4  158.88    7.00
   5  -2  -4   57.49    3.70
  -5  -2   4   63.99    3.50
  -5  -2   4   59.49    3.20
   5  -2  -4   49.90    5.60
  -5  -2   4   59.39    5.20
   5   2  -4   62.59    5.00
   5   2  -4   56.29    5.20
   5   2  -4   56.29    3.90
  -5   2   4   56.59    2.70
   5   2  -4   61.39    4.00
   4  -2  -4   59.79    5.50
   4  -2  -4   62.29    5.60
  -4  -2   4   71.89    6.10
   4  -2  -4   61.89    4.80
  -4  -2   4   64.19    3.10
   4  -2  -4   62.69    4.00
   4  -2  -4   55.59    6.20
  -4  -2   4   65.49    3.40
   4   2  -4   62.09    4.00
   4   2  -4   77.79    7.10
   4   2  -4   63.09    3.90
   4   2  -4   59.59    5.50
   4   2  -4   70.89    5.30
   4   2  -4   63.19    3.70
   4   2  -4   57.69    4.90
  -3  -2   4  388.86   13.80
  -3  -2   4  384.76   13.20
   3  -2  -4  429.16   17.20
   3  -2  -4  371.06   15.30
  -3  -2   4  386.86   13.10
   3   2  -4  387.66   14.60
   3   2  -4  362.96   13.50
   3   2  -4  383.86   12.60
   3   2  -4  376.86   13.60
  -2  -2   4 1320.17   42.10
  -2  -2   4 1304.67   42.20
  -2  -2   4 1266.87   41.80
  -2  -2   4 1263.37   41.70
   2   2  -4 1281.97   42.10
   2   2  -4 1273.97   42.10
   2   2  -4 1317.77   41.70
  -1  -2   4 2417.46   79.89
  -1  -2   4 2472.25   79.49
  -1  -2   4 2514.55   79.79
   1   2  -4 2544.85   79.69
   1   2  -4 2466.35   79.89
  -1   2   4 2523.75   79.29
   1   2  -4 2421.56   79.79
  -1   2   4 2482.85   79.09
   0  -2   4 3688.73  122.49
   0  -2   4 3819.42  121.19
   0  -2  -4 3815.22  121.39
   0  -2   4 3619.14  121.39
   0   2   4 3881.21  121.49
   0   2   4 3799.52  121.39
   0   2  -4 3958.10  121.69
   0   2  -4 3767.72  120.89
   1  -2   4  724.13   23.60
   1  -2   4  720.43   23.60
  -1  -2  -4  726.53   23.60
  -1  -2  -4  699.83   24.10
   1  -2   4  735.13   23.90
  -1   2  -4  724.13   24.20
  -1   2  -4  680.43   24.10
   1   2   4  722.13   23.60
   1   2   4  730.63   24.10
   1   2   4  733.63   23.90
   1   2   4  729.43   23.50
  -1   2  -4  712.03   23.40
   2  -2   4  681.53   23.20
  -2  -2  -4  681.13   22.40
  -2  -2  -4  650.93   23.00
  -2  -2  -4  690.43   23.10
   2  -2   4  658.23   22.60
   2  -2   4  675.73   22.10
   2  -2   4  679.63   22.50
   2  -2   4  643.54   22.70
  -2  -2  -4  655.53   23.00
  -2   2  -4  656.93   22.80
   2   2   4  683.73   22.10
   2   2   4  659.43   22.90
  -2   2  -4  680.73   23.10
   2   2   4  663.53   22.20
  -2   2  -4  670.33   22.20
   2   2   4  686.93   22.50
  -2   2  -4  669.53   21.90
  -2   2  -4  675.03   21.90
   3  -2   4  129.49    5.60
   3  -2   4  131.09    6.00
   3  -2   4  123.29    5.60
  -3  -2  -4  129.19    5.70
   3  -2   4  125.69    6.40
  -3  -2  -4  140.09    6.30
  -3  -2  -4  135.79    5.90
  -3  -2  -4  120.69    6.30
  -3   2  -4  132.59    5.30
   3   2   4  114.39    6.70
  -3   2  -4  131.79    6.00
   3   2   4  140.19    5.60
   3   2   4  123.49    7.10
   3   2   4  131.59    5.10
   3   2   4  128.59    5.60
   3   2   4  118.79    5.10
  -3   2  -4  135.29    5.00
  -3   2  -4  128.39    4.90
  -4  -2  -4   67.19    4.20
   4  -2   4   74.99    3.80
  -4  -2  -4   65.29    3.80
   4  -2   4   82.99    4.80
  -4  -2  -4   65.89    3.90
   4  -2   4   74.99    4.50
   4  -2   4   64.19    4.40
  -4  -2  -4   72.79    4.40
   4  -2   4   68.29    4.00
  -4   2  -4   75.79    5.10
   4   2   4   65.59    5.40
   4   2   4   69.39    3.70
   4   2   4   67.49    3.90
  -4   2  -4   74.29    3.30
   4   2   4   68.09    3.60
   4   2   4   59.09    4.50
  -4   2  -4   68.39    3.70
   4   2   4   67.59    3.90
   4   2   4   66.99    3.90
   4   2   4   70.69    4.70
  -4   2  -4   68.49    3.20
   5  -2   4   38.10    3.50
  -5  -2  -4   37.40    3.20
   5  -2   4   40.90    3.80
  -5  -2  -4   38.50    4.00
  -5  -2  -4   38.00    3.40
   5  -2   4   44.30    3.00
  -5  -2  -4   38.60    3.70
   5  -2   4   34.10    3.50
   5   2   4   40.70    3.90
  -5   2  -4   39.00    3.10
   5   2   4   37.70    4.50
   5   2   4   39.40    3.20
  -5   2  -4   47.90    5.40
   5   2   4   43.50    3.20
  -5   2  -4   39.30    2.60
   5   2   4   43.60    3.50
  -5   2  -4   43.70    2.60
   5   2   4   40.30    3.20
  -6  -2  -4  107.39    5.60
   6  -2   4   98.69    5.20
  -6  -2  -4  103.09    4.80
  -6  -2  -4  107.29    7.10
   6  -2   4   99.79    5.40
   6  -2   4  100.09    5.10
  -6   2  -4   92.99    4.50
   6   2   4  101.49    5.80
   6   2   4   85.09    6.50
   6   2   4  101.39    5.40
  -6   2  -4  100.89    4.70
   6   2   4   97.49    4.80
  -6   2  -4  106.09    4.40
  -7  -2  -4   98.79    4.90
   7  -2   4   95.19    4.40
   7  -2   4   95.99    4.90
  -7  -2  -4   87.19    4.20
  -7  -2  -4   81.49    6.70
  -7  -2  -4   92.89    4.80
  -7   2  -4   89.89    4.70
  -7   2  -4   93.49    4.10
  -7   2  -4   95.19    4.20
   7   2   4   92.49    4.60
  -7   2  -4   97.19    4.70
   7   2   4   92.59    4.40
  -8  -2  -4   36.50    2.80
  -8  -2  -4   33.10    2.80
   8  -2   4   36.90    2.30
   8  -2   4   32.80    2.70
   8  -2   4   36.90    4.80
   8   2   4   37.90    2.50
   8   2   4   37.60    2.60
  -8   2  -4   38.20    2.60
  -8   2  -4   28.40    2.90
  -8   2  -4   39.60    2.30
  -9  -3   4  420.76   13.20
  -9  -3   4  406.46   13.10
   9  -3  -4  361.96   13.90
   9  -3  -4  394.86   13.70
   9  -3  -4  401.56   13.70
   9   3  -4  339.87   15.70
   9   3  -4  365.06   13.60
   8  -3  -4    4.20    2.50
  -8  -3   4   10.00    3.00
   8  -3  -4    6.10    2.00
  -8  -3   4    6.10    1.80
   8  -3  -4    6.50    1.70
  -8  -3   4    5.00    1.40
  -8  -3   4    7.90    1.50
  -8   3   4    5.70    2.20
   8   3  -4   10.50    2.50
   8   3  -4    8.30    2.60
   8   3  -4    9.70    2.60
   8   3  -4    5.70    1.90
   8   3  -4    7.90    1.90
   7  -3  -4  142.99    7.30
  -7  -3   4  134.39    6.60
   7  -3  -4  142.79    6.20
   7  -3  -4  147.89    8.20
  -7  -3   4  136.39    6.20
  -7  -3   4  143.39    8.10
  -7  -3   4  145.29    6.20
  -7   3   4  143.19    5.80
   7   3  -4  149.99    6.50
   7   3  -4  146.79    6.80
   7   3  -4  145.39    8.00
   7   3  -4  148.79    7.60
   6  -3  -4   86.49    4.40
   6  -3  -4   74.59    5.40
  -6  -3   4   85.29    4.40
  -6  -3   4   84.69    4.20
   6  -3  -4   82.59    6.60
  -6  -3   4   81.69    5.20
  -6  -3   4   72.79    6.10
   6   3  -4   81.59    4.60
   6   3  -4   86.29    6.00
   6   3  -4   76.29    6.30
   6   3  -4   77.79    4.90
  -6   3   4   89.19    4.00
   6   3  -4   80.79    4.90
   5  -3  -4  547.35   20.50
   5  -3  -4  543.75   18.50
  -5  -3   4  526.45   18.60
  -5  -3   4  541.35   19.10
  -5  -3   4  512.75   19.50
   5  -3  -4  548.05   19.50
   5   3  -4  543.25   20.00
   5   3  -4  555.94   19.20
   5   3  -4  544.75   18.80
   5   3  -4  557.84   20.40
   5   3  -4  527.25   18.90
   4  -3  -4  124.69    7.40
   4  -3  -4  124.59    6.00
   4  -3  -4  120.19    7.50
   4  -3  -4  109.09    6.30
  -4  -3   4  118.69    5.20
   4  -3  -4  118.39    5.40
  -4  -3   4  115.99    5.00
  -4  -3   4  118.09    6.60
   4  -3  -4  116.99    6.90
  -4  -3   4  110.39    6.00
   4   3  -4  116.09    6.70
   4   3  -4  125.89    5.80
   4   3  -4  123.29    5.90
   4   3  -4  124.19    5.70
   4   3  -4  124.49    7.40
   4   3  -4  122.99    5.50
   4   3  -4  137.59    4.50
   3  -3  -4 1026.80   35.10
  -3  -3   4 1027.00   33.60
   3  -3  -4 1021.90   33.90
  -3  -3   4 1058.09   34.20
   3  -3  -4 1051.99   35.30
  -3  -3   4 1058.49   33.60
  -3  -3   4 1005.20   34.00
   3  -3  -4  968.60   33.70
   3  -3  -4 1041.00   34.40
   3   3  -4 1031.70   34.70
   3   3  -4 1041.80   33.90
   3   3  -4 1002.30   34.00
   3   3  -4 1056.59   33.40
   3   3  -4  956.40   33.70
  -2  -3   4 1017.00   32.80
  -2  -3   4 1031.10   33.20
   2  -3  -4  986.00   34.60
  -2  -3   4 1008.50   32.80
   2  -3  -4 1004.20   33.50
   2  -3  -4  981.70   33.60
   2   3  -4 1013.50   33.90
   2   3  -4 1025.90   33.20
   2   3  -4  992.70   32.80
   2   3  -4 1000.90   33.10
   2   3  -4  981.40   33.40
   2   3  -4  992.70   33.00
  -1  -3   4  368.36   12.90
  -1  -3   4  353.06   12.50
  -1  -3   4  360.86   13.10
  -1  -3   4  357.06   12.50
  -1   3   4  387.96   12.10
   1   3  -4  358.26   12.20
   1   3  -4  355.66   12.80
   1   3  -4  374.76   12.80
   1   3  -4  352.86   12.30
   1   3  -4  362.56   13.10
  -1   3   4  400.36   12.30
   0  -3   4  362.66   12.60
   0  -3   4  377.66   13.40
   0  -3   4  356.36   12.90
   0  -3  -4  377.66   12.90
   0  -3   4  408.06   12.70
   0   3  -4  377.36   13.10
   0   3  -4  365.06   12.40
   0   3   4  368.06   12.40
   0   3   4  356.66   12.60
   0   3  -4  368.76   13.30
   0   3   4  370.26   12.80
   1  -3   4  138.99    5.70
  -1  -3  -4  158.98    9.60
   1  -3   4  141.39    6.50
   1  -3   4  137.59    6.40
  -1  -3  -4  145.39    6.90
   1  -3   4  142.79    5.50
  -1  -3  -4  148.79    5.10
   1  -3   4  135.09    5.40
  -1   3  -4  134.59    5.60
  -1   3  -4  139.19    6.00
  -1   3  -4  139.09    5.10
   1   3   4  142.29    5.50
   1   3   4  152.08    5.30
   1   3   4  136.79    6.10
  -1   3  -4  139.79    6.30
  -1   3  -4  142.49    5.20
   1   3   4  147.09    5.90
   2  -3   4  443.06   15.30
   2  -3   4  441.76   16.10
  -2  -3  -4  464.95   15.50
  -2  -3  -4  436.86   16.30
   2  -3   4  459.65   15.70
   2  -3   4  450.85   15.80
   2  -3   4  439.86   15.90
  -2  -3  -4  438.96   16.30
  -2   3  -4  471.65   15.10
  -2   3  -4  472.45   16.30
  -2   3  -4  477.45   16.80
  -2   3  -4  468.75   15.20
   2   3   4  463.35   15.30
   2   3   4  469.85   15.40
   2   3   4  436.66   16.50
  -2   3  -4  441.56   15.30
   2   3   4  436.46   15.70
   3  -3   4  193.78    8.40
  -3  -3  -4  204.78    8.30
   3  -3   4  190.48    8.10
  -3  -3  -4  181.58    8.40
   3  -3   4  210.88    7.70
  -3  -3  -4  177.78    8.80
   3  -3   4  199.68    7.80
  -3  -3  -4  204.28    8.50
   3  -3   4  198.78    8.20
  -3  -3  -4  195.18    7.80
   3   3   4  201.48    7.40
  -3   3  -4  202.08    7.20
  -3   3  -4  205.18    7.10
   3   3   4  194.28    7.70
   3   3   4  198.18    9.00
  -3   3  -4  197.68    7.40
   3   3   4  199.68    7.30
  -4  -3  -4  775.62   27.10
   4  -3   4  794.42   26.40
   4  -3   4  760.12   27.30
   4  -3   4  790.32   26.60
   4  -3   4  776.02   26.90
  -4  -3  -4  788.82   27.10
   4  -3   4  774.02   26.90
  -4  -3  -4  818.02   27.30
  -4  -3  -4  756.02   26.50
  -4   3  -4  782.82   27.80
   4   3   4  810.62   26.30
   4   3   4  796.92   26.40
  -4   3  -4  813.22   26.10
   4   3   4  797.82   26.20
  -4   3  -4  794.22   26.10
   4   3   4  785.12   26.40
   4   3   4  775.82   26.70
  -4   3  -4  803.92   26.30
   4   3   4  835.32   26.90
   4   3   4  806.02   27.00
   5  -3   4   26.90    5.00
   5  -3   4   19.90    2.90
  -5  -3  -4   24.90    3.70
  -5  -3  -4   24.30    3.40
  -5  -3  -4   25.30    3.20
   5  -3   4   22.30    3.40
  -5  -3  -4   22.60    3.20
   5   3   4   24.90    2.90
  -5   3  -4   23.40    2.00
   5   3   4   22.00    2.90
   5   3   4   23.60    2.90
   5   3   4   17.10    2.90
  -5   3  -4   25.70    2.10
   5   3   4   18.80    2.70
  -5   3  -4   21.60    3.90
  -5   3  -4   21.80    2.60
   6  -3   4   38.70    3.70
  -6  -3  -4   45.20    3.90
   6  -3   4   41.40    3.30
  -6  -3  -4   39.70    3.60
  -6  -3  -4   38.30    4.30
  -6   3  -4   43.50    3.00
  -6   3  -4   31.30    5.20
   6   3   4   46.10    3.90
  -6   3  -4   40.50    2.50
  -6   3  -4   38.20    2.80
   6   3   4   41.60    3.30
   6   3   4   37.80    3.60
   6   3   4   40.00    3.50
   6   3   4   41.30    3.20
   7  -3   4    0.80    1.20
   7  -3   4    0.40    1.10
  -7  -3  -4    1.10    1.40
  -7  -3  -4    2.40    1.70
  -7  -3  -4    1.20    1.60
   7   3   4    3.40    1.50
  -7   3  -4    3.10    1.10
   7   3   4    1.90    1.10
  -7   3  -4    2.10    1.30
  -7   3  -4   -1.00    1.70
  -7   3  -4    2.10    1.00
  -8  -3  -4  148.19    5.70
   8  -3   4  128.39    5.20
  -8  -3  -4  141.39    5.80
   8  -3   4  149.49    5.90
   8   3   4  158.58    5.60
  -8   3  -4  155.38    5.40
  -8   3  -4  141.39    5.70
  -9  -4   4   82.49    3.60
   9  -4  -4   75.39    3.60
   9  -4  -4   84.59    4.00
   9   4  -4   67.69    4.00
  -8  -4   4  139.29    5.50
   8  -4  -4  135.19    6.30
  -8  -4   4  132.09    6.00
   8  -4  -4  121.49    7.40
  -8  -4   4  142.49    5.60
   8  -4  -4  131.89    5.50
   8   4  -4  118.19    8.10
   8   4  -4  140.89    6.80
   8   4  -4  126.19    6.30
   8   4  -4  141.59    5.70
  -7  -4   4   48.70    3.60
  -7  -4   4   50.89    3.20
  -7  -4   4   50.69    4.80
   7  -4  -4   58.89    5.90
   7   4  -4   48.10    3.90
   7   4  -4   53.89    5.30
   6  -4  -4   50.39    4.60
   6  -4  -4   47.90    6.10
   6  -4  -4   46.30    3.40
  -6  -4   4   51.49    3.40
  -6  -4   4   46.40    5.30
  -6  -4   4   42.40    4.00
  -6  -4   4   51.99    3.40
   6   4  -4   52.19    5.00
   6   4  -4   47.30    3.70
   6   4  -4   50.79    5.80
   6   4  -4   49.20    3.90
  -5  -4   4  154.58    8.00
   5  -4  -4  151.68    6.70
   5  -4  -4  152.68    7.60
  -5  -4   4  155.18    9.00
   5  -4  -4  148.29    6.40
  -5  -4   4  153.08    6.50
  -5  -4   4  168.08    6.50
  -5  -4   4  159.88    7.10
   5  -4  -4  144.39    8.70
   5   4  -4  155.18    7.10
   5   4  -4  145.49    8.70
   5   4  -4  158.68    6.80
   5   4  -4  155.48    7.10
   5   4  -4  157.48    8.10
   4  -4  -4   77.39    5.90
  -4  -4   4  100.79    6.10
  -4  -4   4   90.49    4.50
   4  -4  -4   90.79    5.00
  -4  -4   4   93.39    4.40
   4  -4  -4   92.09    7.10
   4  -4  -4   86.59    6.00
  -4  -4   4   93.39    5.10
   4  -4  -4   80.19    6.90
  -4  -4   4   94.59    6.60
   4   4  -4  103.89    4.40
   4   4  -4   89.69    5.80
   4   4  -4   98.69    5.00
   4   4  -4  102.09    5.10
   4   4  -4  102.49    7.80
   4   4  -4  101.49    4.90
   3  -4  -4   33.50    3.00
  -3  -4   4   22.50    4.30
   3  -4  -4   32.10    4.80
   3  -4  -4   34.00    6.40
   3  -4  -4   32.60    5.00
   3  -4  -4   32.60    3.90
   3  -4  -4   33.90    3.10
  -3  -4   4   31.50    2.50
  -3  -4   4   32.10    3.40
  -3  -4   4   19.70    4.90
  -3  -4   4   26.70    2.30
   3   4  -4   30.80    2.80
   3   4  -4   27.60    2.90
   3   4  -4   31.70    3.90
   3   4  -4   29.80    2.20
   3   4  -4   31.30    2.90
  -2  -4   4 1156.58   38.90
   2  -4  -4 1142.59   38.70
  -2  -4   4 1128.99   38.70
  -2  -4   4 1102.29   38.00
   2  -4  -4 1160.88   38.40
  -2  -4   4 1201.38   38.60
   2  -4  -4 1190.18   38.50
   2  -4  -4 1151.88   38.30
   2  -4  -4 1203.38   39.50
  -2  -4   4 1171.38   38.10
   2  -4  -4 1304.97   40.80
   2   4  -4 1164.78   38.30
   2   4  -4 1247.08   39.50
  -2   4   4 1070.09   37.60
   2   4  -4 1150.18   38.40
   2   4  -4 1117.09   37.70
   2   4  -4 1141.99   38.20
   1  -4  -4  373.26   14.00
  -1  -4   4  395.86   13.60
  -1  -4   4  398.86   14.40
   1  -4  -4  376.66   14.20
  -1  -4   4  409.56   13.50
  -1  -4   4  391.86   14.70
  -1  -4   4  394.76   14.50
   1  -4  -4  356.06   14.70
  -1  -4   4  414.26   14.00
   1  -4  -4  390.36   14.30
   1   4  -4  385.46   13.40
   1   4  -4  458.95   13.60
   1   4  -4  374.86   13.90
  -1   4   4  407.16   13.30
   1   4  -4  415.06   14.00
   1   4  -4  395.96   13.80
   1   4  -4  391.46   13.20
   1   4  -4  394.16   13.90
  -1   4   4  373.56   13.20
  -1   4   4  402.06   13.10
   1   4  -4  387.66   14.70
   0  -4   4 1510.75   49.90
   0  -4  -4 1572.44   50.79
   0  -4   4 1538.15   50.19
   0  -4   4 1486.55   49.50
   0  -4  -4 1483.75   50.09
   0  -4  -4 1418.06   49.99
   0  -4  -4 1536.05   50.29
   0  -4   4 1519.55   50.59
   0  -4   4 1593.54   49.60
   0   4  -4 1659.83   50.89
   0   4   4 1545.95   49.50
   0   4   4 1556.94   49.90
   0   4  -4 1503.05   49.20
   0   4  -4 1451.55   49.80
   0   4   4 1541.55   49.30
   0   4  -4 1546.45   49.80
   0   4  -4 1570.64   50.29
   0   4  -4 1525.65   49.40
   1  -4   4  458.25   15.90
   1  -4   4  442.06   16.00
   1  -4   4  439.36   15.90
  -1  -4  -4  458.45   16.00
  -1  -4  -4  475.75   16.40
   1  -4   4  441.86   15.20
  -1  -4  -4  447.56   16.30
   1  -4   4  445.26   15.70
  -1  -4  -4  424.46   15.90
  -1  -4  -4  436.36   16.30
   1  -4   4  445.06   16.00
  -1   4  -4  425.06   15.60
   1   4   4  451.25   15.30
  -1   4  -4  469.95   15.10
   1   4   4  457.65   16.00
   1   4   4  477.95   15.20
  -1   4  -4  459.15   16.10
  -1   4  -4  428.46   16.70
  -1   4  -4  461.95   15.00
  -1   4  -4  455.75   15.20
   2  -4   4  574.54   20.00
   2  -4   4  571.24   19.60
  -2  -4  -4  532.85   20.40
  -2  -4  -4  550.44   20.20
   2  -4   4  588.34   19.70
  -2  -4  -4  583.74   19.20
  -2  -4  -4  606.74   20.40
   2  -4   4  571.94   19.90
  -2  -4  -4  545.55   19.80
  -2  -4  -4  562.34   19.90
   2   4   4  561.24   19.50
  -2   4  -4  527.15   19.70
  -2   4  -4  584.64   19.30
  -2   4  -4  583.14   19.00
   2   4   4  567.34   19.20
   2   4   4  577.64   19.90
  -2   4  -4  592.64   19.10
   2   4   4  584.14   19.30
  -2   4  -4  652.63   22.40
  -3  -4  -4 1131.39   39.00
  -3  -4  -4 1108.09   38.50
   3  -4   4 1176.08   38.70
  -3  -4  -4 1183.38   39.00
   3  -4   4 1182.38   38.70
  -3  -4  -4 1175.18   39.00
   3  -4   4 1188.08   38.40
  -3  -4  -4 1145.49   38.40
  -3   4  -4 1170.68   37.80
  -3   4  -4 1175.78   38.00
   3   4   4 1175.48   38.20
  -3   4  -4 1172.08   39.50
   3   4   4 1158.58   38.10
   3   4   4 1135.89   39.10
   3   4   4 1183.48   38.00
  -3   4  -4 1142.99   37.80
   3   4   4 1168.08   38.70
   4  -4   4  565.44   19.70
   4  -4   4  541.25   18.70
   4  -4   4  533.75   18.00
   4  -4   4  528.25   19.10
  -4  -4  -4  561.74   19.10
  -4  -4  -4  510.35   19.30
  -4  -4  -4  560.94   19.60
   4  -4   4  540.65   19.20
   4   4   4  537.15   18.50
  -4   4  -4  548.55   18.30
  -4   4  -4  572.24   18.30
   4   4   4  526.05   19.40
   4   4   4  544.95   18.40
   4   4   4  526.55   18.90
   4   4   4  558.04   19.20
  -4   4  -4  545.05   18.50
   4   4   4  533.05   18.60
   4   4   4  534.85   18.40
   5  -4   4  693.53   23.70
  -5  -4  -4  680.43   24.00
   5  -4   4  683.83   24.00
   5  -4   4  693.23   23.30
  -5  -4  -4  674.63   23.80
   5  -4   4  675.63   23.60
  -5  -4  -4  691.33   23.90
  -5   4  -4  696.43   23.10
   5   4   4  685.43   22.70
   5   4   4  684.23   23.60
   5   4   4  710.83   23.50
   5   4   4  681.63   23.80
   5   4   4  705.33   23.30
   5   4   4  686.53   23.20
  -5   4  -4  596.34   25.10
  -5   4  -4  722.83   22.90
  -5   4  -4  692.73   22.90
  -6  -4  -4   42.30    4.40
   6  -4   4   44.00    4.60
  -6  -4  -4   48.10    4.90
  -6  -4  -4   45.60    3.80
   6  -4   4   47.10    4.60
   6   4   4   49.00    4.00
  -6   4  -4   46.30    2.70
   6   4   4   48.20    3.50
  -6   4  -4   47.80    3.00
   6   4   4   47.50    3.90
   6   4   4   48.70    3.20
   6   4   4   56.09    3.80
  -7  -4  -4  107.09    5.00
   7  -4   4  108.79    4.90
   7  -4   4  105.59    4.40
  -7  -4  -4  103.99    5.00
  -7  -4  -4  107.49    4.90
  -7   4  -4  111.99    4.40
  -7   4  -4   92.99    4.80
   7   4   4  106.89    4.70
   7   4   4  107.09    4.50
   7   4   4  112.19    5.00
  -7   4  -4  109.59    4.80
   7   4   4   84.59    6.70
  -7   4  -4  105.99    4.30
  -8   4  -4   29.90    1.90
   8   4   4   25.60    3.20
   8   4   4   26.90    2.00
  -8   4  -4   29.40    2.20
  -8  -5   4  144.49    5.90
   8  -5  -4  143.79    6.20
   8  -5  -4  139.49    5.50
  -8  -5   4  133.99    5.60
   8   5  -4  146.29    6.40
   8   5  -4  142.89    5.60
   8   5  -4  138.59    6.20
  -7  -5   4  306.87   11.30
   7  -5  -4  307.77   11.20
  -7  -5   4  306.67   11.60
  -7  -5   4  313.47   11.80
   7  -5  -4  351.36   12.30
   7   5  -4  290.97   13.40
   7   5  -4  321.37   11.40
   7   5  -4  312.97   11.80
  -6  -5   4  172.18   10.50
   6  -5  -4  174.68    8.00
  -6  -5   4  168.18    7.20
  -6  -5   4  170.08    8.10
   6  -5  -4  174.98    7.00
  -6  -5   4  165.88    7.00
   6   5  -4  171.98    7.30
   6   5  -4  172.48    7.60
   5  -5  -4   11.00    2.60
  -5  -5   4   16.40    2.60
   5  -5  -4   16.60    2.30
  -5  -5   4   14.50    3.60
   5  -5  -4   18.80    2.40
  -5  -5   4   10.80    3.10
  -5  -5   4   13.90    2.50
   5   5  -4   14.20    2.20
   5   5  -4   15.70    2.60
   5   5  -4   21.70    3.40
  -4  -5   4  384.16   14.60
   4  -5  -4  375.96   13.70
   4  -5  -4  403.66   14.40
  -4  -5   4  370.26   13.60
   4  -5  -4  372.76   15.40
  -4  -5   4  369.06   14.90
   4  -5  -4  378.06   13.60
   4  -5  -4  370.36   14.60
  -4  -5   4  376.16   13.70
  -4  -5   4  388.16   14.90
   4   5  -4  399.66   13.80
   4   5  -4  396.76   14.30
   4   5  -4  383.66   13.30
   4   5  -4  395.46   13.90
  -3  -5   4  168.88    8.30
  -3  -5   4  167.28    7.60
  -3  -5   4  175.08    6.80
  -3  -5   4  168.58    6.80
   3  -5  -4  168.48    8.30
   3  -5  -4  169.28    7.00
   3  -5  -4  161.18    8.60
   3  -5  -4  172.78    7.70
  -3  -5   4  158.48    7.60
  -3  -5   4  180.78    8.20
   3   5  -4  168.48    7.00
   3   5  -4  160.08    7.20
   3   5  -4  176.38    6.80
   3   5  -4  155.48    6.90
  -2  -5   4 1041.00   34.20
  -2  -5   4 1042.70   33.50
  -2  -5   4  987.20   34.10
  -2  -5   4 1054.29   34.10
   2  -5  -4 1022.60   33.80
   2  -5  -4 1014.90   33.80
   2  -5  -4 1024.60   34.10
  -2  -5   4 1020.10   34.30
  -2  -5   4 1017.10   33.50
   2  -5  -4  960.40   34.60
   2  -5  -4 1037.90   33.70
   2   5  -4 1026.70   33.70
   2   5  -4  994.80   33.00
   2   5  -4 1017.30   33.90
   2   5  -4  970.50   33.80
   2   5  -4 1025.80   33.70
  -2   5   4 1018.10   32.90
   1  -5  -4  227.48   11.00
   1  -5  -4  284.37   10.70
   1  -5  -4  282.37   10.60
  -1  -5   4  288.67   10.70
  -1  -5   4  275.07   10.70
   1  -5  -4  287.47   10.40
   1  -5  -4  309.27   11.30
  -1  -5   4  281.17   10.50
  -1  -5   4  270.17    9.80
  -1  -5   4  276.57    9.90
  -1  -5   4  256.37   10.70
   1  -5  -4  281.47   10.40
   1   5  -4  254.57   10.20
   1   5  -4  252.67   10.20
   1   5  -4  276.07   10.10
  -1   5   4  278.87    9.50
   1   5  -4  271.37   10.40
   1   5  -4  264.87    9.50
  -1   5   4  277.97    9.90
   1   5  -4  274.27    9.60
   1   5  -4  275.27    9.50
   0  -5  -4  366.46   13.20
   0  -5  -4  388.16   14.40
   0  -5   4  389.46   13.80
   0  -5   4  395.66   13.80
   0  -5   4  385.96   13.90
   0  -5   4  392.36   14.10
   0  -5  -4  334.37   13.90
   0  -5  -4  369.86   13.70
   0  -5  -4  368.56   13.80
   0   5  -4  396.86   12.90
   0   5  -4  382.96   13.10
   0   5  -4  380.76   12.90
   0   5  -4  385.66   13.50
   0   5   4  385.06   13.20
   0   5   4  393.76   13.00
   0   5  -4  375.46   13.70
   0   5  -4  389.86   14.10
  -1  -5  -4  106.49    5.50
   1  -5   4  102.89    5.10
   1  -5   4  100.99    5.30
  -1  -5  -4   98.79    5.40
   1  -5   4  107.49    4.90
   1  -5   4  101.59    5.40
  -1  -5  -4   99.49    5.20
  -1  -5  -4   98.49    5.20
   1  -5   4  103.49    5.70
  -1  -5  -4   95.29    6.50
  -1   5  -4   99.49    5.00
   1   5   4  103.89    4.30
  -1   5  -4  110.49    4.50
  -1   5  -4   94.69    4.10
  -1   5  -4  103.09    5.60
   1   5   4  100.89    4.50
  -1   5  -4  104.19    4.20
  -2  -5  -4  111.79    6.60
   2  -5   4  108.69    5.50
   2  -5   4  101.79    5.60
   2  -5   4  101.39    4.80
  -2  -5  -4   99.49    5.50
   2  -5   4  102.89    5.10
  -2  -5  -4   97.89    5.80
  -2  -5  -4  101.09    5.50
   2   5   4  102.39    4.60
   2   5   4   98.89    5.70
  -2   5  -4  110.29    4.30
  -2   5  -4  103.99    6.10
  -2   5  -4  116.59    5.50
   2   5   4   96.99    5.80
   2   5   4  102.69    5.00
   2   5   4  102.59    4.40
  -2   5  -4  104.49    4.30
  -3  -5  -4   35.30    4.60
   3  -5   4   30.70    3.10
   3  -5   4   37.40    3.70
  -3  -5  -4   32.40    3.90
  -3  -5  -4   36.90    2.80
   3  -5   4   37.30    2.80
  -3  -5  -4   32.50    4.30
   3  -5   4   34.20    3.80
  -3   5  -4   42.20    2.30
  -3   5  -4   37.40    2.40
   3   5   4   34.60    3.80
   3   5   4   34.50    4.00
   3   5   4   37.60    3.20
  -3   5  -4   40.30    2.80
   3   5   4   39.10    2.50
   3   5   4   39.40    2.80
   3   5   4   39.00    3.30
  -3   5  -4   39.80    5.00
  -4  -5  -4  221.68    8.70
  -4  -5  -4  215.08    9.40
   4  -5   4  216.78    9.10
   4  -5   4  219.88    9.80
   4  -5   4  234.88    8.70
  -4  -5  -4  236.68    9.70
   4  -5   4  228.18    9.30
   4   5   4  220.68    8.50
   4   5   4  212.78    9.20
   4   5   4  206.18    8.30
   4   5   4  215.38    8.80
  -4   5  -4  211.38   10.90
  -4   5  -4  222.38    8.10
  -4   5  -4  219.78    8.40
   4   5   4  220.08    8.20
   4   5   4  228.58    8.40
   4   5   4  222.48   10.20
  -4   5  -4  235.58    8.20
  -5  -5  -4  113.89    6.00
  -5  -5  -4   99.89    5.30
   5  -5   4  110.69    6.30
   5  -5   4  114.69    5.70
   5  -5   4  114.29    5.10
  -5  -5  -4  113.49    5.90
  -5  -5  -4  103.09    5.70
   5  -5   4  108.79    5.60
   5   5   4  103.99    5.80
   5   5   4  108.79    4.70
  -5   5  -4  110.49    4.70
   5   5   4  113.49    5.30
  -5   5  -4  106.59    4.60
   5   5   4  125.39    6.70
   5   5   4  112.29    5.10
  -5   5  -4  116.19    5.00
   5   5   4  107.29    5.10
  -6  -5  -4   62.89    3.90
   6  -5   4   63.89    3.30
  -6  -5  -4   65.29    3.70
   6  -5   4   58.29    3.70
   6  -5   4   58.19    4.40
  -6  -5  -4   58.99    4.10
  -6   5  -4   61.39    3.10
  -6   5  -4   60.39    3.30
   6   5   4   52.89    4.70
   6   5   4   62.69    3.70
   6   5   4   56.59    3.40
  -6   5  -4   61.49    3.40
   6   5   4   61.49    3.30
   7  -5   4   26.60    2.60
   7  -5   4   28.30    2.70
  -7  -5  -4   30.00    2.60
  -7  -5  -4   29.40    2.50
  -7   5  -4   26.30    2.20
   7   5   4   29.60    2.20
  -7   5  -4   26.40    2.20
   7   5   4   29.30    3.80
   7   5   4   28.80    4.00
  -7   5  -4   27.20    2.00
   8  -6  -4   80.49    3.70
  -8  -6   4   88.19    3.90
   8  -6  -4   85.19    4.30
   8   6  -4   82.69    4.30
   8   6  -4   88.89    3.70
  -7  -6   4  142.99    6.00
   7  -6  -4  141.09    5.50
   7  -6  -4  142.29    6.40
  -7  -6   4  146.29    7.10
  -7  -6   4  128.39    5.90
   7   6  -4  134.49    6.10
   7   6  -4  135.99    5.60
   6  -6  -4    0.20    1.60
   6  -6  -4    1.50    1.90
  -6  -6   4    2.90    2.50
  -6  -6   4    0.10    1.90
   6  -6  -4    1.00    1.40
  -6  -6   4   -0.50    2.90
  -6  -6   4    4.80    4.30
   6   6  -4    0.90    1.60
   6   6  -4    3.60    1.40
  -5  -6   4    6.40    2.40
   5  -6  -4   11.60    1.90
  -5  -6   4    4.40    3.00
   5  -6  -4    7.40    1.80
   5  -6  -4    8.30    2.40
  -5  -6   4    9.90    3.40
  -5  -6   4    9.20    1.90
  -5  -6   4   12.10    3.00
  -5  -6   4    8.30    2.40
   5   6  -4    8.90    2.10
   5   6  -4    9.10    2.00
   5   6  -4   10.40    2.00
  -4  -6   4   25.30    4.60
   4  -6  -4   34.50    3.00
   4  -6  -4   33.90    3.10
  -4  -6   4   22.20    3.10
  -4  -6   4   30.40    3.60
  -4  -6   4   27.50    3.90
   4  -6  -4   31.80    4.60
   4  -6  -4   31.40    3.90
  -4  -6   4   32.10    3.10
  -4  -6   4   30.10    4.70
   4   6  -4   30.20    3.10
   4   6  -4   33.60    2.80
   4   6  -4   33.10    3.30
   4   6  -4   35.70    3.20
  -3  -6   4  449.95   16.60
  -3  -6   4  441.66   16.80
   3  -6  -4  456.15   16.10
  -3  -6   4  438.66   15.80
   3  -6  -4  446.96   15.90
  -3  -6   4  443.86   16.70
   3  -6  -4  440.16   17.10
   3  -6  -4  474.55   16.50
  -3  -6   4  452.65   16.60
   3   6  -4  448.26   16.40
  -3   6   4  480.35   15.20
   3   6  -4  467.55   16.10
   3   6  -4  461.35   16.10
   3   6  -4  457.05   16.10
  -2  -6   4  459.35   16.30
   2  -6  -4  456.85   16.60
  -2  -6   4  479.75   17.00
  -2  -6   4  463.35   17.10
   2  -6  -4  484.05   16.70
  -2  -6   4  447.76   17.00
   2  -6  -4  479.75   17.60
   2  -6  -4  479.25   17.10
  -2  -6   4  464.85   17.20
   2   6  -4  486.75   17.00
   2   6  -4  470.35   15.90
   2   6  -4  459.85   16.50
   2   6  -4  482.85   16.60
   2   6  -4  492.55   16.90
  -2   6   4  489.65   15.80
   1  -6  -4   64.19    4.30
   1  -6  -4   60.69    4.30
  -1  -6   4   63.39    4.20
   1  -6  -4   56.19    5.50
   1  -6  -4   66.29    4.30
  -1  -6   4   65.99    4.50
  -1  -6   4   68.79    4.80
   1  -6  -4   77.89    5.10
  -1  -6   4   69.59    4.50
   1  -6  -4   65.79    4.00
  -1   6   4   62.09    3.60
   1   6  -4   57.59    4.10
   1   6  -4   69.09    3.90
   1   6  -4   69.19    4.40
  -1   6   4   67.19    3.20
   1   6  -4   64.09    3.30
   1   6  -4   65.59    3.20
   1   6  -4   69.79    3.40
   0  -6   4   12.90    2.10
   0  -6   4   19.00    2.70
   0  -6   4   20.30    2.90
   0  -6   4   14.50    2.50
   0  -6   4   23.40    4.20
   0  -6  -4   23.30    3.20
   0  -6  -4   16.30    2.00
   0  -6  -4   17.00    2.60
   0  -6  -4   16.80    2.80
   0  -6  -4   19.90    4.20
   0   6  -4   19.60    1.80
   0   6   4   13.80    3.10
   0   6   4   18.00    2.20
   0   6  -4   17.50    1.80
   0   6  -4   12.10    2.20
   0   6  -4   16.40    2.10
   0   6  -4   19.10    2.40
   0   6   4   19.00    1.90
   1  -6   4    8.70    2.40
  -1  -6  -4   15.40    2.90
  -1  -6  -4    7.60    2.40
   1  -6   4   10.00    2.00
   1  -6   4    9.30    2.20
  -1  -6  -4    9.20    2.00
  -1  -6  -4   11.10    1.80
  -1  -6  -4    7.10    3.00
   1  -6   4   10.80    1.90
   1  -6   4   12.00    2.50
  -1  -6  -4   11.90    2.30
   1   6   4   12.80    2.20
  -1   6  -4   11.40    2.10
   1   6   4   13.30    2.10
   1   6   4   17.40    3.20
   1   6   4   12.10    1.70
  -1   6  -4    9.60    1.80
  -1   6  -4   11.30    1.70
  -1   6  -4   10.50    2.70
  -2  -6  -4  213.38    8.60
  -2  -6  -4  223.28    8.60
   2  -6   4  217.48    8.20
   2  -6   4  212.68    8.60
  -2  -6  -4  222.58    9.20
   2  -6   4  208.68    9.10
  -2  -6  -4  215.88    8.70
   2  -6   4  209.98    9.00
  -2  -6  -4  216.58    9.40
  -2  -6  -4  228.18    9.40
  -2   6  -4  209.08    8.70
   2   6   4  207.08    9.70
   2   6   4  230.48    8.10
  -2   6  -4  217.18    7.90
  -2   6  -4  222.78    8.00
  -2   6  -4  210.58   10.10
  -2   6  -4  216.88    8.10
   2   6   4  219.08    8.20
   2   6   4  226.28    8.80
   2   6   4  214.08    8.40
  -3  -6  -4   28.10    3.10
   3  -6   4   26.20    2.90
  -3  -6  -4   26.60    3.80
  -3  -6  -4   24.50    3.60
   3  -6   4   24.40    3.40
  -3  -6  -4   27.10    4.10
   3  -6   4   31.00    3.80
   3   6   4   31.10    2.80
   3   6   4   26.40    2.40
   3   6   4   32.00    3.10
   3   6   4   28.10    2.40
   3   6   4   26.10    4.70
   3   6   4   19.50    3.10
  -3   6  -4   27.30    2.10
  -3   6  -4   27.60    2.50
  -3   6  -4   23.70    2.10
  -3   6  -4   27.60    5.70
   4  -6   4  155.78    7.80
  -4  -6  -4  167.88    7.60
   4  -6   4  166.38    7.30
   4  -6   4  149.39    6.60
  -4  -6  -4  168.48    7.70
   4  -6   4  169.98    7.40
  -4  -6  -4  174.38    7.10
   4   6   4  163.48    7.90
   4   6   4  170.98    7.10
   4   6   4  167.88    6.50
  -4   6  -4  171.88    6.50
   4   6   4  155.88    6.60
   4   6   4  164.08    6.90
  -4   6  -4  138.29   10.60
  -4   6  -4  161.88    6.30
   4   6   4  159.88    6.30
   4   6   4  162.68    6.80
  -4   6  -4  170.18    6.30
  -5  -6  -4  102.59    5.00
  -5  -6  -4  101.69    5.50
   5  -6   4  111.09    5.40
   5  -6   4  105.89    5.80
  -5  -6  -4  112.79    5.50
   5  -6   4  109.19    5.40
   5  -6   4  109.99    4.70
   5   6   4  108.79    4.70
   5   6   4  107.49    4.90
   5   6   4  105.59    4.40
  -5   6  -4  106.59    4.60
  -5   6  -4  110.19    4.70
   5   6   4  109.89    5.10
   5   6   4  101.19    6.00
  -5   6  -4  104.49    4.40
  -6  -6  -4   22.60    2.40
   6  -6   4   19.70    2.80
   6  -6   4   25.30    3.00
  -6  -6  -4   25.10    2.60
  -6  -6  -4   23.40    3.20
   6  -6   4   25.20    2.30
  -6   6  -4   22.50    2.70
   6   6   4   24.50    2.60
   6   6   4   24.90    2.00
  -6   6  -4   25.00    1.90
  -6   6  -4   23.70    2.00
   6   6   4   27.00    2.90
  -7  -6  -4    8.00    1.20
  -7  -6  -4    6.70    1.30
  -7   6  -4   10.10    1.40
   7   6   4    8.10    1.30
  -7   6  -4    6.40    1.20
  -7  -7   4    5.50    1.40
   7  -7  -4    2.90    1.10
   7  -7  -4    2.50    1.90
   7   7  -4    4.20    1.00
   7   7  -4    3.40    1.50
   7   7  -4    2.50    1.60
  -6  -7   4   32.40    3.00
   6  -7  -4   33.00    3.70
   6  -7  -4   33.20    2.50
  -6  -7   4   26.40    3.60
   6  -7  -4   39.30    2.80
   6   7  -4   30.00    3.00
   6   7  -4   31.80    2.60
  -5  -7   4   79.99    4.80
   5  -7  -4   83.29    4.10
  -5  -7   4   72.59    6.90
   5  -7  -4   83.59    5.40
  -5  -7   4   74.59    4.90
  -5  -7   4   87.69    5.90
   5  -7  -4   86.59    4.10
   5   7  -4   74.79    4.20
   5   7  -4   79.89    4.70
   5   7  -4   82.79    4.20
  -4  -7   4  458.65   16.90
  -4  -7   4  436.46   17.30
   4  -7  -4  469.95   16.50
  -4  -7   4  468.15   16.70
   4  -7  -4  487.95   16.30
  -4  -7   4  468.65   17.10
   4  -7  -4  483.15   16.30
   4   7  -4  463.25   16.40
  -4   7   4  468.85   15.40
   4   7  -4  484.15   16.80
   4   7  -4  426.86   16.00
   4   7  -4  457.15   16.30
   3  -7  -4   64.69    4.00
  -3  -7   4   61.49    4.70
  -3  -7   4   62.59    5.00
   3  -7  -4   66.29    3.90
   3  -7  -4   64.79    4.40
  -3  -7   4   62.29    5.00
  -3  -7   4   57.29    4.70
   3   7  -4   63.29    4.30
   3   7  -4   57.79    3.80
   3   7  -4   63.89    4.20
   3   7  -4   61.29    4.00
  -3   7   4   65.49    3.00
  -2  -7   4  411.86   15.30
  -2  -7   4  438.06   15.80
   2  -7  -4  421.56   15.30
  -2  -7   4  428.36   15.30
   2  -7  -4  435.46   15.00
   2  -7  -4  409.76   14.90
  -2  -7   4  417.76   15.50
   2  -7  -4  454.05   15.80
  -2   7   4  411.16   14.30
   2   7  -4  407.56   15.40
   2   7  -4  403.16   14.90
   2   7  -4  398.26   14.10
   2   7  -4  400.56   14.80
   2   7  -4  406.56   15.10
  -2   7   4  416.36   14.10
  -1  -7   4  197.28    8.30
   1  -7  -4  193.48    8.50
  -1  -7   4  185.78    8.40
  -1  -7   4  193.88    8.30
   1  -7  -4  202.78    8.30
   1  -7  -4  195.28    8.10
   1  -7  -4  189.38    8.20
   1  -7  -4  187.08    8.40
  -1  -7   4  195.88    8.30
   1  -7  -4  185.28    7.90
  -1   7   4  190.68    7.40
   1   7  -4  201.28    7.90
  -1   7   4  178.98    7.90
   1   7  -4  193.08    7.20
   1   7  -4  200.58    7.30
   1   7  -4  191.88    8.60
  -1   7   4  191.48    7.10
   0  -7  -4   30.30    3.40
   0  -7   4   25.30    3.50
   0  -7  -4   27.80    3.40
   0  -7   4   27.90    3.40
   0  -7  -4   25.60    3.00
   0  -7  -4   30.50    3.00
   0  -7  -4   25.50    4.50
   0  -7   4   25.60    3.60
   0  -7  -4   24.60    3.50
   0  -7   4   25.80    3.30
   0   7  -4   26.50    4.10
   0   7  -4   26.80    2.40
   0   7   4   28.60    2.10
   0   7   4   25.90    2.50
   0   7   4   29.40    3.10
   0   7  -4   27.60    2.20
   0   7  -4   25.00    2.30
   0   7   4   26.00    3.50
   0   7  -4   28.20    3.00
   1  -7   4  330.87   12.20
   1  -7   4  313.97   11.30
  -1  -7  -4  306.67   11.50
   1  -7   4  307.87   11.70
  -1  -7  -4  302.57   11.70
  -1  -7  -4  331.47   12.30
   1  -7   4  293.97   12.30
  -1  -7  -4  322.07   12.30
  -1  -7  -4  311.57   12.20
   1  -7   4  316.87   11.70
  -1  -7  -4  308.47   11.30
   1   7   4  297.57   11.00
  -1   7  -4  320.87   11.20
   1   7   4  317.67   11.20
  -1   7  -4  302.67   10.90
   1   7   4  322.97   11.70
  -1   7  -4  308.97   10.90
   1   7   4  308.27   11.50
  -1   7  -4  310.87   11.60
  -1   7  -4  304.27   13.00
   2  -7   4  401.46   15.20
  -2  -7  -4  410.66   14.70
  -2  -7  -4  417.46   14.80
  -2  -7  -4  413.26   14.70
  -2  -7  -4  419.36   15.50
   2  -7   4  430.86   15.40
  -2  -7  -4  407.06   15.30
   2  -7   4  423.26   14.80
  -2   7  -4  410.96   14.80
   2   7   4  419.96   14.50
   2   7   4  408.36   14.40
  -2   7  -4  431.56   14.30
  -2   7  -4  408.16   16.70
   2   7   4  400.96   14.90
   2   7   4  419.86   14.70
  -2   7  -4  415.06   14.40
  -2   7  -4  435.56   14.30
   3  -7   4  125.39    6.00
   3  -7   4  108.99    6.10
  -3  -7  -4  117.89    5.40
  -3  -7  -4  108.89    6.00
   3  -7   4  115.59    5.20
  -3  -7  -4  118.69    6.20
  -3  -7  -4  111.39    5.60
   3   7   4  117.09    4.90
   3   7   4  121.59    5.30
   3   7   4  120.59    5.20
   3   7   4  105.89    7.70
  -3   7  -4  119.79    5.00
   3   7   4  117.59    5.50
  -3   7  -4  114.79    4.70
   3   7   4  110.69    5.00
  -3   7  -4  114.79    4.80
  -3   7  -4   93.29    9.30
   4  -7   4   71.19    4.40
   4  -7   4   79.19    4.80
  -4  -7  -4   70.99    4.70
   4  -7   4   71.39    4.80
   4  -7   4   77.29    3.80
  -4  -7  -4   75.09    4.50
  -4  -7  -4   74.59    4.00
   4   7   4   72.59    3.50
   4   7   4   73.59    3.50
   4   7   4   61.49    6.30
   4   7   4   74.89    4.40
  -4   7  -4   75.09    3.40
   4   7   4   73.99    3.80
  -4   7  -4   73.19    3.60
   4   7   4   75.99    4.20
  -4   7  -4   70.79    3.50
  -5  -7  -4  131.39    5.50
  -5  -7  -4  128.89    5.90
   5  -7   4  135.09    6.00
   5  -7   4  132.69    5.20
   5  -7   4  133.39    5.80
  -5  -7  -4  129.29    5.80
   5  -7   4  132.99    6.20
  -5   7  -4  142.59    5.30
   5   7   4  127.79    4.90
   5   7   4  135.69    5.40
  -5   7  -4  123.39    5.30
   5   7   4  141.29    5.80
  -5   7  -4  127.39    5.10
  -6  -7  -4   43.70    3.20
   6  -7   4   35.80    3.20
  -6  -7  -4   36.00    2.40
  -6  -7  -4   34.70    3.20
  -6   7  -4   35.50    2.10
   6   7   4   33.10    2.10
   6   7   4   35.50    2.90
  -6   7  -4   32.70    2.20
   7   8  -4    6.30    1.20
  -6  -8   4   14.10    3.70
   6  -8  -4    5.00    1.10
  -6  -8   4    6.00    1.30
   6  -8  -4    8.00    1.50
   6   8  -4    7.30    1.90
   6   8  -4    5.20    1.30
   5  -8  -4    3.00    1.10
  -5  -8   4    0.60    1.90
   5  -8  -4   -1.20    2.70
   5  -8  -4    3.00    1.10
  -5  -8   4    7.20    1.90
  -5  -8   4    2.70    1.50
   5   8  -4    3.60    1.20
   5   8  -4    5.00    1.80
   5   8  -4    4.60    1.40
  -4  -8   4   34.80    3.30
  -4  -8   4   35.50    3.80
  -4  -8   4   27.70    4.00
   4  -8  -4   36.90    2.80
  -4  -8   4   41.00    3.50
   4  -8  -4   38.90    3.40
   4  -8  -4   37.60    2.70
   4   8  -4   36.40    3.60
   4   8  -4   35.90    3.80
   4   8  -4   34.50    2.70
  -4   8   4   40.40    2.70
   4   8  -4   36.80    2.80
  -3  -8   4   66.49    4.90
   3  -8  -4   61.99    4.60
  -3  -8   4   77.09    5.70
   3  -8  -4   63.69    5.50
  -3  -8   4   67.89    4.30
  -3   8   4   73.19    3.60
   3   8  -4   66.99    3.90
  -3   8   4   68.99    3.10
   3   8  -4   67.29    4.50
   3   8  -4   65.59    4.50
  -2  -8   4   13.00    2.30
  -2  -8   4    5.70    3.70
  -2  -8   4   13.10    2.70
   2  -8  -4   15.90    2.40
  -2  -8   4   11.20    2.60
   2  -8  -4   11.20    2.20
   2  -8  -4    7.60    1.90
   2   8  -4   13.30    2.00
  -2   8   4   13.40    2.00
   2   8  -4   11.60    2.70
  -2   8   4    9.20    1.70
   2   8  -4    8.60    1.60
   2   8  -4   15.50    4.00
   1  -8  -4   20.60    2.60
  -1  -8   4   23.90    3.40
  -1  -8   4   29.40    3.30
  -1  -8   4   28.10    4.00
   1  -8  -4   27.30    3.00
  -1  -8   4   25.60    3.40
   1  -8  -4   24.90    3.10
   1  -8  -4   28.90    3.60
   1   8  -4   19.30    2.40
  -1   8   4   21.70    2.20
   1   8  -4   23.70    2.70
  -1   8   4   24.90    2.00
   1   8  -4   25.20    4.40
   1   8  -4   20.50    2.10
  -1   8   4   27.80    3.50
   0  -8   4   18.60    3.10
   0  -8  -4   29.40    3.10
   0  -8   4   26.00    3.40
   0  -8  -4   27.70    4.00
   0  -8   4   28.80    3.50
   0  -8  -4   23.70    2.70
   0  -8  -4   24.90    3.30
   0  -8  -4   25.60    3.20
   0   8  -4   25.50    2.30
   0   8  -4   23.30    2.10
   0   8  -4   25.90    2.90
   0   8  -4   24.70    2.80
   0   8  -4   29.30    5.10
   0   8   4   28.00    2.30
   0   8   4   23.80    2.00
   0   8   4   26.10    3.00
   0   8   4   26.30    3.30
   0   8   4   26.40    3.00
  -1  -8  -4  152.18    6.20
  -1  -8  -4  156.78    6.60
   1  -8   4  156.48    6.60
   1  -8   4  161.28    7.20
  -1  -8  -4  150.68    6.30
  -1  -8  -4  153.48    7.00
   1   8   4  151.08    6.00
  -1   8  -4  154.18    6.00
  -1   8  -4  153.08    6.60
   1   8   4  157.28    6.40
  -1   8  -4  139.59    8.80
   1   8   4  153.58    6.50
  -1   8  -4  149.29    5.80
   1   8   4  147.69    6.00
  -1   8  -4  147.29    6.00
   1   8   4  154.88    6.30
  -2  -8  -4  107.99    6.00
  -2  -8  -4   94.19    4.60
  -2  -8  -4   88.89    4.60
  -2  -8  -4   87.99    5.30
   2   8   4   87.49    4.00
  -2   8  -4   94.69    9.20
  -2   8  -4   88.49    4.10
  -2   8  -4   91.49    5.00
   2   8   4   86.59    4.10
   2   8   4   87.29    4.60
  -2   8  -4   89.99    3.90
   2   8   4   86.69    4.30
   3  -8   4   54.19    3.80
  -3  -8  -4   58.89    3.30
   3  -8   4   52.09    4.10
   3  -8   4   53.79    3.10
  -3  -8  -4   57.19    3.80
  -3  -8  -4   52.79    4.30
  -3   8  -4   57.29    2.80
   3   8   4   57.09    3.50
   3   8   4   57.29    3.10
  -3   8  -4   52.29    3.20
   3   8   4   53.39    2.80
   3   8   4   57.39    3.00
   3   8   4   53.79    3.30
  -3   8  -4   58.69    3.00
   4  -8   4  105.29    4.90
  -4  -8  -4  110.59    4.90
   4  -8   4  113.19    5.30
  -4  -8  -4  105.19    5.10
  -4  -8  -4  108.39    4.50
   4  -8   4  103.39    4.30
   4   8   4  108.09    4.10
   4   8   4  108.39    4.50
   4   8   4   97.29    4.40
  -4   8  -4  106.39    4.30
  -4   8  -4  101.39    4.30
   4   8   4  106.89    4.90
  -4   8  -4   95.19    4.60
  -5  -8  -4  139.89    5.50
  -5  -8  -4  123.29    6.00
  -5  -8  -4  144.89    5.40
   5  -8   4  141.59    6.80
  -5   8  -4  138.89    5.30
   5   8   4  151.78    5.40
  -5   8  -4  154.88    5.30
   5   8   4  151.58    6.00
  -5  -9   4    2.70    1.20
   5  -9  -4    2.30    1.30
   5  -9  -4    0.80    1.00
  -5  -9   4    6.00    1.90
   5   9  -4    2.20    1.30
   5   9  -4    1.60    1.30
  -4  -9   4    6.70    1.60
  -4  -9   4    6.10    2.10
   4  -9  -4    7.20    1.30
   4  -9  -4    8.70    2.20
  -4  -9   4   10.30    1.80
   4  -9  -4    5.20    1.20
   4   9  -4    9.30    2.70
   4   9  -4   10.00    3.20
   4   9  -4    5.70    1.20
  -3  -9   4   61.39    3.80
   3  -9  -4   62.89    3.50
   3  -9  -4   59.89    3.20
   3  -9  -4   62.39    3.30
  -3  -9   4   58.19    3.50
  -3  -9   4   62.39    3.70
  -3   9   4   59.29    3.20
   3   9  -4   57.59    3.20
   2  -9  -4  166.18    6.60
  -2  -9   4  161.88    7.00
  -2  -9   4  163.28    6.70
   2  -9  -4  167.48    6.60
   2  -9  -4  177.58    6.90
  -2  -9   4  164.58    6.80
  -2   9   4  164.68    6.20
   2   9  -4  167.98    6.70
  -2   9   4  158.88    6.10
  -2   9   4  172.28    6.80
   1  -9  -4   20.50    2.40
  -1  -9   4   15.30    2.70
  -1  -9   4   17.10    2.70
   1  -9  -4   18.30    2.50
   1  -9  -4   17.00    2.10
  -1  -9   4   14.60    2.10
   1   9  -4   19.00    3.50
   1   9  -4   16.50    1.90
  -1   9   4   15.00    2.50
   1   9  -4   17.60    2.30
  -1   9   4   16.80    1.80
  -1   9   4   20.00    1.90
   0  -9  -4  104.49    4.90
   0  -9   4  113.89    5.30
   0  -9  -4  105.79    4.90
   0  -9   4  108.99    5.00
   0  -9  -4   97.79    4.50
   0   9  -4   97.39    4.40
   0   9  -4  105.09    4.70
   0   9   4  101.39    4.40
   0   9  -4  102.99    4.20
   0   9   4  102.29    4.60
   0   9   4  105.09    4.30
   1  -9   4    4.00    1.30
  -1  -9  -4    4.30    1.50
  -1  -9  -4    1.40    2.20
  -1  -9  -4    7.20    1.60
  -1  -9  -4    3.40    1.40
   1  -9   4    5.80    1.80
  -1  -9  -4    4.80    1.30
   1   9   4    4.10    1.20
   1   9   4    0.60    3.10
   1   9   4    6.10    1.10
  -1   9  -4    3.40    1.60
  -1   9  -4    3.60    0.90
  -1   9  -4    3.30    1.20
   1   9   4    2.00    1.50
   1   9   4    5.10    1.20
  -2  -9  -4   23.80    2.30
   2  -9   4   26.40    2.20
   2  -9   4   22.60    2.70
  -2  -9  -4   18.60    2.10
  -2  -9  -4   24.20    2.60
  -2  -9  -4   23.50    2.70
   2   9   4   22.80    1.80
   2   9   4   22.10    2.10
  -2   9  -4   18.40    2.50
  -2   9  -4   21.60    1.70
  -2   9  -4   19.50    2.00
   2   9   4   22.20    1.90
   2   9   4   15.90    2.90
   2   9   4   23.20    2.40
  -3  -9  -4    1.60    2.10
  -3  -9  -4    1.10    1.40
   3  -9   4    0.50    1.10
   3  -9   4    2.10    1.30
  -3  -9  -4    1.10    1.00
   3  -9   4    0.20    1.40
  -3  -9  -4    1.20    1.10
   3   9   4    0.50    1.10
   3   9   4   -0.90    1.10
  -3   9  -4   -0.20    0.70
   3   9   4    1.30    0.80
   3   9   4   -0.30    1.90
  -3   9  -4    1.10    1.20
  -4  -9  -4    4.20    1.50
  -4  -9  -4   -0.20    1.10
   4  -9   4   -1.80    1.70
   4  -9   4    1.30    1.40
   4   9   4    1.90    2.00
  -4   9  -4    1.20    1.30
   4   9   4    1.30    1.00
   4   9   4    3.00    1.10
  -4 -10   4   -0.30    1.20
   4 -10  -4    0.80    0.80
   4 -10  -4    0.40    0.80
   4  10  -4    4.20    1.40
  -3 -10   4   35.90    2.60
   3 -10  -4   31.80    2.20
   3 -10  -4   33.20    2.10
   3  10  -4   30.80    2.10
  -2 -10   4   13.10    2.30
  -2 -10   4    9.60    1.40
   2 -10  -4   12.70    1.60
   2 -10  -4   12.20    1.80
   2 -10  -4   11.90    1.90
   2  10  -4   13.10    1.70
  -2  10   4   11.30    1.60
  -2  10   4   13.00    1.80
   1 -10  -4   56.79    2.90
   1 -10  -4   59.59    3.00
   1 -10  -4   58.39    3.10
  -1 -10   4   57.89    3.40
  -1 -10   4   60.79    3.10
  -1  10   4   61.29    3.00
   1  10  -4   57.69    3.00
  -1  10   4   55.99    2.80
   0 -10  -4   48.40    2.90
   0 -10  -4   53.79    2.80
   0 -10  -4   53.49    3.00
   0 -10   4   49.60    2.80
   0 -10   4   51.79    3.20
   0  10   4   50.09    2.60
   0  10  -4   53.49    2.90
   0  10   4   48.30    2.50
   0  10  -4   51.69    2.80
  -1 -10  -4   13.00    2.10
   1 -10   4   12.40    2.00
   1 -10   4   11.10    1.70
   1  10   4   11.40    1.40
   1  10   4   12.00    1.50
  -1  10  -4   13.80    2.50
   2 -10   4   44.90    3.00
   2 -10   4   47.40    3.30
  -2 -10  -4   38.90    2.60
   2 -10   4   39.70    2.50
   2  10   4   43.20    2.40
   2  10   4   45.30    2.20
  -2  10  -4   44.20    2.20
   3 -10   4    2.90    1.40
   3 -10   4    3.90    1.30
  -9   0   5   34.40    3.50
  -9   0   5   41.20    3.00
   9   0  -5   39.70    3.40
   9   0  -5   40.80    3.20
  -8   0   5   45.70    3.40
  -8   0   5   49.40    5.00
   8   0  -5   49.00    4.70
  -8   0   5   47.80    3.30
   8   0  -5   51.09    4.50
   8   0  -5   45.00    4.10
   8   0  -5   48.00    4.00
  -7   0   5  618.04   20.90
   7   0  -5  604.54   22.70
   7   0  -5  640.54   22.40
   7   0  -5  615.94   23.00
  -7   0   5  608.04   20.80
   7   0  -5  599.64   21.20
   6   0  -5   13.80    3.00
   6   0  -5   12.20    2.60
   6   0  -5   12.30    2.90
  -6   0   5   13.00    2.00
   6   0  -5   12.60    3.20
   6   0  -5   13.10    3.60
  -6   0   5    9.40    2.10
   5   0  -5  341.67   13.20
   5   0  -5  353.56   13.90
   5   0  -5  340.07   14.40
  -5   0   5  355.16   12.50
   5   0  -5  365.76   13.90
   5   0  -5  334.17   14.10
  -5   0   5  367.26   12.20
  -4   0   5    8.30    1.50
   4   0  -5   11.40    2.90
   4   0  -5   11.70    3.00
   4   0  -5    7.00    1.90
   3   0  -5    2.60    1.90
   3   0  -5    0.70    2.60
  -3   0   5    2.40    0.70
  -3   0   5    2.90    1.90
   3   0  -5    1.40    2.20
   3   0  -5    4.20    3.10
   3   0  -5    0.30    1.50
   3   0  -5    6.30    3.10
   3   0  -5   -0.70    1.70
  -2   0   5    1.90    0.70
  -2   0   5    2.30    1.50
   2   0  -5    2.50    1.60
   2   0  -5    8.00    4.20
   2   0  -5    4.50    2.70
  -2   0   5    2.90    1.40
   1   0  -5 1034.20   33.30
  -1   0   5 1014.10   33.10
  -1   0   5  997.90   32.90
  -1   0   5 1010.20   33.30
  -1   0   5 1022.70   33.40
   0   0   5  277.97   10.20
   0   0  -5  269.47   10.30
   0   0  -5  291.17    9.80
   0   0   5  309.97    9.90
   0   0   5  284.17   10.40
   0   0   5  284.67    9.90
   1   0   5  103.49    4.20
   1   0   5  106.69    4.30
  -1   0  -5  105.99    5.90
  -1   0  -5   99.89    5.10
   1   0   5  104.79    4.60
   1   0   5  100.89    5.00
  -1   0  -5  107.59    4.50
  -2   0  -5   84.59    5.20
  -2   0  -5   81.69    4.40
  -2   0  -5   90.89    5.10
   2   0   5   83.39    3.70
  -2   0  -5   90.69    4.20
   2   0   5   83.19    4.10
   2   0   5   86.69    5.80
  -2   0  -5   84.69    5.00
   2   0   5   79.59    3.80
   2   0   5   83.79    5.10
   2   0   5   80.49    5.40
   3   0   5  101.39    5.40
   3   0   5  105.49    5.60
  -3   0  -5  101.09    4.70
  -3   0  -5  105.99    5.30
  -3   0  -5   99.39    4.60
  -3   0  -5  123.89    5.40
   3   0   5  113.99    5.10
   3   0   5  110.69    4.70
   3   0   5  105.49    4.60
  -5   0  -5    2.50    1.90
  -5   0  -5    2.30    2.20
   5   0   5    2.00    1.90
  -5   0  -5    1.60    1.30
   5   0   5    1.30    1.60
   5   0   5    2.70    1.60
  -5   0  -5   -1.30    1.60
   5   0   5    1.70    1.70
   6   0   5    4.30    1.70
  -6   0  -5    0.30    1.90
   6   0   5    2.50    1.70
  -6   0  -5    8.30    2.90
   6   0   5    1.90    2.00
  -6   0  -5    6.20    2.10
  -6   0  -5    5.70    1.40
   6   0   5    3.50    1.40
  -7   0  -5    2.10    1.30
   7   0   5    2.10    1.40
   7   0   5    1.30    1.20
  -7   0  -5   -1.40    1.30
   7   0   5    1.70    1.20
  -8   0  -5   22.90    2.60
   8   0   5   18.10    2.30
   8   0   5   19.00    1.90
   9  -1  -5   35.50    3.20
  -9  -1   5   39.20    2.70
   9  -1  -5   31.40    3.30
  -9  -1   5   41.20    4.20
   9   1  -5   35.00    4.30
   9   1  -5   34.60    3.30
   9   1  -5   40.20    3.10
  -9   1   5   27.30    4.00
  -8  -1   5    1.90    1.90
  -8  -1   5    1.70    1.50
  -8  -1   5    2.00    1.40
   8  -1  -5    3.20    3.00
   8  -1  -5    2.20    2.30
   8  -1  -5    0.80    1.90
   8  -1  -5    0.50    2.10
   8   1  -5    2.30    1.70
  -8   1   5    4.80    1.80
   8   1  -5   -0.10    2.00
   8   1  -5    2.80    2.20
  -8   1   5    2.10    2.00
   7  -1  -5   99.99    6.60
  -7  -1   5   93.89    4.70
  -7  -1   5   91.99    4.60
   7  -1  -5   97.39    6.20
   7  -1  -5  100.89    6.70
  -7  -1   5   95.79    6.20
   7  -1  -5   96.79    5.30
   7   1  -5  100.79    5.80
   7   1  -5  102.49    6.30
   7   1  -5   96.29    6.70
  -7   1   5   95.19    4.50
   7   1  -5   90.69    5.40
   7   1  -5   98.79    6.40
  -7   1   5   92.99    5.20
   6  -1  -5  269.17   11.90
  -6  -1   5  269.17    9.80
   6  -1  -5  258.17   10.30
  -6  -1   5  270.07   11.50
   6  -1  -5  274.97   11.40
   6  -1  -5  285.27   12.30
  -6  -1   5  264.37   10.00
   6   1  -5  254.97   10.70
   6   1  -5  251.97   10.60
   6   1  -5  260.97   10.40
   6   1  -5  276.47   11.60
   6   1  -5  256.97   12.00
  -6   1   5  258.97    9.50
   6   1  -5  282.17   11.90
  -5  -1   5   66.79    3.50
  -5  -1   5   73.79    4.00
   5  -1  -5   69.89    7.60
   5  -1  -5   69.69    5.40
   5  -1  -5   67.99    5.10
   5  -1  -5   64.09    5.70
   5  -1  -5   67.39    4.80
   5  -1  -5   75.79    6.30
   5   1  -5   71.79    5.50
   5   1  -5   71.69    5.70
   5   1  -5   77.39    4.50
   5   1  -5   71.79    4.40
   5   1  -5   69.19    5.70
  -5   1   5   68.49    3.30
   4  -1  -5  509.05   17.60
   4  -1  -5  492.95   18.70
   4  -1  -5  512.55   18.30
  -4  -1   5  521.95   17.10
   4  -1  -5  461.05   18.60
   4  -1  -5  487.25   18.10
  -4  -1   5  512.15   16.90
   4   1  -5  512.15   18.40
   4   1  -5  501.95   17.90
   4   1  -5  511.25   17.50
   4   1  -5  510.25   18.70
  -4   1   5  508.35   16.60
   4   1  -5  499.35   17.70
   4   1  -5  480.25   18.80
  -3  -1   5 1160.58   37.30
   3  -1  -5 1104.69   38.80
   3  -1  -5 1162.58   37.80
   3  -1  -5 1158.88   38.40
   3  -1  -5 1098.29   38.10
   3  -1  -5 1139.89   38.80
  -3  -1   5 1136.69   37.10
   3   1  -5 1165.48   38.80
   3   1  -5 1160.18   37.80
   3   1  -5 1114.49   37.60
   3   1  -5 1108.59   38.80
   3   1  -5 1141.19   38.40
   3   1  -5 1174.28   37.90
  -3   1   5 1175.98   36.80
  -2  -1   5  637.94   20.70
   2  -1  -5  635.14   22.40
  -2  -1   5  616.54   20.60
   2  -1  -5  644.14   22.30
   2  -1  -5  616.04   20.20
   2  -1  -5  624.04   21.70
  -2  -1   5  642.74   21.10
  -2   1   5  609.24   20.50
   2   1  -5  570.14   21.00
   2   1  -5  579.44   22.10
  -2   1   5  648.74   20.40
   2   1  -5  658.73   21.20
  -1  -1   5  177.98    6.80
  -1  -1   5  172.38    6.80
  -1  -1   5  170.38    6.20
  -1  -1   5  171.78    6.30
   1  -1  -5  163.88    6.40
   1   1  -5  167.88    6.70
  -1   1   5  161.98    6.30
  -1   1   5  171.18    6.00
  -1   1   5  166.88    6.40
   1   1  -5  178.78    6.10
   0  -1  -5  329.77   11.90
   0  -1   5  326.47   11.40
   0  -1   5  318.17   12.00
   0  -1   5  331.77   11.80
   0  -1  -5  347.17   10.90
   0  -1   5  320.67   11.40
   0   1  -5  343.87   11.60
   0   1   5  342.17   11.40
   0   1   5  341.47   11.30
   0   1  -5  325.47   12.00
   0   1   5  337.57   11.80
   1  -1   5  545.95   18.00
  -1  -1  -5  566.44   18.10
   1  -1   5  521.75   18.30
   1  -1   5  544.85   18.30
  -1  -1  -5  538.05   19.10
  -1  -1  -5  525.25   18.70
   1  -1   5  525.35   18.60
   1  -1   5  525.85   18.90
  -1   1  -5  542.75   18.90
  -1   1  -5  544.65   18.40
   1   1   5  528.65   18.30
   1   1   5  548.15   18.00
   1   1   5  513.45   18.70
   1   1   5  552.84   18.00
  -1   1  -5  568.54   18.90
   2  -1   5 1079.39   36.20
   2  -1   5 1043.00   37.00
  -2  -1  -5 1137.19   36.50
  -2  -1  -5 1116.39   36.60
  -2  -1  -5 1100.69   36.80
   2  -1   5 1136.09   35.80
  -2  -1  -5 1064.69   36.20
  -2  -1  -5 1047.30   36.30
   2  -1   5 1083.99   36.30
   2  -1   5 1103.39   35.70
   2  -1   5 1065.09   36.20
   2   1   5 1148.99   35.80
  -2   1  -5 1127.99   36.50
   2   1   5 1092.09   36.90
  -2   1  -5 1087.99   35.50
  -2   1  -5 1146.29   36.70
   2   1   5 1090.49   36.30
   2   1   5 1140.09   35.80
  -2   1  -5 1082.69   35.50
   2   1   5 1091.89   36.10
  -2   1  -5 1060.29   35.70
  -2   1  -5 1045.00   36.20
  -3  -1  -5   17.20    3.00
   3  -1   5   24.00    3.20
   3  -1   5   14.80    2.30
  -3  -1  -5   15.10    2.40
   3  -1   5   17.40    2.40
  -3  -1  -5   16.50    2.90
   3  -1   5   15.70    2.00
   3   1   5   16.20    2.00
  -3   1  -5   16.90    2.30
  -3   1  -5   15.50    1.90
  -3   1  -5   17.90    2.70
   3   1   5   20.70    2.90
  -3   1  -5   21.00    2.00
   3   1   5   17.50    2.00
   3   1   5   16.40    2.50
   3   1   5   15.10    2.70
   4  -1   5  163.58    7.30
   4  -1   5  170.78    7.20
   4  -1   5  180.68    7.50
  -4  -1  -5  171.68    7.70
  -4  -1  -5  168.58    6.80
  -4  -1  -5  177.78    7.70
   4  -1   5  162.78    6.90
   4  -1   5  163.88    7.00
   4   1   5  163.28    7.60
   4   1   5  169.88    6.90
   4   1   5  189.58    7.40
  -4   1  -5  171.48    6.80
   4   1   5  177.88    7.10
   4   1   5  171.98    7.60
  -4   1  -5  178.78    8.10
  -4   1  -5  166.58    6.70
  -4   1  -5  176.58    6.60
   4   1   5  173.18    6.70
   5  -1   5   30.30    3.40
   5  -1   5   18.70    2.90
  -5  -1  -5   25.20    2.80
  -5  -1  -5   22.10    3.80
  -5  -1  -5   17.90    3.10
   5  -1   5   24.90    3.50
   5  -1   5   24.40    2.90
   5   1   5   22.10    3.00
  -5   1  -5   22.30    2.90
  -5   1  -5   23.60    2.50
   5   1   5   26.60    2.90
   5   1   5   24.60    3.70
  -5   1  -5   24.70    3.20
  -5   1  -5   23.80    4.30
   5   1   5   20.80    3.80
  -5   1  -5   23.50    2.50
   6  -1   5   44.60    3.60
   6  -1   5   43.40    3.70
  -6  -1  -5   39.50    5.00
   6  -1   5   40.30    3.20
  -6  -1  -5   40.80    3.60
  -6   1  -5   40.60    2.90
   6   1   5   45.00    3.70
   6   1   5   49.90    3.20
  -6   1  -5   45.70    3.60
   6   1   5   44.80    3.70
  -6   1  -5   37.70    3.00
  -6   1  -5   37.80    5.90
   7  -1   5   40.20    3.10
   7  -1   5   44.70    3.00
  -7  -1  -5   48.50    3.20
  -7  -1  -5   35.10    3.50
   7  -1   5   43.40    2.90
   7   1   5   43.80    3.50
   7   1   5   43.20    3.00
   7   1   5   43.40    2.70
  -7   1  -5   46.00    2.60
  -7   1  -5   39.10    3.10
  -8  -1  -5   10.30    1.40
   8  -1   5   13.00    2.00
   8  -1   5   14.00    2.50
   8   1   5   13.10    1.60
  -8   1  -5   15.20    2.00
   9  -2  -5   38.10    5.50
  -9  -2   5   52.89    3.00
   9  -2  -5   53.89    3.40
   9   2  -5   50.99    3.90
   9   2  -5   54.39    3.70
   9   2  -5   49.00    3.30
   8  -2  -5   62.19    4.90
  -8  -2   5   73.99    3.70
  -8  -2   5   65.59    3.80
   8  -2  -5   66.59    4.00
  -8  -2   5   72.89    4.10
   8  -2  -5   68.39    4.60
   8   2  -5   73.99    4.70
  -8   2   5   62.89    4.30
   8   2  -5   65.69    4.90
   8   2  -5   68.59    4.30
   8   2  -5   69.09    4.70
   7  -2  -5  318.87   12.90
  -7  -2   5  324.47   11.70
   7  -2  -5  316.57   11.80
   7  -2  -5  319.87   13.50
   7  -2  -5  310.47   13.60
  -7  -2   5  319.07   11.70
  -7  -2   5  313.57   12.30
   7   2  -5  329.47   12.50
  -7   2   5  318.77   11.40
   7   2  -5  337.87   13.20
   7   2  -5  325.07   12.00
   7   2  -5  318.87   13.30
   7   2  -5  322.87   13.50
   6  -2  -5   29.60    4.90
  -6  -2   5   32.40    2.60
   6  -2  -5   21.30    3.40
  -6  -2   5   25.50    4.40
   6  -2  -5   32.10    4.40
   6  -2  -5   26.60    5.00
  -6  -2   5   34.30    3.00
  -6   2   5   27.20    2.60
   6   2  -5   33.50    4.70
   6   2  -5   23.00    4.80
   6   2  -5   26.20    3.50
   6   2  -5   32.20    3.40
   6   2  -5   27.50    4.60
   5  -2  -5  119.79    6.00
  -5  -2   5  125.29    5.80
   5  -2  -5  130.49    7.60
   5  -2  -5  122.09    7.60
   5  -2  -5  132.49    7.80
  -5  -2   5  127.29    5.80
  -5  -2   5  118.19    6.90
   5  -2  -5  149.79    7.10
   5   2  -5  131.09    7.30
   5   2  -5  146.19    6.20
   5   2  -5  142.49    6.50
   5   2  -5  128.59    7.70
  -4  -2   5  127.79    5.30
   4  -2  -5  132.59    7.10
   4  -2  -5  136.99    7.00
  -4  -2   5  117.29    7.00
   4  -2  -5  124.39    6.50
   4  -2  -5  109.19    6.70
   4  -2  -5  133.79    7.30
  -4  -2   5  125.29    5.50
   4  -2  -5  128.39    7.30
   4   2  -5  130.49    6.50
   4   2  -5  151.48    6.30
   4   2  -5  115.79    7.40
   4   2  -5  124.89    6.80
   4   2  -5  140.49    5.90
   3  -2  -5  131.09    7.10
   3  -2  -5  131.59    7.00
  -3  -2   5  130.49    5.20
   3  -2  -5  131.79    6.80
  -3  -2   5  127.79    7.00
  -3  -2   5  136.89    5.40
   3  -2  -5  127.99    7.10
   3  -2  -5  140.19    8.30
   3  -2  -5  129.99    6.40
   3   2  -5  127.39    6.90
   3   2  -5  134.79    7.80
   3   2  -5  128.19    6.00
   3   2  -5  125.79    5.80
   3   2  -5  122.79    5.70
  -2  -2   5  570.84   18.60
  -2  -2   5  572.24   19.20
   2  -2  -5  544.55   20.20
  -2  -2   5  545.05   19.20
   2  -2  -5  535.35   20.80
   2  -2  -5  533.55   19.30
   2  -2  -5  537.35   19.50
   2  -2  -5  543.05   20.00
   2   2  -5  592.44   18.30
   2   2  -5  551.84   19.00
   2   2  -5  554.94   20.20
   2   2  -5  565.34   19.20
   2   2  -5  564.64   19.90
   2   2  -5  551.34   19.00
  -2   2   5  565.04   18.10
  -1  -2   5  581.04   19.30
  -1  -2   5  582.44   19.60
  -1  -2   5  615.34   19.20
   1  -2  -5  581.94   19.90
   1  -2  -5  566.54   19.10
   1  -2  -5  582.04   20.60
   1  -2  -5  572.94   20.10
   1  -2  -5  560.24   20.60
  -1  -2   5  542.95   19.80
   1   2  -5  559.74   19.90
  -1   2   5  575.74   19.20
   1   2  -5  614.84   19.30
  -1   2   5  593.54   18.90
   1   2  -5  554.94   19.60
   1   2  -5  573.24   19.60
  -1   2   5  568.24   19.20
   0  -2  -5  180.58    7.60
   0  -2   5  183.68    7.10
   0  -2  -5  177.08    8.40
   0  -2  -5  173.18    8.40
   0  -2   5  183.08    7.20
   0  -2   5  179.78    7.70
   0  -2  -5  174.58    8.00
   0  -2   5  194.78    6.80
   0   2  -5  185.38    7.50
   0   2   5  197.28    6.60
   0   2  -5  194.78    7.20
   0   2   5  196.08    6.80
   0   2  -5  191.78    7.70
   0   2   5  175.88    7.10
   1  -2   5  130.69    6.20
   1  -2   5  136.89    5.30
  -1  -2  -5  130.99    6.50
   1  -2   5  139.89    5.40
   1  -2   5  129.79    6.60
  -1  -2  -5  139.29    7.20
  -1  -2  -5  147.79    5.10
   1  -2   5  143.09    6.80
  -1  -2  -5  132.19    6.80
  -1  -2  -5  139.79    7.00
   1  -2   5  140.09    5.80
   1   2   5  135.79    5.90
   1   2   5  132.49    6.20
   1   2   5  140.79    5.20
  -1   2  -5  131.89    5.20
  -1   2  -5  127.49    6.30
   1   2   5  135.19    5.30
  -1   2  -5  138.09    5.90
  -1   2  -5  136.69    5.50
  -1   2  -5  128.69    6.70
  -2  -2  -5  974.20   33.10
   2  -2   5  974.90   32.80
   2  -2   5 1008.10   32.10
   2  -2   5  993.40   32.60
  -2  -2  -5 1019.10   32.40
   2  -2   5  931.81   33.70
   2  -2   5  997.70   32.60
   2  -2   5  859.71   34.10
  -2  -2  -5  952.80   32.90
   2  -2   5 1002.70   32.10
  -2  -2  -5 1053.49   33.10
   2   2   5  983.60   32.60
  -2   2  -5  944.81   32.60
   2   2   5 1018.70   32.10
  -2   2  -5 1003.80   31.90
  -2   2  -5  935.81   33.30
   2   2   5 1015.10   32.20
  -2   2  -5  963.90   32.00
  -2   2  -5  980.70   31.90
   3  -2   5  445.56   16.70
  -3  -2  -5  422.26   14.80
  -3  -2  -5  413.46   15.10
   3  -2   5  395.26   14.90
   3  -2   5  432.66   14.70
   3   2   5  426.86   14.80
  -3   2  -5  402.66   14.00
  -3   2  -5  402.66   15.20
  -3   2  -5  411.96   14.00
   3   2   5  423.56   14.20
   3   2   5  412.66   14.20
   3   2   5  388.96   15.20
   3   2   5  365.46   15.20
  -4  -2  -5  305.57   11.90
   4  -2   5  302.47   11.40
   4  -2   5  296.17   11.20
   4  -2   5  304.57   11.80
   4  -2   5  297.97   11.60
   4  -2   5  310.37   11.50
  -4  -2  -5  320.77   11.90
  -4   2  -5  289.97   11.00
   4   2   5  304.27   11.80
  -4   2  -5  303.87   10.80
   4   2   5  303.27   11.30
   4   2   5  307.17   11.20
   4   2   5  306.27   10.90
   4   2   5  298.77   11.90
   4   2   5  306.27   11.60
  -4   2  -5  316.47   12.50
  -4   2  -5  319.97   11.00
   4   2   5  305.67   11.00
   5  -2   5   46.40    3.70
  -5  -2  -5   55.79    4.20
   5  -2   5   53.69    3.60
  -5  -2  -5   46.50    4.30
  -5  -2  -5   49.60    4.50
   5  -2   5   47.40    4.00
   5  -2   5   53.99    3.80
   5   2   5   54.69    3.90
  -5   2  -5   51.39    3.40
  -5   2  -5   47.30    3.90
   5   2   5   53.39    4.40
   5   2   5   58.59    3.60
  -5   2  -5   48.70    5.50
   5   2   5   52.39    3.40
  -5   2  -5   53.29    3.30
   5   2   5   43.40    4.80
  -6  -2  -5  108.59    6.70
  -6  -2  -5  108.09    6.40
   6  -2   5  114.49    6.30
   6  -2   5   98.69    5.10
   6  -2   5  118.99    5.70
  -6  -2  -5  103.59    5.60
   6   2   5  108.49    7.40
  -6   2  -5  105.29    8.10
   6   2   5  102.29    5.40
  -6   2  -5   98.29    5.50
  -6   2  -5  111.79    5.50
  -6   2  -5  100.89    4.60
   6   2   5  109.29    5.30
   6   2   5  106.89    5.90
   7  -2   5   13.60    2.20
   7  -2   5    8.00    2.30
  -7  -2  -5   11.30    1.90
   7  -2   5    9.40    1.40
  -7  -2  -5   10.00    2.20
   7   2   5   10.10    1.80
   7   2   5    8.90    1.30
  -7   2  -5    9.90    1.80
  -7   2  -5   13.70    2.20
  -7   2  -5    5.60    2.00
  -8  -2  -5   28.40    2.20
   8  -2   5   27.00    2.10
   8  -2   5   24.70    2.40
  -8   2  -5   29.60    2.20
   8   2   5   28.10    2.00
   8   2   5   28.30    2.20
  -9  -3   5  125.19    5.00
   9  -3  -5  130.99    5.40
   9   3  -5  120.19    5.70
   9   3  -5  112.39    5.30
   8  -3  -5  220.98    9.80
  -8  -3   5  234.88    8.70
  -8  -3   5  235.88    8.90
   8  -3  -5  231.38    8.70
  -8  -3   5  245.78    8.90
   8  -3  -5  236.08    9.40
   8   3  -5  230.98    9.80
   8   3  -5  229.98    9.70
   8   3  -5  240.58    8.80
   8   3  -5  241.08    9.60
   7  -3  -5   27.30    5.90
  -7  -3   5   29.90    2.80
  -7  -3   5   32.00    2.90
   7  -3  -5   31.40    3.30
   7   3  -5   33.50    7.00
   7   3  -5   24.40    3.50
   7   3  -5   27.40    4.10
   7   3  -5   30.60    4.70
  -6  -3   5  290.47   11.70
  -6  -3   5  313.57   11.60
   6  -3  -5  274.27   12.90
   6  -3  -5  300.17   12.30
  -6  -3   5  311.77   11.20
   6  -3  -5  298.77   11.10
   6  -3  -5  306.17   13.10
   6   3  -5  311.97   12.50
   6   3  -5  303.77   13.10
   6   3  -5  299.97   12.60
   6   3  -5  318.17   11.60
  -5  -3   5  316.07   11.40
   5  -3  -5  313.07   12.50
   5  -3  -5  300.77   11.40
   5  -3  -5  319.37   13.40
  -5  -3   5  305.77   12.00
  -5  -3   5  311.37   11.50
   5  -3  -5  324.07   12.50
   5  -3  -5  313.97   13.30
   5   3  -5  313.57   13.40
   5   3  -5  320.57   12.90
   5   3  -5  319.57   11.80
   5   3  -5  292.07   11.90
   5   3  -5  320.37   12.20
  -4  -3   5  154.68    6.50
  -4  -3   5  153.18    6.40
  -4  -3   5  157.48    8.60
   4  -3  -5  148.79    6.90
   4  -3  -5  155.08    6.70
   4  -3  -5  146.29    7.90
   4   3  -5  166.38    8.80
   4   3  -5  175.88    8.00
   4   3  -5  161.48    7.10
   4   3  -5  150.18    6.70
   4   3  -5  165.68    7.00
   3  -3  -5  123.69    7.50
   3  -3  -5  141.99    7.30
  -3  -3   5  139.59    5.70
   3  -3  -5  144.09    6.30
  -3  -3   5  147.59    5.60
  -3  -3   5  142.29    6.80
   3  -3  -5  134.49    6.80
   3   3  -5  142.69    6.20
   3   3  -5  125.19    8.30
   3   3  -5  139.39    7.10
   3   3  -5  120.39    5.00
   3   3  -5  135.39    6.00
   3   3  -5  137.29    6.00
  -2  -3   5   72.19    3.40
   2  -3  -5   68.59    4.70
   2  -3  -5   76.89    5.20
  -2  -3   5   70.19    5.20
  -2  -3   5   80.59    3.60
   2  -3  -5   67.59    4.20
   2  -3  -5   66.19    5.60
   2   3  -5   68.99    4.00
   2   3  -5   66.09    4.30
   2   3  -5   67.59    4.00
   2   3  -5   67.29    3.90
   2   3  -5   65.49    8.60
  -2   3   5   71.79    2.90
   1  -3  -5   61.09    5.30
  -1  -3   5   63.79    3.20
   1  -3  -5   69.69    4.30
   1  -3  -5   59.89    4.30
  -1  -3   5   55.49    4.50
  -1  -3   5   58.49    5.00
  -1  -3   5   66.19    3.80
  -1  -3   5   65.59    3.10
   1  -3  -5   56.99    4.70
   1   3  -5   67.59    3.30
  -1   3   5   67.19    2.80
   1   3  -5   64.69    3.90
  -1   3   5   64.19    3.20
   1   3  -5   54.99    4.00
  -1   3   5   66.99    4.40
   1   3  -5   63.79    3.70
   0  -3  -5  104.69    5.70
   0  -3  -5  113.49    6.30
   0  -3   5  107.39    6.30
   0  -3   5  104.29    6.10
   0  -3  -5  115.89    6.10
   0  -3  -5  112.39    6.60
   0  -3   5  128.39    6.50
   0  -3   5  110.79    5.10
   0  -3   5  115.89    4.60
   0  -3   5  114.09    4.70
   0  -3  -5  110.19    5.60
   0   3   5  117.99    4.60
   0   3  -5  102.89    4.70
   0   3  -5  107.69    5.90
   0   3  -5  105.99    4.50
   0   3  -5  120.59    5.10
   0   3  -5  104.79    5.20
   0   3   5  116.89    4.40
   1  -3   5  143.39    7.00
   1  -3   5  156.38    5.90
  -1  -3  -5  152.88    7.10
   1  -3   5  145.89    6.80
   1  -3   5  140.89    8.00
  -1  -3  -5  151.18    7.00
  -1  -3  -5  137.79    6.80
   1  -3   5  148.59    6.60
   1  -3   5  152.78    5.90
   1  -3   5  148.09    7.20
  -1  -3  -5  153.98    7.30
  -1   3  -5  149.69    5.60
   1   3   5  152.08    6.70
  -1   3  -5  150.48    5.80
  -1   3  -5  149.69    5.60
  -1   3  -5  138.99    6.50
   1   3   5  159.08    5.70
   1   3   5  151.58    5.90
  -2  -3  -5 1105.69   35.60
   2  -3   5 1079.99   34.90
   2  -3   5 1031.10   34.40
   2  -3   5 1050.39   35.00
   2  -3   5 1027.20   35.00
  -2  -3  -5 1008.20   35.10
   2  -3   5 1022.30   35.00
  -2  -3  -5 1065.29   34.50
  -2  -3  -5 1051.89   35.50
  -2   3  -5 1062.79   35.60
   2   3   5 1047.20   34.50
   2   3   5 1067.19   66.29
  -2   3  -5 1061.09   34.30
  -2   3  -5 1035.50   35.00
  -2   3  -5 1049.89   34.40
   2   3   5 1051.59   34.60
  -2   3  -5 1091.89   34.30
  -3  -3  -5  423.16   15.70
   3  -3   5  445.86   15.10
   3  -3   5  421.96   15.30
   3  -3   5  424.76   15.30
   3  -3   5  437.56   15.10
  -3  -3  -5  431.26   15.00
  -3  -3  -5  413.06   15.40
  -3   3  -5  431.96   14.40
  -3   3  -5  427.26   15.90
   3   3   5  406.16   16.00
   3   3   5  426.66   14.90
   3   3   5  402.76   14.60
  -3   3  -5  423.96   14.40
  -3   3  -5  423.16   14.60
   3   3   5  425.46   14.60
   3   3   5  395.76   15.20
   4  -3   5  148.99    6.40
   4  -3   5  134.99    6.60
   4  -3   5  148.69    6.90
   4  -3   5  148.89    6.60
  -4  -3  -5  149.49    7.10
  -4  -3  -5  145.29    6.70
   4  -3   5  151.58    6.90
   4   3   5  136.79    7.50
   4   3   5  148.19    6.00
   4   3   5  150.38    6.20
   4   3   5  148.39    6.60
  -4   3  -5  148.49    5.90
   4   3   5  142.39    6.20
  -4   3  -5  145.89    7.90
   4   3   5  152.28    6.40
  -4   3  -5  153.48    6.20
   4   3   5  152.08    6.80
  -4   3  -5  150.38    5.90
   5  -3   5   17.80    3.20
  -5  -3  -5   12.40    2.30
  -5  -3  -5   13.90    2.80
   5  -3   5   18.40    3.00
  -5  -3  -5   19.80    3.50
  -5   3  -5   13.90    2.30
  -5   3  -5   16.30    2.40
   5   3   5   11.40    1.70
   5   3   5   15.40    3.10
  -5   3  -5   13.90    3.90
   5   3   5   17.90    2.80
   5   3   5   13.50    1.70
   5   3   5   14.30    2.50
  -5   3  -5   17.50    1.90
  -6  -3  -5    8.90    2.30
  -6  -3  -5   13.20    2.30
   6  -3   5    7.00    1.70
   6  -3   5   15.00    2.50
   6   3   5   11.10    2.40
   6   3   5   12.50    2.40
  -6   3  -5   12.50    2.00
  -6   3  -5   12.30    2.00
   6   3   5   10.80    2.10
  -6   3  -5    8.70    2.10
  -6   3  -5   11.70    1.90
   6   3   5   10.10    1.60
  -6   3  -5   15.90    4.70
   6   3   5    7.80    1.80
  -7  -3  -5  162.18    9.00
  -7  -3  -5  154.88    6.40
   7  -3   5  154.18    6.40
  -7  -3  -5  157.38    6.50
   7  -3   5  156.48    6.10
  -7   3  -5  158.88    6.40
   7   3   5  162.08    6.10
  -7   3  -5  159.98    5.90
   7   3   5  168.88    6.50
   8   3   5   22.70    1.90
  -8   3  -5   23.00    2.00
  -9  -4   5  104.39    4.30
   9  -4  -5  105.29    4.70
   8  -4  -5   23.90    3.10
   8  -4  -5   26.00    2.60
  -8  -4   5   20.90    3.60
  -8  -4   5   30.20    2.80
   8  -4  -5   19.00    3.80
   8   4  -5   25.10    2.50
   8   4  -5   22.10    2.80
   8   4  -5   23.50    5.10
  -7  -4   5   66.79    3.70
   7  -4  -5   62.99    4.70
   7  -4  -5   56.69    5.70
   7  -4  -5   67.19    3.80
  -7  -4   5   68.19    4.50
   7   4  -5   72.99    4.90
   7   4  -5   69.19    4.50
   7   4  -5   57.59    5.30
   7   4  -5   66.39    3.80
  -6  -4   5  112.09    5.80
  -6  -4   5  114.69    5.30
   6  -4  -5  110.09    5.30
  -6  -4   5  115.99    5.40
   6  -4  -5  117.19    6.50
   6  -4  -5  112.79    7.40
   6   4  -5  114.69    7.50
   6   4  -5  112.69    5.90
   6   4  -5  114.29    5.60
   6   4  -5  115.49    6.80
   5  -4  -5   87.99    4.60
   5  -4  -5   88.29    6.20
  -5  -4   5   89.69    5.20
  -5  -4   5   77.09    8.50
  -5  -4   5   90.79    4.60
  -5  -4   5   90.69    4.50
   5  -4  -5   94.29    6.90
   5  -4  -5   87.09    4.80
   5  -4  -5   91.69    7.00
   5  -4  -5   89.49    6.00
   5   4  -5   83.79    5.20
   5   4  -5   94.19    6.20
   5   4  -5   82.09    7.20
   5   4  -5   90.29    4.90
   5   4  -5   93.49    5.30
   4  -4  -5  243.68    9.10
  -4  -4   5  241.48    9.00
  -4  -4   5  247.38    9.00
   4  -4  -5  227.48   10.20
  -4  -4   5  233.08   10.50
   4  -4  -5  229.28    8.90
   4  -4  -5  225.68   10.60
   4  -4  -5  243.98    9.90
   4  -4  -5  228.58   10.90
   4   4  -5  226.98    9.10
   4   4  -5  226.58    9.50
   4   4  -5  236.88   10.30
   4   4  -5  209.78   11.30
   4   4  -5  232.48    9.20
  -3  -4   5  123.89    6.60
  -3  -4   5  130.09    5.40
   3  -4  -5  120.99    5.90
   3  -4  -5  124.59    7.60
  -3  -4   5  123.59    5.50
   3  -4  -5  132.79    7.70
   3  -4  -5  119.79    7.70
   3   4  -5  129.19    5.80
   3   4  -5  118.99    6.40
   3   4  -5  124.29    5.90
   3   4  -5  126.59    5.00
  -2  -4   5  318.37   13.70
  -2  -4   5  345.77   12.00
  -2  -4   5  354.36   13.50
   2  -4  -5  351.06   12.50
  -2  -4   5  333.57   12.80
   2  -4  -5  339.77   12.80
  -2  -4   5  344.67   12.00
   2  -4  -5  344.67   13.40
   2  -4  -5  346.57   13.70
   2  -4  -5  336.17   12.70
   2  -4  -5  334.27   12.70
  -2   4   5  344.87   11.40
   2   4  -5  326.97   12.20
   2   4  -5  315.07   12.20
   2   4  -5  351.76   12.10
   2   4  -5  317.57   12.40
   1  -4  -5  132.29    6.60
   1  -4  -5  130.69    6.70
   1  -4  -5  128.09    6.00
   1  -4  -5  126.09    6.00
  -1  -4   5  127.29    5.20
  -1  -4   5  124.99    6.80
  -1  -4   5  123.29    5.20
   1  -4  -5  117.69    7.20
  -1  -4   5  125.59    6.40
   1   4  -5  115.99    5.10
   1   4  -5  127.89    5.90
   1   4  -5  122.69    5.50
  -1   4   5  127.99    5.30
   1   4  -5  121.99    5.60
  -1   4   5  126.79    4.80
   1   4  -5  123.89    5.50
   0  -4  -5  151.98    6.80
   0  -4  -5  144.49    6.90
   0  -4   5  150.98    6.10
   0  -4   5  162.68    7.10
   0  -4  -5  155.78    7.60
   0  -4  -5  163.78    7.40
   0  -4   5  158.08    6.20
   0  -4   5  146.69    7.00
   0  -4   5  156.38    6.70
   0  -4  -5  161.28    7.50
   0   4  -5  149.69    5.80
   0   4  -5  157.38    6.80
   0   4   5  155.08    6.10
   0   4  -5  143.09    7.40
   0   4  -5  161.58    6.00
   0   4  -5  168.18    6.60
   0   4   5  164.18    5.90
   1  -4   5  167.48    6.70
   1  -4   5  177.28    7.60
   1  -4   5  169.08    7.30
  -1  -4  -5  168.98    7.70
  -1  -4  -5  160.08    7.30
  -1  -4  -5  164.48    7.40
   1  -4   5  166.98    7.10
  -1  -4  -5  163.48    7.70
   1  -4   5  169.88    7.30
  -1  -4  -5  172.68    7.80
  -1   4  -5  172.48    7.10
  -1   4  -5  173.98    6.30
   1   4   5  171.78    6.60
  -1   4  -5  178.98    6.50
  -1   4  -5  171.18    7.50
   1   4   5  175.68    6.50
  -1   4  -5  174.88    6.30
   2  -4   5  389.36   14.30
  -2  -4  -5  430.66   16.00
   2  -4   5  376.16   14.00
   2  -4   5  397.06   14.30
  -2  -4  -5  374.36   14.10
  -2  -4  -5  414.86   14.90
  -2  -4  -5  387.16   14.60
   2  -4   5  390.56   14.10
  -2   4  -5  399.26   13.50
   2   4   5  395.06   13.70
  -2   4  -5  387.06   14.10
   2   4   5  379.46   13.60
  -2   4  -5  371.56   14.70
  -2   4  -5  389.86   13.30
  -2   4  -5  390.46   13.30
   2   4   5  391.66   14.50
  -3  -4  -5 2283.17   75.19
   3  -4   5 2352.66   75.49
   3  -4   5 2373.36   75.49
  -3  -4  -5 2295.47   74.79
  -3  -4  -5 2259.37   75.89
  -3  -4  -5 2331.87   75.79
   3  -4   5 2368.36   75.19
   3   4   5 2332.97   74.89
  -3   4  -5 2228.68   74.59
  -3   4  -5 2338.77   74.79
  -3   4  -5 2334.17   76.39
  -3   4  -5 2276.97   74.59
   3   4   5 2346.57   74.99
   3   4   5 2355.96   75.69
   3   4   5 2309.67   74.99
   3   4   5 2337.67   74.89
   4  -4   5  118.79    5.50
  -4  -4  -5  124.69    5.90
   4  -4   5  126.89    6.20
   4  -4   5  122.59    7.20
   4  -4   5  125.99    6.20
  -4  -4  -5  131.89    6.60
   4  -4   5  120.69    5.80
   4   4   5  129.29    5.50
   4   4   5  116.59    5.50
   4   4   5  133.79    6.50
   4   4   5  127.49    5.70
  -4   4  -5  129.99    5.50
  -4   4  -5  134.09    5.30
   4   4   5  120.19    7.80
  -4   4  -5  127.99    7.90
   4   4   5  132.09    5.60
  -4   4  -5  130.29    5.30
   4   4   5  118.19    6.20
   5  -4   5   54.19    3.90
   5  -4   5   54.19    3.60
  -5  -4  -5   50.89    4.10
  -5  -4  -5   48.40    4.20
   5   4   5   56.19    5.40
   5   4   5   47.50    3.10
  -5   4  -5   53.29    3.20
   5   4   5   53.09    3.50
   5   4   5   46.40    4.40
   5   4   5   53.09    3.30
  -5   4  -5   46.20    6.90
  -5   4  -5   47.40    2.80
   5   4   5   49.30    3.50
  -6  -4  -5   86.29    4.60
  -6  -4  -5   85.29    4.90
   6  -4   5   90.29    4.20
   6  -4   5   81.19    4.40
  -6   4  -5   82.29    3.90
   6   4   5   92.19    4.20
  -6   4  -5   85.49    4.30
   6   4   5   91.19    5.00
   6   4   5   89.99    4.70
  -6   4  -5   74.39    4.70
  -6   4  -5   89.19    3.90
   6   4   5   90.69    4.10
  -7  -4  -5  207.18    7.80
  -7  -4  -5  225.88    8.20
   7  -4   5  204.58    7.80
   7  -4   5  210.18    7.40
  -7   4  -5  204.68    7.30
   7   4   5  212.28    7.50
  -7   4  -5  209.08    7.80
  -8  -5   5   92.49    4.60
  -8  -5   5  104.59    4.50
   8  -5  -5   97.79    5.70
   8  -5  -5  102.69    4.40
   8   5  -5  104.79    4.90
   8   5  -5  108.29    5.20
   7  -5  -5    7.70    1.60
   7  -5  -5    9.60    2.10
  -7  -5   5   11.90    2.10
  -7  -5   5   12.10    2.20
  -7  -5   5   12.20    2.40
   7   5  -5    7.70    1.40
   7   5  -5    9.70    2.00
   7   5  -5    9.90    2.20
  -6  -5   5   50.99    3.30
   6  -5  -5   49.40    4.70
  -6  -5   5   53.99    3.80
   6  -5  -5   52.29    3.50
  -6  -5   5   34.40    7.30
   6   5  -5   58.89    4.40
   6   5  -5   55.39    4.00
  -5  -5   5  440.86   15.20
   5  -5  -5  454.35   16.20
   5  -5  -5  416.26   15.60
  -5  -5   5  405.16   17.30
   5  -5  -5  426.46   15.00
  -5  -5   5  422.56   15.30
   5  -5  -5  420.46   15.00
   5   5  -5  429.76   15.30
   5   5  -5  437.96   15.50
   5   5  -5  440.36   15.90
   4  -5  -5  538.95   18.60
   4  -5  -5  511.05   19.90
  -4  -5   5  539.35   18.50
  -4  -5   5  557.54   18.50
  -4  -5   5  540.65   19.30
  -4  -5   5  530.25   19.80
   4  -5  -5  506.25   18.30
   4  -5  -5  536.15   19.50
   4  -5  -5  518.05   19.10
   4   5  -5  530.75   18.70
   4   5  -5  529.85   17.70
   4   5  -5  554.54   18.70
   4   5  -5  547.85   19.20
   3  -5  -5  138.99    6.20
   3  -5  -5  128.69    6.10
   3  -5  -5  117.39    8.40
  -3  -5   5  137.99    7.20
  -3  -5   5  123.79    7.90
  -3  -5   5  139.49    6.00
   3  -5  -5  148.89    7.70
  -3  -5   5  137.49    5.90
   3  -5  -5  132.29    6.70
  -3  -5   5  141.49    6.90
   3   5  -5  133.99    6.20
   3   5  -5  143.19    6.50
   3   5  -5  144.09    5.80
   3   5  -5  139.59    6.20
   2  -5  -5  223.08    8.90
   2  -5  -5  231.78    9.90
  -2  -5   5  221.88    9.30
  -2  -5   5  226.28    9.40
  -2  -5   5  221.88    8.50
  -2  -5   5  210.08    9.70
   2  -5  -5  226.08    9.40
  -2  -5   5  210.88    8.40
   2  -5  -5  213.48   10.60
   2   5  -5  222.38    8.70
  -2   5   5  225.08    7.90
   2   5  -5  228.08    9.00
   2   5  -5  217.78    8.70
   2   5  -5  230.18    8.80
   1  -5  -5  192.58    8.20
  -1  -5   5  192.98    8.40
  -1  -5   5  194.68    8.10
   1  -5  -5  197.38    9.40
   1  -5  -5  192.28    8.20
   1  -5  -5  193.28    8.00
   1  -5  -5  200.08    8.70
  -1  -5   5  185.98    7.40
  -1  -5   5  179.98    7.50
  -1   5   5  192.68    7.00
   1   5  -5  175.48    7.80
   1   5  -5  193.98    7.70
   1   5  -5  189.08    7.90
   1   5  -5  200.78    8.00
  -1   5   5  188.18    7.40
   0  -5   5    9.80    2.30
   0  -5  -5   11.50    3.20
   0  -5   5   13.50    2.00
   0  -5  -5   15.00    3.30
   0  -5  -5   11.50    2.20
   0  -5   5   15.90    2.70
   0  -5   5   13.40    2.20
   0  -5  -5   14.80    2.30
   0  -5  -5   18.00    3.00
   0   5  -5   13.60    1.90
   0   5  -5   10.10    1.50
   0   5   5   12.10    1.70
   0   5   5    9.90    1.70
   1  -5   5   58.19    4.20
   1  -5   5   45.50    4.10
  -1  -5  -5   54.69    3.90
   1  -5   5   46.00    3.60
  -1  -5  -5   51.99    4.10
   1  -5   5   53.39    4.10
  -1  -5  -5   44.70    3.80
   1   5   5   55.49    3.10
  -1   5  -5   50.39    2.90
  -1   5  -5   51.79    2.80
  -1   5  -5   53.29    3.80
  -1   5  -5   49.70    4.20
  -1   5  -5   47.20    3.00
   1   5   5   40.90    3.60
   2  -5   5  222.88    8.70
   2  -5   5  219.78    8.70
  -2  -5  -5  202.08    9.20
  -2  -5  -5  218.98    8.70
   2  -5   5  213.58    8.90
  -2  -5  -5  201.08    8.70
   2  -5   5  223.28    9.10
  -2  -5  -5  224.18    9.20
  -2   5  -5  207.78    8.80
  -2   5  -5  200.28    9.50
   2   5   5  205.98    9.70
  -2   5  -5  214.88    7.90
   2   5   5  221.68    8.20
  -2   5  -5  218.68    8.00
  -2   5  -5  214.28    7.80
   2   5   5  227.18    8.10
   2   5   5  209.98    8.70
   2   5   5  221.88    8.50
  -3  -5  -5  142.19    6.80
  -3  -5  -5  146.49    7.20
   3  -5   5  136.09    6.70
   3  -5   5  142.89    6.20
  -3  -5  -5  139.69    6.80
   3  -5   5  148.89    7.00
   3  -5   5  143.59    6.40
  -3   5  -5  145.99    5.80
  -3   5  -5  142.59    7.90
   3   5   5  154.58    6.70
   3   5   5  141.59    6.30
   3   5   5  151.88    6.30
   3   5   5  133.19    7.50
   3   5   5  150.48    6.00
  -3   5  -5  146.39    5.70
   3   5   5  147.29    6.00
  -3   5  -5  151.58    6.00
  -4  -5  -5   74.09    4.80
   4  -5   5   66.99    4.50
   4  -5   5   67.59    4.50
   4  -5   5   72.19    5.30
   4  -5   5   64.29    4.10
   4   5   5   68.79    3.50
   4   5   5   71.69    3.80
   4   5   5   79.49    5.90
  -4   5  -5   71.69    3.80
   4   5   5   68.39    4.10
   4   5   5   63.59    3.90
  -4   5  -5   66.19    3.50
  -4   5  -5   71.39    3.40
  -4   5  -5   59.29    6.20
   4   5   5   82.69    7.30
   5  -5   5  195.68    7.50
  -5  -5  -5  191.48    7.60
   5  -5   5  179.78    8.20
  -5  -5  -5  200.18    8.10
   5  -5   5  192.68    7.80
   5  -5   5  192.48    7.90
   5   5   5  204.78    7.80
  -5   5  -5  180.98    7.80
  -5   5  -5  199.28    7.30
   5   5   5  185.18    7.40
   5   5   5  195.78    8.70
   5   5   5  190.58    7.40
  -5   5  -5  193.58    7.10
   5   5   5  179.48    8.60
   5   5   5  191.08    7.00
   6  -5   5   16.90    2.40
   6  -5   5   16.80    2.00
  -6  -5  -5   15.40    2.20
  -6  -5  -5   15.60    2.10
  -6  -5  -5   16.60    3.70
  -6   5  -5   13.00    2.30
  -6   5  -5   16.20    1.80
   6   5   5   16.30    3.10
   6   5   5   13.60    1.90
   6   5   5   13.60    2.10
  -7  -5  -5  110.79    4.60
  -7  -5  -5  113.39    4.60
   7  -5   5  114.09    4.70
  -7   5  -5  113.19    4.50
  -7   5  -5  110.69    4.20
   7   5   5  118.29    4.50
  -8  -6   5   97.49    4.00
   8   6  -5  101.49    3.90
   8   6  -5   87.99    4.20
   7  -6  -5   50.89    3.00
  -7  -6   5   43.10    3.80
  -7  -6   5   49.70    3.20
   7  -6  -5   55.09    4.10
   7   6  -5   51.79    3.50
   7   6  -5   48.30    2.80
   7   6  -5   44.50    3.50
   6  -6  -5    7.50    1.60
  -6  -6   5    9.60    2.10
  -6  -6   5    9.90    1.90
   6  -6  -5    5.10    1.80
  -6  -6   5    8.20    3.00
   6  -6  -5   10.00    2.50
   6   6  -5    9.10    2.00
   6   6  -5    9.30    1.60
  -5  -6   5  131.19    5.80
   5  -6  -5  127.89    7.20
  -5  -6   5  140.49    6.80
  -5  -6   5  118.99    8.60
   5  -6  -5  136.99    6.70
  -5  -6   5  131.09    6.50
   5   6  -5  137.39    6.10
   5   6  -5  134.09    6.50
  -4  -6   5  428.06   17.40
  -4  -6   5  520.45   18.60
  -4  -6   5  478.65   17.00
  -4  -6   5  464.25   16.00
  -4  -6   5  436.86   16.20
   4  -6  -5  455.15   16.20
  -4  -6   5  451.55   17.10
   4  -6  -5  451.35   15.90
   4  -6  -5  431.96   16.40
   4   6  -5  454.95   16.20
   4   6  -5  443.46   15.50
   4   6  -5  480.55   16.80
   4   6  -5  458.45   16.20
   3  -6  -5  230.98    8.70
  -3  -6   5  217.58    8.60
  -3  -6   5  226.28    9.70
   3  -6  -5  220.08    8.90
  -3  -6   5  213.38    9.80
   3  -6  -5  242.08   10.10
  -3  -6   5  228.08    9.80
  -3  -6   5  205.58    9.00
   3  -6  -5  224.18    9.40
  -3  -6   5  224.88    9.70
   3   6  -5  220.78    8.90
   3   6  -5  214.38    8.60
   3   6  -5  233.58    9.40
   3   6  -5  233.28    9.00
  -3   6   5  221.48    7.90
   2  -6  -5 1214.68   38.50
  -2  -6   5 1169.48   39.00
  -2  -6   5 1105.69   38.90
  -2  -6   5 1159.68   38.60
  -2  -6   5 1109.39   37.90
   2  -6  -5 1195.98   38.20
   2  -6  -5 1148.69   38.70
  -2  -6   5 1139.89   38.40
   2  -6  -5 1183.58   39.30
  -2   6   5 1153.48   37.50
   2   6  -5 1134.59   38.20
   2   6  -5 1134.39   38.40
   2   6  -5 1192.88   38.40
   2   6  -5 1126.59   38.60
  -1  -6   5   96.59    5.70
   1  -6  -5   94.99    5.30
   1  -6  -5   98.29    5.10
  -1  -6   5  101.09    5.50
   1  -6  -5   92.99    5.80
   1  -6  -5   92.29    5.30
  -1  -6   5   97.09    5.50
   1  -6  -5   92.99    5.40
  -1  -6   5   91.89    5.70
   1   6  -5  101.79    5.40
  -1   6   5   98.89    4.20
  -1   6   5  100.49    4.70
   1   6  -5   97.09    5.00
   1   6  -5  102.29    4.30
   1   6  -5  101.59    5.50
   0  -6   5    4.10    2.10
   0  -6   5    2.70    2.60
   0  -6   5    1.70    1.60
   0  -6  -5    1.90    1.60
   0  -6  -5   -1.80    1.90
   0  -6   5    2.30    2.00
   0  -6   5    0.30    1.80
   0  -6  -5   -2.30    2.20
   0  -6  -5    3.40    1.90
   0  -6  -5    3.80    1.80
   0  -6  -5    2.10    1.80
   0   6   5    0.90    1.00
   0   6  -5    1.80    1.30
   0   6  -5    3.40    2.10
   0   6  -5    1.50    1.70
   0   6   5    1.70    1.30
   0   6  -5   -0.20    1.60
   0   6  -5    2.60    1.10
   0   6   5    6.00    2.30
   1  -6   5    8.90    2.00
  -1  -6  -5   11.00    2.50
   1  -6   5    8.50    2.00
  -1  -6  -5   15.40    2.90
   1  -6   5    6.50    2.20
  -1  -6  -5   13.90    1.90
  -1  -6  -5   12.30    2.20
  -1  -6  -5    8.70    1.90
   1  -6   5   13.60    2.60
   1   6   5    8.60    1.90
  -1   6  -5    9.60    1.40
  -1   6  -5   10.40    1.80
   1   6   5   12.50    1.80
  -1   6  -5    8.70    1.50
  -1   6  -5   11.30    2.60
   1   6   5   12.80    2.20
  -1   6  -5   12.10    2.10
  -2  -6  -5  199.08    8.30
  -2  -6  -5  176.08    8.30
  -2  -6  -5  187.18    7.60
   2  -6   5  181.58    8.10
  -2  -6  -5  177.78    7.70
   2  -6   5  174.38    7.60
   2  -6   5  178.18    7.60
  -2  -6  -5  186.98    7.80
   2  -6   5  187.38    8.20
  -2   6  -5  180.88    7.90
   2   6   5  189.98    7.60
  -2   6  -5  181.18    7.10
  -2   6  -5  180.48    9.00
   2   6   5  208.58    8.80
   2   6   5  188.78    7.80
  -2   6  -5  191.08    7.30
   2   6   5  189.58    7.20
  -2   6  -5  191.48    7.20
   3  -6   5  179.88    7.20
  -3  -6  -5  159.78    7.90
   3  -6   5  174.88    7.50
  -3  -6  -5  164.98    9.30
  -3  -6  -5  167.78    7.90
  -3  -6  -5  176.58    7.20
   3  -6   5  177.68    7.70
   3   6   5  159.68    6.70
  -3   6  -5  169.58   10.00
   3   6   5  165.98    9.00
   3   6   5  177.78    7.00
  -3   6  -5  173.58    6.70
   3   6   5  170.08    6.70
   3   6   5  181.68    7.40
   3   6   5  173.58    7.30
  -3   6  -5  175.58    6.70
  -3   6  -5  180.38    6.60
  -4  -6  -5   49.99    5.90
   4  -6   5   37.20    3.60
   4  -6   5   44.40    4.10
   4   6   5   45.40    3.60
   4   6   5   43.60    3.70
   4   6   5   41.30    3.40
  -4   6  -5   43.90    3.00
   4   6   5   45.30    4.50
  -4   6  -5   46.30    2.60
   4   6   5   46.10    3.30
   4   6   5   43.00    2.70
   4   6   5   39.70    5.50
  -5  -6  -5   39.40    2.80
   5  -6   5   43.70    3.20
   5  -6   5   44.80    4.00
  -5  -6  -5   45.80    3.30
   5  -6   5   39.40    2.80
   5   6   5   45.40    2.40
   5   6   5   44.30    3.30
  -5   6  -5   46.90    2.60
   5   6   5   43.20    2.60
  -5   6  -5   40.40    2.60
   5   6   5   47.10    3.20
  -6  -6  -5   29.70    2.40
  -6  -6  -5   30.30    2.30
   6  -6   5   34.10    4.70
  -6   6  -5   32.70    2.30
  -6   6  -5   26.00    3.60
  -6   6  -5   29.10    2.00
   6   6   5   29.00    3.00
   6   6   5   28.10    3.20
   6   6   5   33.20    2.10
   7  -7  -5    3.10    1.50
  -7  -7   5   -0.30    1.20
   7   7  -5    0.90    1.50
   7   7  -5    1.20    1.00
   6  -7  -5    1.80    2.20
  -6  -7   5    0.00    1.30
   6  -7  -5    3.90    4.70
   6  -7  -5   -0.30    1.10
   6   7  -5    0.80    1.60
   6   7  -5    1.60    1.10
   6   7  -5    0.70    2.70
   5  -7  -5    5.10    2.30
  -5  -7   5   10.70    3.30
   5  -7  -5    8.10    1.50
   5  -7  -5    7.70    1.40
  -5  -7   5    6.10    1.70
   5   7  -5   11.00    1.70
   5   7  -5    7.30    1.40
   5   7  -5    7.50    1.80
   4  -7  -5   28.80    2.80
  -4  -7   5   31.10    4.30
   4  -7  -5   24.80    3.40
  -4  -7   5   30.80    5.50
  -4  -7   5   26.80    3.30
   4   7  -5   19.70    3.10
   4   7  -5   23.90    3.10
   4   7  -5   25.50    4.30
   4   7  -5   21.30    3.10
  -3  -7   5  324.27   13.40
  -3  -7   5  334.97   13.00
   3  -7  -5  347.77   12.80
  -3  -7   5  337.97   13.00
   3  -7  -5  334.97   12.20
  -3  -7   5  330.57   12.80
   3  -7  -5  355.16   12.50
   3  -7  -5  330.77   13.10
   3   7  -5  339.07   12.40
   3   7  -5  330.67   12.30
   3   7  -5  353.26   12.50
  -3   7   5  340.07   11.60
   3   7  -5  344.17   12.80
  -2  -7   5  111.39    6.10
   2  -7  -5  109.59    6.20
   2  -7  -5  113.59    5.80
  -2  -7   5  109.59    6.40
   2  -7  -5  111.39    5.40
  -2  -7   5  116.89    6.20
  -2  -7   5  105.79    5.90
   2  -7  -5  114.09    5.50
   2   7  -5  117.79    6.10
   2   7  -5  111.59    5.80
  -2   7   5  124.49    5.10
  -2   7   5  110.39    4.60
   2   7  -5  115.29    5.70
   2   7  -5  110.49    5.40
  -1  -7   5  189.88    8.40
   1  -7  -5  181.28    8.30
  -1  -7   5  193.38    8.40
  -1  -7   5  186.08    8.00
   1  -7  -5  196.68    7.80
   1  -7  -5  180.18    7.80
   1  -7  -5  191.08    8.10
  -1  -7   5  191.48    8.40
  -1  -7   5  183.98    8.10
   1   7  -5  184.58    6.90
   1   7  -5  181.68    8.30
  -1   7   5  187.38    7.90
  -1   7   5  187.68    7.00
   1   7  -5  187.28    7.80
  -1   7   5  191.88    7.30
   0  -7   5   24.40    4.20
   0  -7   5   22.60    3.60
   0  -7   5   26.60    3.70
   0  -7  -5   24.30    3.40
   0  -7   5   23.80    3.50
   0  -7  -5   28.20    3.30
   0  -7  -5   21.90    3.60
   0  -7  -5   32.70    3.00
   0  -7   5   26.90    3.70
   0  -7  -5   29.70    3.40
   0   7   5   27.10    3.10
   0   7   5   26.50    2.20
   0   7  -5   24.70    2.50
   0   7   5   25.80    2.50
   0   7  -5   29.90    3.10
   0   7  -5   26.60    2.30
   0   7  -5   29.10    4.20
   0   7   5   27.80    3.60
  -1  -7  -5  347.47   12.90
  -1  -7  -5  350.96   13.50
  -1  -7  -5  332.07   13.00
   1  -7   5  359.46   13.10
  -1  -7  -5  356.26   12.60
  -1  -7  -5  395.16   13.80
   1  -7   5  359.96   13.50
   1  -7   5  364.86   13.50
   1   7   5  370.86   12.70
  -1   7  -5  355.26   12.30
   1   7   5  368.36   12.60
  -1   7  -5  361.26   12.50
   1   7   5  364.96   13.10
   1   7   5  356.96   12.80
  -1   7  -5  361.66   13.00
  -1   7  -5  326.47   12.50
   2  -7   5  196.58    8.30
   2  -7   5  191.48    7.70
  -2  -7  -5  193.98    7.80
  -2  -7  -5  188.38    7.50
  -2  -7  -5  185.58    9.10
  -2  -7  -5  200.78    8.50
   2  -7   5  189.48    8.30
  -2   7  -5  187.68    7.10
   2   7   5  191.88    7.40
  -2   7  -5  186.18    7.40
   2   7   5  198.88    7.60
   2   7   5  199.18    7.40
  -2   7  -5  178.78    9.80
   2   7   5  203.68    8.00
  -2   7  -5  198.58    7.30
   3  -7   5  161.88    7.30
  -3  -7  -5  153.08    7.00
   3  -7   5  150.58    6.90
  -3  -7  -5  159.08    6.90
   3  -7   5  151.08    6.40
   3  -7   5  154.78    7.00
  -3  -7  -5  161.58    6.40
  -3   7  -5  150.78    5.90
   3   7   5  153.38    6.00
   3   7   5  144.49    6.20
  -3   7  -5  154.48    6.00
  -3   7  -5  137.39   10.00
   3   7   5  147.19    6.30
   3   7   5  163.28    6.20
   3   7   5  161.48    6.70
  -3   7  -5  174.98    7.80
  -4  -7  -5   84.89    4.00
   4  -7   5   82.49    4.30
   4  -7   5   86.19    4.70
  -4  -7  -5   81.19    4.40
   4  -7   5   78.19    4.60
   4  -7   5   81.39    3.80
   4   7   5   79.19    3.70
   4   7   5   84.89    3.80
   4   7   5   80.79    3.50
   4   7   5   79.89    4.20
  -4   7  -5   78.89    3.60
  -4   7  -5   80.79    4.40
  -4   7  -5   82.89    3.60
  -5  -7  -5  144.09    5.70
   5  -7   5  134.89    6.00
   5  -7   5  138.79    5.20
  -5  -7  -5  142.39    5.40
   5  -7   5  129.59    6.00
   5   7   5  148.09    5.80
  -5   7  -5  145.89    5.20
   5   7   5  143.29    5.30
  -5   7  -5  124.69    5.30
  -6  -7  -5    3.60    1.00
  -6  -7  -5    1.20    0.90
   6   7   5    2.70    1.00
  -6   7  -5    3.20    1.00
   6  -8  -5    9.70    1.50
   6   8  -5    7.10    1.10
   6   8  -5   13.80    2.90
   5  -8  -5    4.40    1.30
  -5  -8   5    6.30    2.60
   5  -8  -5    2.20    1.10
  -5  -8   5    6.80    1.40
   5   8  -5    0.00    2.60
   5   8  -5    7.20    2.20
   5   8  -5    1.90    1.10
   5   8  -5    1.90    1.40
  -4  -8   5    6.20    1.70
   4  -8  -5    6.90    1.50
   4  -8  -5    8.20    1.80
  -4  -8   5    6.90    2.10
   4  -8  -5    3.00    1.10
   4   8  -5    4.60    1.50
   4   8  -5    8.50    3.30
   4   8  -5    4.50    1.30
   4   8  -5    9.90    2.50
   3  -8  -5   10.40    1.80
  -3  -8   5    9.00    2.00
  -3  -8   5    9.70    2.50
  -3  -8   5   14.10    2.30
  -3  -8   5   16.70    3.50
   3  -8  -5   11.10    1.90
   3  -8  -5   12.30    2.00
  -3   8   5    7.90    1.40
   3   8  -5    7.50    2.30
   3   8  -5   14.10    2.20
   3   8  -5   15.40    2.60
  -2  -8   5   83.59    4.60
   2  -8  -5   76.49    4.10
   2  -8  -5   78.89    4.30
  -2  -8   5   76.59    4.60
   2  -8  -5   79.49    4.50
  -2  -8   5   73.89    5.80
  -2  -8   5   82.79    4.70
   2  -8  -5   74.09    4.90
   2   8  -5   74.79    4.90
  -2   8   5   77.29    3.80
   2   8  -5   84.69    4.30
  -2   8   5   81.69    3.60
  -1  -8   5   30.50    3.40
   1  -8  -5   23.70    3.20
   1  -8  -5   30.90    3.20
  -1  -8   5   22.20    4.60
  -1   8   5   29.20    2.20
  -1   8   5   25.60    2.30
  -1   8   5   31.10    3.50
   1   8  -5   30.60    4.40
   0  -8   5    1.70    2.10
   0  -8  -5    0.90    1.20
   0  -8  -5    0.20    2.20
   0  -8  -5    0.30    1.70
   0  -8  -5    0.70    1.60
   0   8   5    0.50    1.40
   0   8   5    0.40    1.00
   0   8   5    3.10    1.90
   0   8   5    0.20    1.00
   0   8  -5   -0.30    1.40
   0   8  -5   -1.80    2.70
   0   8  -5   -0.10    1.00
   0   8   5    1.50    1.40
  -1  -8  -5   58.09    3.40
  -1  -8  -5   59.29    3.20
   1  -8   5   66.79    4.10
   1  -8   5   56.29    3.60
  -1  -8  -5   61.69    3.50
  -1  -8  -5   63.49    4.00
  -1  -8  -5   57.29    3.90
  -1   8  -5   56.69    3.20
   1   8   5   59.49    3.30
  -1   8  -5   59.59    3.80
   1   8   5   59.59    3.10
   1   8   5   60.19    3.40
   1   8   5   54.39    3.70
   1   8   5   58.59    3.10
  -1   8  -5   48.70    6.30
  -1   8  -5   60.19    3.00
  -2  -8  -5  112.09    5.50
   2  -8   5  118.19    5.10
  -2  -8  -5  114.69    4.90
  -2  -8  -5  117.19    5.20
  -2  -8  -5  121.59    5.60
   2  -8   5  123.49    5.70
  -2  -8  -5  117.29    5.10
   2   8   5  112.59    4.90
   2   8   5  121.09    5.40
   2   8   5  118.19    4.80
  -2   8  -5  121.79    4.70
  -2   8  -5  109.79    4.80
   2   8   5  123.39    5.00
   2   8   5  125.49    5.00
   3  -8   5    2.60    1.00
  -3  -8  -5    1.50    1.40
   3  -8   5    1.90    1.50
   3  -8   5    3.40    1.50
  -3  -8  -5    1.90    1.10
  -3  -8  -5    3.10    1.90
   3   8   5    2.40    1.00
  -3   8  -5    1.40    0.90
  -3   8  -5    2.20    1.70
   3   8   5    3.50    1.60
   3   8   5    2.20    1.10
   3   8   5    4.50    1.80
   3   8   5    2.20    0.90
   4  -8   5   68.89    3.50
   4  -8   5   62.19    3.00
   4  -8   5   63.39    3.90
  -4  -8  -5   63.59    3.40
  -4  -8  -5   64.69    3.00
   4   8   5   67.19    3.60
   4   8   5   67.19    3.00
   4   8   5   66.49    2.80
  -4   8  -5   51.79    3.40
  -4   8  -5   65.49    2.90
  -5  -8  -5   75.59    3.10
  -5  -8  -5   77.59    3.30
  -5   8  -5   74.29    3.40
   5   8   5   77.59    3.20
  -5  -9   5    2.70    1.30
   5  -9  -5    2.30    1.10
   4  -9  -5   23.70    1.90
   4  -9  -5   21.30    2.90
   4  -9  -5   22.70    2.20
  -4  -9   5   26.20    2.30
  -4  -9   5   24.80    2.90
   4   9  -5   20.80    2.00
  -3  -9   5   74.49    4.00
   3  -9  -5   78.39    3.60
  -3  -9   5   77.69    3.90
   3  -9  -5   71.69    3.70
   3  -9  -5   72.99    3.50
   3   9  -5   72.69    3.60
   2  -9  -5  190.38    7.10
  -2  -9   5  185.18    7.50
  -2  -9   5  196.08    7.40
   2  -9  -5  189.88    7.30
   2  -9  -5  187.08    7.10
  -2   9   5  177.98    6.80
  -2   9   5  186.58    6.80
   2   9  -5  190.98    7.20
   1  -9  -5  317.07   11.40
   1  -9  -5  322.37   11.50
   1  -9  -5  317.57   11.30
  -1  -9   5  329.07   11.60
  -1  -9   5  336.67   11.90
   1   9  -5  325.67   11.50
  -1   9   5  310.57   11.10
  -1   9   5  323.57   11.30
  -1   9   5  323.37   11.10
   0  -9  -5   19.30    2.10
   0  -9  -5   20.80    2.70
   0  -9   5   17.70    2.30
   0  -9   5   14.50    2.50
   0  -9  -5   15.70    2.10
   0   9  -5   13.50    2.30
   0   9   5   17.70    1.70
   0   9   5   16.50    2.20
   0   9   5   16.00    1.90
   0   9  -5   18.90    2.20
  -1  -9  -5    8.40    1.80
   1  -9   5    6.20    1.70
  -1  -9  -5   10.00    1.60
  -1  -9  -5    8.90    1.40
   1  -9   5    4.60    1.10
   1   9   5    5.70    1.10
   1   9   5    8.30    1.20
  -1   9  -5    5.60    1.70
   1   9   5    6.40    1.90
   1   9   5    6.60    1.30
  -1   9  -5   11.10    2.10
  -2  -9  -5   12.40    2.00
   2  -9   5   12.90    2.50
   2  -9   5   14.30    1.90
   2   9   5   11.10    1.50
   2   9   5   11.00    2.30
   2   9   5   11.50    1.40
   2   9   5   12.80    2.10
  -2   9  -5    9.20    1.60
   3  -9   5   10.60    1.90
   3  -9   5    8.80    1.40
   3   9   5   11.40    1.70
  -3   9  -5    8.20    1.10
   3   9   5   10.80    1.50
  -3 -10   5   11.20    1.50
  -3 -10   5   13.30    2.10
   3  10  -5   11.50    1.60
   2 -10  -5  184.48    6.50
  -2 -10   5  184.98    6.70
   2 -10  -5  179.68    6.90
   2 -10  -5  182.08    6.60
  -2 -10   5  180.88    6.80
   2  10  -5  177.78    6.60
   1 -10  -5   20.30    2.00
  -1 -10   5   17.70    2.10
   1 -10  -5   17.10    1.70
   1 -10  -5   18.30    2.20
  -1  10   5   23.40    2.20
  -1  10   5   15.40    1.80
   1  10  -5   22.30    2.00
   0 -10  -5   76.29    4.40
   0 -10  -5   71.89    4.50
   0 -10  -5   69.09    3.90
   0 -10   5   79.39    3.90
   0  10  -5   72.59    3.60
   0  10   5   77.09    3.20
   0  10   5   74.79    3.20
   1 -10   5    3.30    1.30
   1 -10   5    1.10    1.00
   1  10   5    2.10    0.70
   1  10   5    2.60    1.60
   2 -10   5    3.10    1.20
   2  10   5    3.90    0.80
   9   0  -6  309.27   12.20
  -8   0   6   18.30    3.30
   8   0  -6   23.20    3.60
  -8   0   6   21.20    3.00
  -8   0   6   18.60    2.90
   8   0  -6   18.60    3.20
   8   0  -6   21.10    3.30
  -7   0   6  177.28    7.00
   7   0  -6  158.28    8.70
  -7   0   6  177.18    7.20
   7   0  -6  186.38    8.50
   7   0  -6  169.28    9.30
   6   0  -6   55.79    5.60
   6   0  -6   56.49    5.30
   6   0  -6   57.49    5.20
  -6   0   6   58.99    3.30
   5   0  -6  447.96   16.90
  -5   0   6  403.26   14.60
   5   0  -6  409.26   15.70
  -5   0   6  403.36   14.30
   5   0  -6  403.16   15.90
   5   0  -6  418.66   15.10
   5   0  -6  412.16   16.40
   4   0  -6   69.39    5.40
   4   0  -6   71.09    5.80
   4   0  -6   66.19    5.50
  -4   0   6   74.59    3.40
  -4   0   6   68.99    4.20
   4   0  -6   80.99    6.80
   4   0  -6   65.49    6.50
   4   0  -6   76.89    4.50
  -3   0   6 1149.58   37.00
   3   0  -6 1123.49   37.80
   3   0  -6 1153.38   39.00
   3   0  -6 1111.39   38.80
   3   0  -6 1147.59   37.90
   3   0  -6 1141.49   37.70
  -3   0   6 1137.09   37.20
   3   0  -6 1136.59   38.40
   2   0  -6  270.67   10.70
   2   0  -6  285.17   11.80
   2   0  -6  290.67   11.80
  -2   0   6  285.07    9.90
   1   0  -6  667.13   23.40
   1   0  -6  670.63   24.20
  -1   0   6  744.73   22.80
   1   0  -6  680.43   24.40
  -1   0   6  678.83   22.80
   0   0  -6    3.70    0.80
   0   0  -6    6.40    2.30
   0   0  -6    4.60    2.50
   0   0  -6    5.00    2.00
   0   0   6    1.50    1.00
   0   0   6    2.60    0.90
   0   0  -6    4.50    3.00
   0   0   6    7.10    2.00
   1   0   6   10.40    1.60
   1   0   6    9.10    2.00
  -1   0  -6   10.20    3.70
   1   0   6    7.10    1.30
   1   0   6    7.10    1.70
  -1   0  -6    9.60    2.00
  -1   0  -6    3.10    2.90
  -1   0  -6    7.10    3.30
  -2   0  -6  338.37   12.50
   2   0   6  353.46   12.60
  -2   0  -6  337.27   12.70
   2   0   6  349.77   12.00
   2   0   6  296.67   12.70
   2   0   6  336.47   11.90
  -2   0  -6  348.67   13.00
  -2   0  -6  343.87   12.40
   2   0   6  338.77   12.50
  -3   0  -6  745.93   26.30
   3   0   6  750.52   25.70
   3   0   6  764.72   26.20
   3   0   6  779.32   26.40
  -3   0  -6  810.92   26.70
   3   0   6  777.82   26.50
   3   0   6  778.62   25.70
  -4   0  -6  276.47   10.70
  -4   0  -6  238.28    9.70
   4   0   6  270.07    9.80
   4   0   6  271.07   10.70
   4   0   6  272.77   10.60
   4   0   6  288.97   10.30
  -4   0  -6  273.97   11.00
   4   0   6  271.37   10.60
  -5   0  -6    4.10    2.40
   5   0   6    5.10    2.00
   5   0   6    3.50    2.00
   5   0   6    0.70    1.30
  -5   0  -6    2.70    1.70
   5   0   6    2.60    1.80
  -5   0  -6    1.10    1.80
   6   0   6   89.19    4.80
   6   0   6   96.29    4.70
   6   0   6   90.09    4.30
  -6   0  -6  100.09    5.00
  -6   0  -6   89.99    6.70
   7   0   6    5.30    1.30
  -7   0  -6    6.90    1.40
   7   0   6    6.20    1.80
   7   0   6    7.80    1.30
   9  -1  -6    3.40    1.50
   9  -1  -6    3.90    1.70
   9   1  -6    5.40    2.10
   9   1  -6    2.70    1.90
  -8  -1   6    2.50    1.60
   8  -1  -6    8.10    2.70
  -8  -1   6    2.10    1.50
   8  -1  -6    2.20    1.70
  -8  -1   6    1.40    1.80
   8  -1  -6    5.20    1.80
   8   1  -6    5.80    1.80
   8   1  -6    5.90    2.30
   8   1  -6    2.50    2.00
  -8   1   6    2.30    2.40
  -8   1   6    1.90    2.20
  -7  -1   6   26.20    2.80
  -7  -1   6   29.30    3.00
   7  -1  -6   29.60    5.90
   7  -1  -6   36.20    4.90
  -7  -1   6   23.30    4.40
   7   1  -6   34.60    3.70
  -7   1   6   29.30    4.00
   7   1  -6   31.70    4.80
   7   1  -6   43.00    6.00
   7   1  -6   40.40    5.10
  -7   1   6   30.50    3.00
   6  -1  -6  260.67   12.20
  -6  -1   6  268.77   11.60
   6  -1  -6  286.27   12.60
  -6  -1   6  272.97   10.60
   6  -1  -6  286.97   11.90
  -6  -1   6  283.87   10.40
   6   1  -6  280.87   12.50
   6   1  -6  305.37   12.10
   6   1  -6  286.77   11.00
  -6   1   6  280.27   10.10
   6   1  -6  293.67   12.40
   5  -1  -6  126.09    7.50
  -5  -1   6  116.59    5.00
  -5  -1   6  116.99    5.40
   5  -1  -6  116.59    7.20
   5  -1  -6  106.89    7.00
   5  -1  -6  122.49    6.90
   5   1  -6  114.49    5.80
  -5   1   6  119.29    4.90
   5   1  -6  113.39    6.80
   5   1  -6  110.59    7.20
   5   1  -6  110.99    6.70
   4  -1  -6 2226.38   74.89
  -4  -1   6 2316.57   72.99
   4  -1  -6 2155.18   74.49
   4  -1  -6 2286.07   74.89
  -4  -1   6 2352.46   73.09
   4  -1  -6 2305.27   74.09
   4  -1  -6 2272.97   73.59
   4   1  -6 2340.87   73.59
   4   1  -6 2231.48   74.69
   4   1  -6 2282.27   74.39
  -4   1   6 2228.68   72.59
   4   1  -6 2244.48   73.79
   4   1  -6 2157.18   74.79
   3  -1  -6  840.32   28.70
   3  -1  -6  781.92   29.50
   3  -1  -6  848.52   29.70
   3  -1  -6  861.71   29.00
   3  -1  -6  857.41   28.60
  -3  -1   6  862.31   27.90
   3  -1  -6  839.62   29.90
  -3  -1   6  845.92   28.00
  -3   1   6  864.61   27.60
   3   1  -6  859.11   28.50
   3   1  -6  882.31   29.30
   3   1  -6  842.52   28.50
   3   1  -6  815.12   29.50
   3   1  -6  833.52   29.70
   2  -1  -6  403.46   15.30
   2  -1  -6  391.96   14.30
   2  -1  -6  378.16   15.10
  -2  -1   6  411.76   13.60
   2  -1  -6  409.36   14.60
  -2  -1   6  402.56   13.70
   2   1  -6  384.36   14.00
   2   1  -6  396.66   14.20
   2   1  -6  352.86   15.40
  -2   1   6  402.66   13.60
   2   1  -6  384.26   15.10
  -2   1   6  413.36   13.40
   2   1  -6  396.16   15.30
   1  -1  -6  137.19    6.40
   1  -1  -6  121.29    7.10
  -1  -1   6  143.89    5.40
   1  -1  -6  120.19    6.90
  -1  -1   6  142.89    6.50
  -1  -1   6  155.08    5.60
   1  -1  -6  136.89    6.60
   1   1  -6  150.48    4.80
   1   1  -6  122.79    7.50
   1   1  -6  131.19    7.30
  -1   1   6  140.19    5.30
   1   1  -6  144.79    6.20
   0  -1   6  695.83   22.50
   0  -1  -6  675.03   23.10
   0  -1  -6  657.93   23.30
   0  -1   6  684.33   23.00
   0  -1  -6  650.93   23.80
   0  -1  -6  680.63   23.70
   0  -1   6  665.73   22.50
   0   1   6  702.73   22.50
   0   1  -6  669.13   23.00
   0   1  -6  646.04   23.10
   0   1   6  652.73   23.10
   0   1   6  722.43   23.30
   0   1  -6  678.23   24.30
   0   1   6  706.13   22.40
   0   1  -6  642.44   23.60
   1  -1   6  569.34   18.90
   1  -1   6  550.44   18.80
  -1  -1  -6  544.75   19.40
  -1  -1  -6  528.35   19.70
   1  -1   6  570.04   19.40
  -1  -1  -6  538.95   19.60
   1  -1   6  536.95   19.80
  -1  -1  -6  568.24   20.10
   1  -1   6  558.04   19.30
  -1  -1  -6  581.34   18.70
  -1  -1  -6  557.34   19.80
   1   1   6  581.44   18.90
  -1   1  -6  568.94   19.90
   1   1   6  581.34   18.80
  -1   1  -6  522.15   19.60
   1   1   6  589.94   19.50
   1   1   6  535.65   19.40
  -1   1  -6  566.64   19.30
  -1   1  -6  551.74   19.10
   2  -1   6  413.16   14.40
   2  -1   6  411.96   15.20
  -2  -1  -6  414.46   15.30
   2  -1   6  398.66   14.40
   2  -1   6  426.76   15.10
  -2  -1  -6  404.46   15.40
  -2  -1  -6  431.06   14.70
   2  -1   6  417.66   16.10
   2   1   6  392.76   14.40
   2   1   6  439.66   14.50
  -2   1  -6  436.46   15.20
  -2   1  -6  413.06   15.00
  -2   1  -6  397.96   14.90
   2   1   6  389.46   15.00
   2   1   6  433.86   15.10
  -2   1  -6  452.05   15.40
   3  -1   6  137.59    6.40
   3  -1   6  137.19    6.40
  -3  -1  -6  147.69    6.40
   3  -1   6  140.99    5.80
  -3  -1  -6  144.69    6.70
   3  -1   6  143.69    6.60
   3   1   6  142.59    6.60
   3   1   6  134.49    6.70
  -3   1  -6  138.99    6.70
  -3   1  -6  135.79    5.70
   3   1   6  131.69    7.10
   3   1   6  140.09    6.10
   3   1   6  135.29    5.70
  -3   1  -6  124.49    7.00
   3   1   6  139.09    6.10
  -3   1  -6  132.09    6.40
   4  -1   6   15.20    2.60
   4  -1   6   15.90    2.20
   4  -1   6   13.00    2.10
  -4  -1  -6   21.20    3.30
   4  -1   6   21.60    3.10
   4  -1   6   12.80    2.30
   4   1   6   15.00    2.20
   4   1   6   14.70    2.40
   4   1   6   16.00    2.60
   4   1   6   17.40    2.80
  -4   1  -6   13.90    2.40
   4   1   6   17.80    3.20
  -4   1  -6   12.20    2.50
   4   1   6   17.60    2.70
  -4   1  -6   17.40    2.50
   5  -1   6    4.30    2.00
  -5  -1  -6    1.30    2.10
   5  -1   6    3.00    1.90
   5  -1   6    5.80    2.10
  -5  -1  -6    4.50    2.10
   5  -1   6    2.80    1.40
   5   1   6    5.50    2.00
  -5   1  -6    7.60    2.00
   5   1   6    2.80    2.10
  -5   1  -6    3.40    2.60
   5   1   6    5.20    1.40
   5   1   6    4.50    2.00
  -5   1  -6    3.10    1.40
   6  -1   6   48.10    3.20
   6  -1   6   53.89    3.60
  -6  -1  -6   50.19    5.50
  -6  -1  -6   53.19    3.60
   6  -1   6   53.79    3.60
   6   1   6   45.90    3.80
  -6   1  -6   55.99    3.60
   6   1   6   55.59    3.10
   6   1   6   55.09    3.70
  -6   1  -6   48.20    6.50
   6   1   6   47.90    6.70
  -7  -1  -6    1.50    1.20
   7  -1   6   -1.00    1.30
   7  -1   6    1.60    1.10
   7   1   6    1.60    1.20
  -7   1  -6    2.70    1.20
   7   1   6    0.40    1.10
   9  -2  -6   18.10    2.90
  -9  -2   6   15.90    2.80
   9  -2  -6   10.60    1.80
   9   2  -6   14.00    2.40
   9   2  -6   12.40    2.00
   8  -2  -6   14.90    3.00
  -8  -2   6   17.90    2.20
  -8  -2   6   15.60    2.70
   8  -2  -6   16.60    3.30
   8   2  -6   14.20    3.10
   8   2  -6   15.90    2.80
   8   2  -6   17.20    2.90
   7  -2  -6   28.20    4.00
  -7  -2   6   27.80    3.40
  -7  -2   6   23.90    2.80
  -7  -2   6   23.20    2.60
   7  -2  -6   27.50    4.10
   7  -2  -6   24.50    4.20
   7   2  -6   25.50    3.80
   7   2  -6   24.90    3.00
   7   2  -6   25.90    3.70
   7   2  -6   24.00    4.10
  -7   2   6   22.40    3.50
   6  -2  -6  174.98    9.10
   6  -2  -6  166.88    9.00
  -6  -2   6  173.98    8.00
  -6  -2   6  177.28    7.20
  -6  -2   6  183.28    7.30
   6  -2  -6  177.08    8.60
  -6   2   6  170.38    6.90
   6   2  -6  183.28    8.80
   6   2  -6  184.78    7.80
   6   2  -6  184.98    9.30
   6   2  -6  175.28    8.90
  -5  -2   6    4.80    2.40
  -5  -2   6    2.30    1.20
   5  -2  -6    3.70    2.70
   5  -2  -6    0.70    2.90
  -5  -2   6    3.70    1.50
   5  -2  -6    5.50    2.50
   5  -2  -6    6.50    2.80
   5   2  -6   -1.10    2.90
   5   2  -6    2.80    2.40
   5   2  -6    2.40    1.80
   5   2  -6    3.20    1.60
   5   2  -6    2.70    2.20
  -5   2   6    2.90    1.40
   5   2  -6    3.00    3.00
   4  -2  -6 1092.59   38.50
   4  -2  -6 1155.78   38.70
   4  -2  -6 1145.69   37.80
  -4  -2   6 1141.19   36.80
  -4  -2   6  997.10   37.30
   4   2  -6 1126.99   38.50
  -4   2   6 1147.99   36.20
   4   2  -6 1082.69   37.90
   4   2  -6 1121.09   37.20
   4   2  -6 1108.99   37.50
   4   2  -6 1149.19   38.40
   4   2  -6 1112.29   37.10
   3  -2  -6  139.69    7.80
   3  -2  -6  147.89    6.70
  -3  -2   6  146.89    5.80
   3  -2  -6  135.99    9.50
  -3  -2   6  145.19    6.00
   3  -2  -6  136.99    7.40
  -3   2   6  144.49    5.40
   3   2  -6  149.99    7.40
   3   2  -6  142.99    8.00
   3   2  -6  145.59    6.50
   3   2  -6  140.39    7.40
  -2  -2   6  330.77   11.70
  -2  -2   6  320.07   13.10
   2  -2  -6  340.77   12.40
   2  -2  -6  336.47   12.50
   2  -2  -6  340.17   13.40
   2  -2  -6  334.27   12.70
   2  -2  -6  328.97   13.30
  -2  -2   6  339.97   12.70
  -2  -2   6  330.47   11.70
   2   2  -6  318.57   13.50
  -2   2   6  344.47   11.30
   2   2  -6  308.27   13.20
   2   2  -6  332.07   12.10
   2   2  -6  337.37   12.20
   1  -2  -6  181.28    7.90
   1  -2  -6  187.88    8.20
   1  -2  -6  187.88    8.80
  -1  -2   6  189.98    7.90
  -1  -2   6  200.68    7.20
  -1  -2   6  177.88    9.20
  -1  -2   6  197.58    7.30
   1  -2  -6  177.88    8.60
  -1   2   6  199.38    7.00
   1   2  -6  191.58    7.80
   1   2  -6  189.78    9.60
   1   2  -6  202.78    7.10
   1   2  -6  196.08    7.80
   1   2  -6  200.28    9.40
   0  -2  -6  151.18    6.90
   0  -2   6  148.19    6.50
   0  -2  -6  142.99    7.30
   0  -2   6  146.69    5.80
   0  -2   6  146.89    5.80
   0  -2  -6  150.48    7.10
   0  -2  -6  144.59    6.50
   0  -2  -6  134.19    8.10
   0   2  -6  150.68    6.00
   0   2  -6  142.89    6.40
   0   2   6  154.38    5.70
   0   2  -6  141.49    7.60
   0   2   6  145.09    5.70
   1  -2   6  235.28    9.80
   1  -2   6  237.58    8.80
   1  -2   6  235.88    9.40
  -1  -2  -6  238.18   10.10
  -1  -2  -6  246.98   10.20
   1  -2   6  250.87    9.50
  -1  -2  -6  235.38    9.80
  -1  -2  -6  240.38    9.90
   1  -2   6  241.68    8.80
   1   2   6  242.98    8.80
  -1   2  -6  238.18    9.40
  -1   2  -6  239.38    9.90
   1   2   6  245.48    9.80
  -1   2  -6  245.18    9.30
   1   2   6  233.38    8.70
  -2  -2  -6  672.93   21.70
   2  -2   6  655.13   21.80
  -2  -2  -6  565.14   24.20
  -2  -2  -6  582.74   24.80
   2  -2   6  647.24   22.70
  -2  -2  -6  631.94   22.90
   2  -2   6  661.83   22.40
   2  -2   6  647.94   21.70
   2  -2   6  663.53   22.30
  -2  -2  -6  708.83   22.90
  -2   2  -6  641.24   21.50
   2   2   6  662.63   21.80
   2   2   6  627.24   21.70
  -2   2  -6  672.93   22.70
   2   2   6  649.64   22.50
  -2   2  -6  654.03   22.30
   3  -2   6 1104.19   36.90
   3  -2   6 1062.89   36.90
  -3  -2  -6 1143.89   37.50
  -3  -2  -6 1153.58   36.90
   3  -2   6 1067.49   37.10
   3  -2   6 1107.69   37.10
  -3  -2  -6 1122.39   37.20
  -3   2  -6 1134.19   37.70
   3   2   6 1099.49   36.70
  -3   2  -6 1100.29   36.30
   3   2   6 1157.98   37.30
   3   2   6 1072.59   37.20
   3   2   6 1093.19   36.50
   3   2   6 1118.09   36.50
   4  -2   6  110.09    5.50
  -4  -2  -6   93.79    5.30
   4  -2   6   96.89    5.30
  -4  -2  -6   92.29    5.40
   4  -2   6   93.89    4.90
   4  -2   6   98.89    5.40
   4   2   6   91.19    5.40
   4   2   6   93.29    6.10
  -4   2  -6   99.19    5.20
  -4   2  -6  100.39    6.30
   4   2   6   96.99    4.90
   4   2   6   93.59    4.60
  -4   2  -6   96.19    4.50
   4   2   6  101.09    7.40
   4   2   6   96.99    4.70
   5  -2   6   63.89    4.20
   5  -2   6   56.89    3.80
   5  -2   6   62.29    4.30
  -5  -2  -6   55.79    4.10
   5  -2   6   62.49    4.10
  -5  -2  -6   59.79    4.70
  -5   2  -6   63.99    5.90
   5   2   6   60.09    3.70
   5   2   6   61.29    4.10
   5   2   6   64.19    7.20
   5   2   6   55.69    4.50
  -5   2  -6   59.09    3.40
   5   2   6   73.79    4.90
   6  -2   6   16.20    2.00
  -6  -2  -6   19.60    2.60
   6  -2   6   19.60    2.60
   6  -2   6   18.60    2.60
  -6   2  -6   20.80    2.60
  -6   2  -6   21.70    2.30
   6   2   6   17.80    3.00
   6   2   6   21.50    2.20
  -7  -2  -6   35.50    3.20
   7  -2   6   34.20    2.30
  -7  -2  -6   30.90    2.50
   7  -2   6   30.20    2.50
  -7   2  -6   35.90    2.60
   7   2   6   35.70    2.20
   7   2   6   32.70    2.70
   8  -3  -6   39.90    3.90
  -8  -3   6   36.70    2.70
  -8  -3   6   37.90    3.40
   8  -3  -6   39.60    3.50
   8   3  -6   37.40    2.90
   8   3  -6   36.90    3.80
   8   3  -6   37.10    3.30
  -7  -3   6   21.10    2.50
   7  -3  -6   27.60    4.10
   7  -3  -6   23.40    3.70
   7  -3  -6   27.50    3.80
   7   3  -6   28.10    3.80
   7   3  -6   25.90    3.40
   7   3  -6   24.80    4.20
   7   3  -6   22.80    2.90
  -6  -3   6   29.50    2.90
   6  -3  -6   23.50    4.80
   6  -3  -6   32.20    4.60
   6  -3  -6   23.70    4.50
  -6  -3   6   26.50    2.80
   6   3  -6   28.20    4.20
   6   3  -6   32.10    3.30
   6   3  -6   23.30    4.80
   6   3  -6   30.80    4.30
   6   3  -6   31.10    3.40
   5  -3  -6  152.48    8.20
   5  -3  -6  163.88    8.00
   5  -3  -6  159.28    8.60
   5  -3  -6  148.69    8.50
  -5  -3   6  161.68    6.70
  -5  -3   6  162.78    6.80
   5   3  -6  144.29    8.60
   5   3  -6  164.78    8.20
   5   3  -6  166.58    7.50
   5   3  -6  149.09    8.20
   5   3  -6  168.98    7.50
   5   3  -6  166.68    7.10
   4  -3  -6  244.68   11.00
  -4  -3   6  242.38    9.10
   4  -3  -6  214.58   10.80
  -4  -3   6  230.88    9.20
   4  -3  -6  241.88   10.20
   4  -3  -6  243.28    9.50
   4  -3  -6  260.47   11.10
   4   3  -6  246.18   10.60
   4   3  -6  255.77   10.90
   4   3  -6  239.78    9.80
   4   3  -6  232.28    9.60
   4   3  -6  226.88   11.10
   4   3  -6  242.28    9.50
   3  -3  -6  213.98    9.40
   3  -3  -6  199.28    9.80
  -3  -3   6  219.68   10.20
   3  -3  -6  209.88    9.90
  -3  -3   6  226.98    9.50
  -3  -3   6  219.58    8.30
   3  -3  -6  215.28    8.80
  -3  -3   6  226.08    8.30
   3   3  -6  202.38   12.00
   3   3  -6  224.58    9.00
   3   3  -6  215.38    9.80
   3   3  -6  219.48    8.70
  -3   3   6  213.78    7.60
   3   3  -6  228.48    8.70
   2  -3  -6   24.50    3.50
  -2  -3   6   30.80    4.40
  -2  -3   6   28.40    2.30
  -2  -3   6   25.80    2.40
   2  -3  -6   23.20    4.30
  -2   3   6   27.20    1.80
   2   3  -6   23.20    4.50
   2   3  -6   21.80    3.10
   2   3  -6   27.20    4.50
   2   3  -6   24.70    2.00
  -1  -3   6  429.46   14.30
  -1  -3   6  398.06   14.10
   1  -3  -6  413.16   15.10
   1  -3  -6  403.96   15.50
  -1  -3   6  420.76   15.10
   1  -3  -6  414.86   14.90
   1  -3  -6  410.26   15.60
   1   3  -6  401.46   15.90
   1   3  -6  410.66   14.60
  -1   3   6  427.56   13.90
   1   3  -6  391.06   16.20
   1   3  -6  398.46   14.20
  -1   3   6  395.46   14.00
   1   3  -6  406.76   14.60
   0  -3  -6  122.09    6.30
   0  -3  -6  121.79    7.00
   0  -3   6  141.39    6.70
   0  -3   6  135.99    6.10
   0  -3   6  128.09    6.90
   0  -3   6  130.89    5.30
   0  -3  -6  126.09    6.70
   0  -3  -6  117.99    6.20
   0  -3  -6  123.19    6.50
   0  -3   6  128.19    5.30
   0   3  -6  129.59    5.80
   0   3   6  130.49    5.10
   0   3  -6  102.09    7.50
   0   3   6  126.39    5.20
   0   3  -6  130.09    5.70
   1  -3   6   70.49    4.40
   1  -3   6   67.99    3.60
  -1  -3  -6   69.69    4.80
  -1  -3  -6   70.89    5.40
  -1  -3  -6   74.89    4.80
   1  -3   6   66.39    5.30
   1  -3   6   73.79    4.80
  -1  -3  -6   72.09    4.90
   1  -3   6   70.39    3.80
   1  -3   6   74.79    4.50
  -1   3  -6   65.39    3.70
   1   3   6   67.39    3.40
  -1   3  -6   64.99    5.60
  -1   3  -6   68.49    4.20
   1   3   6   69.49    3.70
  -2  -3  -6 1089.29   37.80
   2  -3   6 1149.98   37.60
   2  -3   6 1106.99   37.40
  -2  -3  -6 1120.39   37.90
   2  -3   6 1138.79   37.40
   2  -3   6 1149.69   37.70
  -2  -3  -6 1065.89   38.00
   2  -3   6 1136.99   36.80
  -2   3  -6 1087.99   37.30
   2   3   6 1157.28   37.00
   2   3   6 1127.59   37.80
  -2   3  -6 1128.69   36.70
   2   3   6 1162.28   37.00
  -2   3  -6 1106.19   36.60
  -2   3  -6 1141.09   37.90
  -3  -3  -6  678.73   24.00
  -3  -3  -6  699.03   24.30
   3  -3   6  701.93   24.20
   3  -3   6  677.93   23.60
  -3  -3  -6  700.43   24.50
   3  -3   6  719.03   24.20
   3  -3   6  728.13   24.00
  -3  -3  -6  719.93   23.40
   3  -3   6  675.73   24.00
  -3   3  -6  686.53   23.30
   3   3   6  709.73   23.50
  -3   3  -6  687.43   23.20
   3   3   6  708.83   24.40
  -3   3  -6  710.93   24.90
   3   3   6  710.23   23.50
   3   3   6  690.03   23.70
  -4  -3  -6  198.68    8.10
   4  -3   6  180.98    8.00
  -4  -3  -6  206.88    8.80
  -4  -3  -6  199.38    8.60
   4  -3   6  202.28    8.50
   4  -3   6  201.88    8.60
   4  -3   6  202.48    8.30
   4   3   6  195.58    7.60
   4   3   6  208.98    8.00
   4   3   6  206.28    8.80
   4   3   6  200.08    8.20
   4   3   6  204.98    9.30
   4   3   6  198.78    7.80
  -4   3  -6  204.88    9.70
  -4   3  -6  195.18    7.50
  -4   3  -6  202.58    7.60
   4   3   6  193.28    7.90
  -5  -3  -6  104.59    5.90
   5   3   6  112.19    5.30
   5   3   6  121.09    6.20
  -5   3  -6  106.09    7.50
  -5   3  -6  109.99    4.90
  -5   3  -6   96.69    4.80
   5   3   6  106.39    6.00
   5   3   6  108.89    4.60
  -6  -3  -6    2.40    1.60
   6  -3   6    2.80    1.30
   6  -3   6    3.80    1.30
  -6   3  -6    1.60    1.10
   6   3   6   -1.00    1.70
   6   3   6    4.50    1.30
   6   3   6   -0.70    1.70
  -6   3  -6    2.70    1.40
  -7  -3  -6  176.18    7.10
   7  -3   6  217.78    8.30
  -7  -3  -6  203.78    8.40
  -7   3  -6  205.98    7.70
   7   3   6  183.78    7.20
   7   3   6  174.68    7.10
  -8  -4   6   48.80    3.10
  -8  -4   6   52.59    2.90
   8  -4  -6   56.29    4.30
   8   4  -6   40.50    3.20
   7  -4  -6   16.40    3.10
   7  -4  -6   13.50    2.50
   7  -4  -6    9.90    2.40
  -7  -4   6   16.50    2.10
  -7  -4   6   17.20    2.80
   7   4  -6   17.50    2.90
   7   4  -6   14.40    2.20
   7   4  -6   18.30    3.30
   6  -4  -6   16.40    3.80
   6  -4  -6    9.60    2.70
  -6  -4   6   13.20    2.30
  -6  -4   6   10.90    1.80
   6  -4  -6   15.60    3.50
   6   4  -6   18.30    2.70
   6   4  -6   17.90    3.90
   6   4  -6   18.30    2.70
   6   4  -6   13.20    3.50
  -5  -4   6   58.69    3.60
   5  -4  -6   46.30    5.30
  -5  -4   6   57.29    3.60
   5  -4  -6   57.39    4.20
   5  -4  -6   56.29    5.60
   5  -4  -6   63.09    5.70
   5  -4  -6   49.20    5.00
   5   4  -6   61.09    5.30
   5   4  -6   57.09    4.20
   5   4  -6   59.09    4.40
   5   4  -6   50.09    6.30
   5   4  -6   54.99    4.00
   4  -4  -6  505.95   18.30
  -4  -4   6  506.65   17.60
  -4  -4   6  487.55   19.30
  -4  -4   6  492.15   17.60
  -4  -4   6  505.45   18.40
   4  -4  -6  538.05   19.40
   4  -4  -6  479.35   19.00
   4  -4  -6  496.75   17.60
   4   4  -6  518.15   17.90
   4   4  -6  543.15   19.30
   4   4  -6  524.45   17.90
   4   4  -6  509.45   18.30
   4   4  -6  460.35   19.20
  -3  -4   6   30.90    2.80
   3  -4  -6   37.20    3.50
  -3  -4   6   29.70    2.60
   3  -4  -6   31.40    4.00
  -3  -4   6   29.70    4.20
   3  -4  -6   37.50    5.30
   3  -4  -6   34.80    4.40
  -3  -4   6   28.70    5.20
  -3   4   6   37.80    2.40
   3   4  -6   33.20    3.30
   3   4  -6   32.20    4.70
   3   4  -6   30.30    3.20
   3   4  -6   39.30    2.00
   3   4  -6   36.60    3.40
   2  -4  -6   30.10    4.40
   2  -4  -6   37.00    3.90
  -2  -4   6   33.00    4.30
  -2  -4   6   32.30    2.70
   2  -4  -6   30.60    3.50
   2  -4  -6   32.90    4.70
  -2  -4   6   33.00    2.70
  -2  -4   6   41.10    4.30
  -2   4   6   38.70    2.30
   2   4  -6   34.20    3.30
   2   4  -6   31.10    3.30
   2   4  -6   34.30    2.60
   2   4  -6   34.00    6.20
   1  -4  -6   26.20    3.30
  -1  -4   6   23.00    4.00
   1  -4  -6   21.30    3.60
  -1  -4   6   19.50    2.40
   1  -4  -6   25.80    4.30
  -1  -4   6   25.70    3.90
   1  -4  -6   23.20    3.30
   1  -4  -6   18.80    3.30
  -1  -4   6   23.40    2.50
   1   4  -6   22.20    3.00
  -1   4   6   24.50    2.00
  -1   4   6   21.80    2.60
   1   4  -6   21.30    2.40
   1   4  -6   15.80    2.40
   0  -4  -6  207.28    9.00
   0  -4   6  211.78    8.10
   0  -4   6  209.18    8.90
   0  -4  -6  222.28    9.40
   0  -4   6  209.18    8.80
   0  -4  -6  218.48    8.80
   0  -4  -6  210.88    9.20
   0  -4   6  206.88    8.00
   0  -4  -6  201.48    8.70
   0  -4   6  224.78    8.90
   0   4  -6  204.68    8.40
   0   4   6  205.68    8.00
   0   4  -6  190.28    7.70
   0   4   6  210.48    7.80
   0   4  -6  220.58    8.60
  -1  -4  -6  422.76   15.30
  -1  -4  -6  402.16   15.00
   1  -4   6  403.56   14.20
   1  -4   6  409.16   14.80
  -1  -4  -6  413.66   15.30
   1  -4   6  404.66   15.00
   1  -4   6  418.06   15.10
   1  -4   6  420.46   15.10
  -1  -4  -6  402.36   15.40
  -1  -4  -6  414.06   15.00
  -1   4  -6  408.96   15.20
  -1   4  -6  413.26   14.80
   1   4   6  424.16   14.40
   1   4   6  402.86   14.20
  -1   4  -6  390.56   14.00
   2  -4   6  532.05   19.00
   2  -4   6  533.05   19.00
  -2  -4  -6  559.84   19.40
   2  -4   6  544.55   19.00
  -2  -4  -6  519.65   19.30
   2  -4   6  554.24   18.80
  -2  -4  -6  524.35   18.70
  -2  -4  -6  541.85   18.90
  -2   4  -6  526.45   18.00
   2   4   6  545.55   18.30
   2   4   6  522.35   19.50
   2   4   6  541.75   18.40
  -2   4  -6  531.35   18.70
   2   4   6  530.85   18.50
  -2   4  -6  529.95   19.50
  -2   4  -6  535.95   18.10
   3  -4   6  321.77   12.20
   3  -4   6  305.97   14.00
   3  -4   6  317.17   11.90
  -3  -4  -6  334.17   12.60
  -3  -4  -6  325.17   12.30
   3  -4   6  318.97   12.10
  -3  -4  -6  319.47   12.00
   3   4   6  316.07   11.40
   3   4   6  310.97   11.50
  -3   4  -6  323.87   12.90
   3   4   6  311.97   12.20
  -3   4  -6  292.77   11.20
  -3   4  -6  324.27   11.30
   3   4   6  334.67   11.70
   3   4   6  298.37   12.70
  -4  -4  -6  130.89    6.30
   4  -4   6  112.99    5.80
   4  -4   6  111.09    5.70
   4  -4   6  115.29    6.00
   4  -4   6  118.69    5.60
  -4   4  -6  123.49    7.10
   4   4   6  117.99    7.00
  -4   4  -6  119.09    5.00
   4   4   6  121.59    5.40
   4   4   6  118.89    5.20
   4   4   6  118.29    5.60
   4   4   6  121.99    5.60
  -4   4  -6  121.49    5.10
   4   4   6  113.19    5.00
   5  -4   6  143.19    6.10
  -5  -4  -6  126.99    6.10
   5  -4   6  138.59    5.80
   5   4   6  117.59    7.00
   5   4   6  130.29    5.90
  -5   4  -6  143.09    5.90
   5   4   6  132.59    5.60
  -5   4  -6  130.59    5.60
   5   4   6  126.09    5.10
   5   4   6  139.79    5.60
   5   4   6  143.09    7.10
  -5   4  -6  136.99    5.30
   6  -4   6  171.68    6.40
  -6  -4  -6  166.08    6.50
  -6  -4  -6  165.88    6.70
   6  -4   6  178.48    6.80
  -6   4  -6  162.08    6.10
   6   4   6  168.98    7.10
  -6   4  -6  164.38    6.60
   6   4   6  171.48    6.40
   6   4   6  163.58    6.30
   6   4   6  164.98    7.00
   7  -4   6   27.20    2.30
  -7  -4  -6   28.10    2.40
  -7  -4  -6   36.30    2.20
   7  -4   6   30.50    2.40
   7   4   6   29.10    2.00
  -7   4  -6   30.80    2.20
  -8  -5   6   16.50    2.20
   8   5  -6   13.80    1.90
  -7  -5   6    6.60    1.70
   7  -5  -6   -0.30    2.30
   7  -5  -6    3.30    2.60
  -7  -5   6    1.90    1.50
   7   5  -6    1.70    1.60
   7   5  -6    2.30    1.20
  -6  -5   6  129.99    5.40
   6  -5  -6  122.59    5.50
   6  -5  -6  116.79    6.80
  -6  -5   6  125.39    5.90
  -6  -5   6  128.99    6.10
   6   5  -6  122.49    6.00
   6   5  -6  125.69    6.70
   6   5  -6  126.49    5.60
  -5  -5   6   53.89    4.20
   5  -5  -6   50.29    3.90
   5  -5  -6   49.30    7.40
  -5  -5   6   47.10    3.20
   5  -5  -6   40.20    4.90
  -5  -5   6   49.70    3.60
  -5  -5   6   46.50    8.80
   5   5  -6   41.30    4.20
   5   5  -6   60.49    4.90
   5   5  -6   52.49    3.90
   5   5  -6   49.40    3.60
  -4  -5   6  137.39    6.20
   4  -5  -6  152.38    8.20
  -4  -5   6  134.19    6.30
   4  -5  -6  155.88    7.90
   4  -5  -6  145.99    6.40
   4  -5  -6  152.98    7.20
  -4  -5   6  128.29    8.50
  -4  -5   6  138.49    7.10
   4   5  -6  142.49    6.90
   4   5  -6  161.28    8.10
   4   5  -6  146.99    6.60
   4   5  -6  143.09    6.50
  -3  -5   6   24.70    5.20
  -3  -5   6   28.40    4.10
  -3  -5   6   29.20    2.80
   3  -5  -6   28.60    3.30
   3  -5  -6   31.00    5.20
  -3  -5   6   26.90    2.90
  -3  -5   6   34.50    4.40
   3  -5  -6   34.10    4.40
   3  -5  -6   29.90    3.80
   3   5  -6   35.20    2.40
   3   5  -6   31.30    3.40
   3   5  -6   26.80    3.20
  -3   5   6   29.00    2.60
   3   5  -6   29.80    3.20
   3   5  -6   28.80    4.90
   2  -5  -6   29.20    5.00
  -2  -5   6   33.90    4.00
   2  -5  -6   33.50    3.50
   2  -5  -6   34.10    4.00
  -2  -5   6   29.50    4.40
  -2  -5   6   36.10    3.20
  -2  -5   6   33.30    5.30
   2  -5  -6   37.90    4.30
   2   5  -6   32.80    6.30
   2   5  -6   30.60    3.40
   2   5  -6   31.80    3.50
   2   5  -6   33.70    3.00
  -2   5   6   34.80    2.30
   1  -5  -6   92.09    5.50
  -1  -5   6   95.09    5.60
   1  -5  -6   98.69    5.30
   1  -5  -6   91.89    5.80
  -1  -5   6   85.39    5.90
  -1  -5   6   87.19    4.60
   1  -5  -6   89.89    6.10
  -1  -5   6   90.69    5.00
   1  -5  -6   98.89    5.50
  -1  -5   6   96.09    5.60
   1   5  -6   96.29    5.00
  -1   5   6   95.19    4.60
   1   5  -6   85.79    5.30
  -1   5   6   93.89    4.10
   1   5  -6   92.99    4.90
   0  -5  -6   74.49    4.70
   0  -5  -6   72.69    5.00
   0  -5  -6   78.49    5.30
   0  -5   6   74.59    4.90
   0  -5   6   73.49    4.70
   0  -5   6   77.79    5.10
   0  -5  -6   73.29    4.00
   0  -5  -6   72.39    5.10
   0  -5   6   76.29    4.90
   0  -5  -6   78.39    4.80
   0  -5   6   71.39    4.30
   0   5   6   75.99    3.60
   0   5  -6   68.69    3.70
   0   5  -6   73.99    4.60
   0   5  -6   70.19    4.40
   0   5   6   74.19    3.90
  -1  -5  -6  513.55   17.90
  -1  -5  -6  507.85   18.00
  -1  -5  -6  497.65   17.50
   1  -5   6  465.65   17.40
   1  -5   6  507.05   17.60
   1  -5   6  497.55   17.60
   1  -5   6  465.25   17.20
  -1  -5  -6  466.65   17.30
   1   5   6  489.75   16.80
  -1   5  -6  473.55   17.90
   1   5   6  497.25   16.80
  -1   5  -6  482.45   16.50
  -1   5  -6  494.75   17.30
   1   5   6  477.45   16.90
  -2  -5  -6   36.50    3.60
   2  -5   6   25.30    3.40
  -2  -5  -6   26.60    3.50
  -2  -5  -6   32.80    3.80
   2  -5   6   33.80    3.80
   2  -5   6   29.80    3.40
  -2  -5  -6   28.90    3.80
   2  -5   6   29.70    3.50
   2   5   6   23.60    3.70
   2   5   6   27.60    3.70
  -2   5  -6   30.90    4.30
  -2   5  -6   31.90    2.50
   2   5   6   32.80    3.20
   2   5   6   31.10    2.50
  -2   5  -6   25.70    3.90
  -2   5  -6   24.50    3.10
   3  -5   6  258.57   10.10
  -3  -5  -6  274.07   10.50
   3  -5   6  249.48   10.70
   3  -5   6  256.87   10.20
  -3  -5  -6  260.17    9.90
  -3  -5  -6  270.87   10.70
   3  -5   6  264.57   10.00
   3  -5   6  255.27   10.20
  -3   5  -6  263.87    9.40
   3   5   6  254.07   11.70
  -3   5  -6  249.28    9.30
  -3   5  -6  243.98   11.40
   3   5   6  252.57    9.50
   3   5   6  262.57    9.50
   3   5   6  257.27    9.60
   3   5   6  256.77    9.70
   3   5   6  278.57   10.20
   4  -5   6   25.10    2.80
   4  -5   6   27.90    3.20
   4  -5   6   25.30    3.20
  -4  -5  -6   28.30    3.40
   4   5   6   31.80    2.80
   4   5   6   23.00    3.90
  -4   5  -6   27.40    5.60
  -4   5  -6   26.60    2.30
   4   5   6   24.10    2.70
  -4   5  -6   26.10    2.60
   4   5   6   21.30    2.40
   4   5   6   29.40    4.10
   4   5   6   29.40    2.40
  -5  -5  -6    2.60    1.10
   5  -5   6    2.90    1.20
  -5  -5  -6    1.70    1.30
   5  -5   6    3.50    1.40
  -5   5  -6    3.20    1.00
   5   5   6    3.10    1.50
   5   5   6    0.10    1.20
   5   5   6    0.50    1.10
  -5   5  -6    1.90    3.00
   5   5   6    1.50    1.00
   6  -5   6   53.29    3.00
  -6  -5  -6   47.50    2.60
  -6  -5  -6   51.69    2.90
   6  -5   6   53.19    2.80
   6   5   6   53.39    2.90
  -6   5  -6   53.09    2.90
   6   5   6   55.39    2.80
  -7  -6   6    1.30    1.30
   7   6  -6    0.10    0.90
   7   6  -6    1.10    1.70
  -6  -6   6    0.90    1.60
  -6  -6   6   -2.50    1.90
   6   6  -6    2.90    1.80
   6   6  -6   -0.50    1.00
   5  -6  -6    7.50    2.30
   5  -6  -6   -1.00    4.90
  -5  -6   6   11.40    2.40
   5  -6  -6    6.60    1.80
  -5  -6   6   10.50    5.70
  -5  -6   6    8.10    2.80
   5  -6  -6   10.50    1.80
  -5  -6   6    5.20    1.70
   5   6  -6    7.40    1.90
   5   6  -6    8.70    2.50
   5   6  -6    6.40    1.50
   5   6  -6    8.60    1.90
   4  -6  -6  415.96   18.40
  -4  -6   6  404.86   14.90
   4  -6  -6  427.76   14.70
   4  -6  -6  420.86   14.20
  -4  -6   6  376.06   14.00
  -4  -6   6  365.86   14.40
  -4  -6   6  359.26   15.70
   4   6  -6  401.66   14.30
   4   6  -6  396.16   14.70
   4   6  -6  408.76   14.40
   3  -6  -6   74.39    4.30
  -3  -6   6   74.59    5.10
   3  -6  -6   75.09    5.30
  -3  -6   6   66.69    4.20
  -3  -6   6   81.79    6.30
   3  -6  -6   78.99    4.90
   3   6  -6   85.09    6.40
   3   6  -6   75.79    4.50
   3   6  -6   70.89    4.70
  -3   6   6   70.39    3.60
   3   6  -6   73.59    4.40
  -2  -6   6   29.00    4.90
   2  -6  -6   31.90    3.40
  -2  -6   6   31.20    3.40
   2  -6  -6   29.30    3.60
  -2  -6   6   31.20    4.00
   2  -6  -6   27.50    3.80
  -2  -6   6   32.90    4.50
   2   6  -6   33.90    3.30
   2   6  -6   32.80    3.30
  -2   6   6   33.40    3.50
   2   6  -6   31.70    3.50
  -2   6   6   32.20    2.40
   1  -6  -6   69.29    4.60
  -1  -6   6   69.29    5.10
  -1  -6   6   63.49    5.00
  -1  -6   6   68.19    4.80
   1  -6  -6   68.19    4.30
   1  -6  -6   76.69    5.00
   1  -6  -6   72.29    4.70
  -1  -6   6   66.09    4.60
   1   6  -6   68.09    4.90
   1   6  -6   65.99    4.30
  -1   6   6   63.89    3.40
   1   6  -6   69.79    4.50
   0  -6   6  107.79    5.90
   0  -6  -6  112.59    6.00
   0  -6  -6  117.19    5.70
   0  -6   6  116.39    6.00
   0  -6  -6  117.69    5.80
   0  -6  -6  128.69    6.30
   0  -6   6  117.99    6.00
   0  -6   6  112.69    6.20
   0   6  -6  120.39    5.70
   0   6  -6  106.19    4.70
   0   6   6  109.99    5.80
   0   6  -6  108.39    6.10
   0   6   6  105.19    5.80
   0   6   6  110.59    4.80
   1  -6   6  299.87   11.50
  -1  -6  -6  290.17   11.20
  -1  -6  -6  293.17   11.70
  -1  -6  -6  308.57   11.90
   1  -6   6  300.07   11.70
  -1  -6  -6  294.07   11.30
   1  -6   6  304.37   11.40
   1  -6   6  302.57   11.70
  -1  -6  -6  289.67   10.70
   1   6   6  290.17   10.70
  -1   6  -6  304.67   11.30
   1   6   6  309.27   10.90
  -1   6  -6  303.87   10.50
  -1   6  -6  300.97   12.10
   1   6   6  295.67   11.10
   2  -6   6   34.80    3.50
  -2  -6  -6   31.90    3.30
  -2  -6  -6   32.80    2.90
  -2  -6  -6   31.40    3.70
  -2  -6  -6   32.10    3.40
   2  -6   6   31.00    3.50
  -2  -6  -6   28.50    3.30
   2  -6   6   31.90    3.20
   2  -6   6   26.20    4.10
   2   6   6   27.70    2.50
  -2   6  -6   29.10    2.40
   2   6   6   25.90    2.40
   2   6   6   33.70    3.20
  -2   6  -6   28.50    2.70
  -2   6  -6   25.90    4.60
  -2   6  -6   21.30    3.80
   2   6   6   29.20    3.00
  -3  -6  -6    7.80    1.60
  -3  -6  -6   14.60    2.30
   3  -6   6    8.70    2.00
   3  -6   6    8.90    2.00
   3  -6   6    8.70    2.00
   3  -6   6    9.20    2.40
  -3  -6  -6    9.50    2.50
   3   6   6    9.00    1.50
  -3   6  -6    8.30    1.30
  -3   6  -6    6.80    3.40
  -3   6  -6   10.90    1.70
   3   6   6   13.90    2.50
   3   6   6   11.80    2.00
   3   6   6   11.00    1.70
   3   6   6    8.40    2.20
   4  -6   6   18.00    2.70
   4  -6   6   19.20    2.20
   4  -6   6   14.60    2.70
   4  -6   6   22.30    2.60
  -4  -6  -6   21.80    2.20
  -4  -6  -6   18.90    2.60
  -4   6  -6   18.80    1.90
   4   6   6   13.20    2.10
   4   6   6   20.50    2.10
   4   6   6   22.30    3.10
  -4   6  -6   19.90    3.40
   4   6   6   16.00    2.40
   4   6   6   18.90    1.90
  -5  -6  -6    9.20    1.60
   5  -6   6    7.80    1.30
   5  -6   6    9.50    1.60
  -5  -6  -6   12.30    1.90
  -5   6  -6   11.10    1.60
   5   6   6    8.00    2.90
   5   6   6   10.20    1.60
   5   6   6   11.80    2.00
  -5   6  -6    7.80    1.20
  -6  -6  -6   14.40    1.70
  -6   6  -6   10.60    1.60
  -7  -7   6   94.09    3.80
   7   7  -6   90.39    3.70
  -6  -7   6   29.50    2.40
   6   7  -6   28.00    2.20
   6   7  -6   22.50    3.30
   5  -7  -6  131.49    5.70
   5  -7  -6  138.69    6.20
   5  -7  -6  152.18    5.70
  -5  -7   6  140.29    6.20
   5   7  -6  143.49    5.80
   5   7  -6  149.19    5.90
   5   7  -6  149.69    6.80
  -4  -7   6   65.59    7.60
   4  -7  -6   46.50    3.50
   4  -7  -6   57.29    3.80
  -4  -7   6   57.29    5.50
  -4  -7   6   54.59    3.80
   4  -7  -6   52.69    3.20
   4   7  -6   51.49    5.10
   4   7  -6   51.99    3.30
   4   7  -6   52.49    3.40
   3  -7  -6   -0.20    1.90
   3  -7  -6   -0.20    2.10
   3  -7  -6    2.00    1.70
   3  -7  -6    3.00    1.50
  -3  -7   6   -2.10    2.90
  -3  -7   6    0.70    2.20
  -3  -7   6    0.50    1.90
   3   7  -6    1.20    1.60
   3   7  -6    3.50    1.90
   3   7  -6    3.00    1.50
  -3   7   6    3.00    1.50
  -2  -7   6   47.20    6.00
   2  -7  -6   67.99    5.70
   2  -7  -6   57.19    4.00
   2  -7  -6   58.79    3.70
  -2  -7   6   55.19    4.10
  -2  -7   6   55.59    5.10
  -2   7   6   52.39    3.00
   2   7  -6   53.49    4.00
   2   7  -6   57.69    3.80
   2   7  -6   49.40    4.00
  -2   7   6   64.29    3.60
   1  -7  -6  186.88    7.60
  -1  -7   6  171.38    8.20
   1  -7  -6  196.38    8.20
  -1  -7   6  175.78    8.50
   1  -7  -6  178.68    7.70
  -1  -7   6  194.68    8.00
  -1  -7   6  182.88    8.00
  -1   7   6  185.08    7.70
   1   7  -6  190.68    7.70
  -1   7   6  188.98    7.10
   1   7  -6  169.68    8.00
  -1   7   6  179.18    7.90
  -1   7   6  181.78    6.90
   0  -7   6  115.49    6.40
   0  -7   6  126.89    7.70
   0  -7   6  119.89    6.10
   0  -7  -6  120.69    6.00
   0  -7  -6  128.49    6.10
   0  -7   6  114.99    5.80
   0  -7  -6  125.69    5.60
   0  -7  -6  121.69    5.80
   0   7   6  124.49    5.10
   0   7   6  122.39    5.20
   0   7  -6  123.09    5.70
   0   7   6  114.19    5.70
   0   7  -6  116.29    6.50
  -1  -7  -6   36.90    3.20
  -1  -7  -6   46.00    3.60
   1  -7   6   32.90    4.70
  -1  -7  -6   45.20    3.00
   1  -7   6   40.40    3.80
  -1  -7  -6   43.40    4.40
   1   7   6   41.10    3.20
   1   7   6   39.00    2.70
   1   7   6   39.90    3.30
   1   7   6   36.70    2.60
  -1   7  -6   41.30    3.50
  -1   7  -6   35.20    2.60
  -1   7  -6   28.80    5.00
  -2  -7  -6   31.10    3.00
   2  -7   6   33.80    3.20
  -2  -7  -6   32.80    3.10
   2  -7   6   30.70    3.40
  -2  -7  -6   28.00    2.90
  -2  -7  -6   33.90    2.60
   2  -7   6   27.80    2.80
   2   7   6   27.70    2.60
   2   7   6   36.10    2.60
  -2   7  -6   35.70    2.30
  -2   7  -6   32.10    3.80
   2   7   6   35.60    3.00
   2   7   6   32.40    2.40
  -2   7  -6   30.40    5.90
   3  -7   6    7.00    1.30
   3  -7   6   12.20    2.10
   3  -7   6    9.10    1.80
  -3  -7  -6   10.10    1.40
  -3  -7  -6   15.00    2.50
   3  -7   6   10.30    2.00
   3   7   6   12.40    1.70
   3   7   6   10.10    1.70
  -3   7  -6   11.20    1.80
   3   7   6    7.90    1.30
   3   7   6   10.20    1.80
   3   7   6   12.40    2.30
  -4  -7  -6   21.90    2.30
   4  -7   6   19.20    2.80
   4  -7   6   17.20    2.40
  -4  -7  -6   22.50    1.80
   4  -7   6   20.40    2.10
   4  -7   6   19.70    2.40
   4   7   6   19.70    2.60
   4   7   6   23.30    1.70
   4   7   6   24.20    2.50
  -4   7  -6   20.60    2.00
   4   7   6   24.20    1.90
  -5  -7  -6    0.50    1.10
   5  -7   6    1.50    1.10
  -5  -7  -6    2.80    0.90
  -5   7  -6   -1.50    1.40
   5   7   6    2.30    0.90
  -6  -8   6    0.40    1.20
   5  -8  -6   12.80    1.80
  -5  -8   6   15.80    2.00
   5   8  -6   17.00    2.40
   5   8  -6   13.10    1.80
   4  -8  -6    0.90    1.90
   4  -8  -6    1.40    1.00
  -4  -8   6    0.60    1.30
   4  -8  -6    2.90    1.50
   4   8  -6    3.00    1.20
   4   8  -6   -0.10    1.40
   3  -8  -6  232.98    9.10
  -3  -8   6  248.18    9.60
   3  -8  -6  260.87    9.20
   3  -8  -6  253.67    9.40
  -3  -8   6  255.97    9.60
   3   8  -6  265.47    9.40
   3   8  -6  247.08    9.30
  -2  -8   6   98.19    5.00
   2  -8  -6  106.89    4.70
   2  -8  -6  102.09    4.80
   2  -8  -6   93.69    5.00
  -2  -8   6  106.59    5.20
   2   8  -6  104.99    4.80
  -2   8   6  101.59    4.50
  -2   8   6  103.49    4.30
   1  -8  -6   49.80    3.20
  -1  -8   6   41.50    3.50
   1  -8  -6   49.80    3.10
  -1  -8   6   44.90    3.50
   1  -8  -6   52.29    3.50
   1   8  -6   35.40    5.30
   1   8  -6   45.70    3.20
  -1   8   6   45.70    2.70
  -1   8   6   50.29    3.60
  -1   8   6   47.60    2.70
   0  -8  -6    3.40    1.30
   0  -8  -6    3.00    1.30
   0  -8  -6    1.10    1.30
   0  -8   6    2.60    1.20
   0  -8   6    0.30    2.40
   0  -8   6    2.80    1.60
   0   8   6    4.10    1.10
   0   8   6    4.40    2.20
   0   8  -6    5.40    4.90
   0   8   6    2.00    1.30
   0   8   6    4.00    1.20
   0   8  -6    3.80    1.50
   0   8   6    2.70    1.30
  -1  -8  -6   10.70    2.10
   1  -8   6   14.30    2.20
   1  -8   6   12.70    2.10
  -1  -8  -6   11.70    1.60
  -1  -8  -6    7.40    1.60
   1   8   6    9.80    1.40
   1   8   6   13.10    2.00
   1   8   6    8.80    1.30
   1   8   6   11.70    1.90
   1   8   6    8.90    1.90
  -1   8  -6    7.80    1.70
  -2  -8  -6    0.00    1.20
   2  -8   6   -0.60    1.30
  -2  -8  -6    2.50    1.50
   2  -8   6   -0.10    0.90
   2  -8   6    0.10    1.50
   2   8   6    0.80    0.90
  -2   8  -6    0.70    1.30
   2   8   6    1.60    1.00
   2   8   6    1.20    0.90
   2   8   6    0.80    1.30
   2   8   6    0.40    2.10
  -3  -8  -6   27.70    2.90
   3  -8   6   21.60    4.10
  -3  -8  -6   20.90    2.10
   3  -8   6   24.10    2.00
   3  -8   6   20.00    2.30
   3   8   6   25.30    2.00
   3   8   6   21.00    1.70
   3   8   6   20.30    1.80
   3   8   6   23.80    2.60
  -4  -8  -6   40.20    2.40
   4  -8   6   36.80    2.30
   4   8   6   41.10    2.20
   4  -9  -6   88.79    3.50
  -4  -9   6   87.39    3.80
   4   9  -6   84.09    3.70
   3  -9  -6   60.89    3.00
   3  -9  -6   64.39    3.40
  -3  -9   6   67.39    3.80
  -3  -9   6   60.69    3.30
   3   9  -6   60.59    3.10
  -2  -9   6   96.59    4.50
  -2  -9   6  100.19    4.50
   2  -9  -6  100.69    4.10
   2  -9  -6  100.39    4.30
  -2   9   6   94.39    4.20
   2   9  -6   99.79    4.30
   1  -9  -6   11.50    1.70
  -1  -9   6    7.80    1.50
  -1  -9   6    7.50    1.70
   1  -9  -6    9.20    1.70
   1   9  -6    8.90    1.40
  -1   9   6    6.90    1.60
  -1   9   6    5.90    1.20
   0  -9   6   42.40    2.60
   0  -9  -6   44.40    2.50
   0  -9  -6   41.50    2.50
   0  -9   6   41.20    2.80
   0   9  -6   38.70    2.80
   0   9   6   41.80    2.30
   0   9   6   41.90    2.60
   1  -9   6   20.10    2.20
  -1  -9  -6   16.10    3.00
   1  -9   6   18.70    2.00
   1   9   6   19.20    1.70
   1   9   6   19.90    1.70
   2  -9   6  114.09    4.50
   2  -9   6  105.19    4.70
   2  -9   6  116.89    4.70
   2   9   6   97.59    4.10
   2   9   6  105.09    4.50
   2   9   6  105.89    4.30
   3  -9   6    3.30    1.20
  -2 -10   6  113.99    5.30
   1 -10  -6   72.69    3.00
  -1 -10   6   73.29    3.30
  -1 -10   6   69.29    3.30
   0 -10   6   20.40    2.10
   0 -10   6   17.90    1.90
   0 -10   6   24.10    2.40
   9   0  -7  210.88    7.80
  -8   0   7    6.50    2.00
   8   0  -7    8.70    1.90
   8   0  -7    7.80    2.10
   8   0  -7    5.90    1.90
   7   0  -7   25.20    3.80
  -7   0   7   25.30    3.10
   7   0  -7   26.50    4.00
  -7   0   7   26.40    2.90
   7   0  -7   29.60    3.90
   6   0  -7  309.37   11.90
   6   0  -7  295.57   12.60
   6   0  -7  276.37   12.40
  -6   0   7  279.97   10.50
   6   0  -7  299.47   12.00
  -6   0   7  277.97   10.70
   5   0  -7   19.80    3.70
   5   0  -7   11.50    2.90
   5   0  -7   13.50    3.00
  -5   0   7   16.20    2.30
   5   0  -7   20.80    3.40
  -5   0   7   17.50    2.20
   4   0  -7 2013.30   65.79
   4   0  -7 1987.80   65.79
   4   0  -7 1964.90   64.89
   4   0  -7 1997.20   64.39
  -4   0   7 1894.11   63.59
  -4   0   7 1931.81   63.69
   4   0  -7 1983.40   64.79
   3   0  -7 1149.39   39.10
   3   0  -7 1143.69   41.30
  -3   0   7 1166.68   38.40
   3   0  -7 1176.98   40.30
   3   0  -7 1170.38   39.50
  -3   0   7 1191.98   38.30
   3   0  -7 1201.68   40.30
   2   0  -7   23.70    4.20
   2   0  -7   20.60    3.30
  -2   0   7   19.20    2.30
   2   0  -7   19.10    4.10
  -2   0   7   21.70    1.90
   2   0  -7   22.50    3.10
  -1   0   7    5.00    1.30
   1   0  -7    7.00    3.90
   1   0  -7    8.70    3.00
   1   0  -7    9.30    4.60
   1   0  -7    5.20    1.90
  -1   0   7    5.50    1.10
   0   0  -7  115.19    6.30
   0   0   7  109.59    4.80
   0   0  -7  110.19    6.70
   0   0  -7  113.69    5.70
   0   0   7  116.39    5.80
   0   0   7  117.09    6.90
   1   0   7  137.79    5.80
   1   0   7  139.69    5.70
  -1   0  -7  140.89    6.50
  -1   0  -7  140.69    5.50
  -1   0  -7  141.79    6.90
   1   0   7  134.59    6.50
  -1   0  -7  117.89    9.40
   1   0   7  145.59    7.20
  -1   0  -7  157.48    9.50
  -1   0  -7  125.39    7.60
  -2   0  -7   76.59    4.90
   2   0   7   74.19    5.30
  -2   0  -7   75.69    5.40
   2   0   7   74.29    4.90
   2   0   7   78.49    6.60
   2   0   7   77.59    4.00
  -2   0  -7   78.89    4.20
   3   0   7  625.94   22.50
  -3   0  -7  685.53   22.80
   3   0   7  625.14   22.20
   3   0   7  637.04   22.10
   3   0   7  680.13   22.40
  -3   0  -7  671.63   22.90
   3   0   7  668.73   23.10
   3   0   7  658.33   22.90
   4   0   7   43.20    3.30
   4   0   7   44.00    3.20
   4   0   7   35.40    4.20
   4   0   7   43.50    4.00
   4   0   7   39.20    4.30
  -4   0  -7   33.60    3.60
   5   0   7  111.49    5.40
   5   0   7   96.49    5.80
   5   0   7  103.79    5.20
  -5   0  -7  111.99    5.40
  -5   0  -7   89.79    6.30
   5   0   7  109.59    4.70
  -6   0  -7    1.80    1.30
   6   0   7    3.80    1.80
   6   0   7    2.90    1.10
   6   0   7    1.00    1.40
   7   0   7   86.79    3.70
  -7   0  -7   89.89    3.90
   7   0   7   87.79    3.90
   9  -1  -7  217.78    8.00
   9   1  -7  213.08    7.90
   8  -1  -7    8.70    2.00
   8  -1  -7   13.50    2.10
  -8  -1   7   18.00    3.00
   8  -1  -7   15.40    2.70
  -8  -1   7   14.40    2.50
   8   1  -7   11.70    2.70
   8   1  -7   11.70    2.10
   8   1  -7    8.70    1.80
  -7  -1   7    6.30    1.70
   7  -1  -7    2.90    2.10
   7  -1  -7    6.10    2.50
   7  -1  -7    3.00    2.10
  -7  -1   7    6.90    1.70
  -7   1   7    2.50    2.00
  -7   1   7   -1.60    3.30
   7   1  -7    5.80    2.20
   7   1  -7    5.70    1.90
   7   1  -7    4.00    1.90
   6  -1  -7  101.19    8.20
  -6  -1   7  100.29    4.70
   6  -1  -7   97.99    6.50
  -6  -1   7  100.29    4.90
   6  -1  -7   98.09    6.70
   6  -1  -7  106.39    6.40
  -6   1   7  100.99    5.50
   6   1  -7   95.09    6.30
   6   1  -7  106.09    6.30
   6   1  -7   93.69    6.50
   6   1  -7  102.69    6.60
  -6   1   7  101.09    4.70
   5  -1  -7   41.80    5.00
   5  -1  -7   40.60    5.10
   5  -1  -7   41.70    5.20
  -5  -1   7   40.40    2.90
   5  -1  -7   48.70    5.10
   5   1  -7   42.70    4.90
  -5   1   7   42.50    5.80
   5   1  -7   41.80    4.70
   5   1  -7   40.20    5.10
  -5   1   7   38.00    2.80
   5   1  -7   44.90    3.80
   5   1  -7   39.30    4.80
   4  -1  -7  683.73   23.60
   4  -1  -7  676.03   24.30
  -4  -1   7  675.93   22.80
   4  -1  -7  691.63   24.10
   4  -1  -7  649.74   24.70
  -4  -1   7  669.23   22.90
   4  -1  -7  681.63   24.90
   4   1  -7  665.73   23.40
   4   1  -7  691.73   24.90
   4   1  -7  678.03   23.90
   4   1  -7  665.23   23.50
  -4   1   7  669.63   22.90
  -4   1   7  683.83   22.60
   4   1  -7  687.73   24.20
   4   1  -7  702.73   24.90
   3  -1  -7  621.44   22.00
   3  -1  -7  613.94   21.40
   3  -1  -7  605.14   21.60
  -3  -1   7  690.53   21.80
   3  -1  -7  619.04   22.70
   3  -1  -7  576.24   22.50
  -3  -1   7  610.84   20.90
  -3   1   7  627.34   20.60
   3   1  -7  601.24   22.20
   3   1  -7  607.24   22.60
  -3   1   7  630.44   20.90
   3   1  -7  605.34   21.50
   3   1  -7  615.24   22.60
   2  -1  -7  122.09    7.00
   2  -1  -7  129.19    6.50
   2  -1  -7  125.19    7.10
   2  -1  -7  131.29    6.40
  -2  -1   7  135.59    5.30
  -2  -1   7  129.59    5.50
   2   1  -7  129.39    7.40
  -2   1   7  128.19    5.10
   2   1  -7  128.19    6.20
   2   1  -7  122.19    7.30
  -2   1   7  129.79    5.40
   1  -1  -7  223.18   11.60
  -1  -1   7  253.97    9.50
  -1  -1   7  266.27   11.10
  -1  -1   7  273.97    9.70
   1  -1  -7  258.37   10.60
   1  -1  -7  267.07   11.10
   1  -1  -7  264.47   10.40
  -1   1   7  276.27    9.50
   1   1  -7  246.78   14.00
  -1   1   7  265.37    9.50
   1   1  -7  267.87   10.30
   1   1  -7  287.87   11.50
   0  -1  -7  144.69    6.50
   0  -1   7  138.19    5.80
   0  -1   7  134.09    7.00
   0  -1  -7  135.09    7.00
   0  -1  -7  151.38    7.20
   0  -1   7  140.39    5.70
   0   1   7  134.09    5.70
   0   1  -7  137.79    7.10
   0   1   7  134.89    5.60
   0   1   7  132.69    6.80
   0   1  -7  133.09    5.20
   0   1  -7  144.79    6.50
   0   1  -7  133.69    7.90
   1  -1   7  299.77   12.20
  -1  -1  -7  316.57   12.20
   1  -1   7  319.97   11.90
   1  -1   7  322.47   11.40
  -1  -1  -7  313.27   12.40
  -1  -1  -7  313.17   12.60
  -1  -1  -7  317.67   12.00
  -1   1  -7  320.37   11.50
   1   1   7  325.47   12.70
  -1   1  -7  321.17   12.40
  -1   1  -7  311.67   12.30
   1   1   7  316.27   11.40
  -1   1  -7  315.57   11.90
   2  -1   7   53.79    4.50
  -2  -1  -7   53.79    3.20
  -2  -1  -7   56.19    4.70
   2  -1   7   50.59    3.50
   2  -1   7   43.40    4.90
  -2  -1  -7   42.30    4.70
   2  -1   7   49.60    3.30
   2  -1   7   52.09    4.10
   2   1   7   46.60    4.90
  -2   1  -7   50.39    4.70
   2   1   7   50.19    3.10
   2   1   7   48.10    4.60
   2   1   7   52.09    3.30
  -2   1  -7   49.20    3.70
  -2   1  -7   54.19    4.20
   3  -1   7  515.55   19.30
  -3  -1  -7  549.15   19.30
   3  -1   7  523.65   18.30
  -3  -1  -7  547.85   18.70
   3  -1   7  530.25   19.00
   3  -1   7  552.44   19.20
  -3   1  -7  554.84   19.30
  -3   1  -7  536.85   19.10
   3   1   7  550.74   19.40
   3   1   7  520.45   19.50
   3   1   7  544.45   19.00
   3   1   7  566.94   18.80
   3   1   7  513.85   18.50
   3   1   7  546.75   18.40
   4  -1   7  364.76   13.10
   4  -1   7  375.56   13.50
  -4  -1  -7  372.56   13.80
   4  -1   7  366.06   13.80
   4  -1   7  378.06   13.50
  -4  -1  -7  373.46   13.60
   4   1   7  343.37   13.30
   4   1   7  367.26   13.20
  -4   1  -7  367.06   14.10
  -4   1  -7  368.96   13.60
   4   1   7  363.96   13.50
   4   1   7  368.96   13.70
   4   1   7  357.66   12.80
   4   1   7  364.76   13.90
   5  -1   7   43.80    4.60
   5  -1   7   50.29    3.20
  -5  -1  -7   49.10    5.00
   5  -1   7   55.29    3.70
  -5  -1  -7   50.89    4.40
   5  -1   7   49.10    3.50
  -5  -1  -7   53.79    3.60
   5   1   7   52.69    3.10
   5   1   7   44.80    4.60
   5   1   7   46.70    4.10
   5   1   7   45.10    4.20
  -5   1  -7   51.19    3.60
  -5   1  -7   44.00    5.00
   6  -1   7   13.70    2.30
  -6  -1  -7   15.60    2.20
   6  -1   7   14.30    2.50
   6  -1   7   14.30    1.70
  -6   1  -7   13.30    2.20
   6   1   7   21.20    2.70
   6   1   7   15.30    2.00
  -7  -1  -7   17.50    2.00
   7  -1   7   19.60    1.90
  -7   1  -7   16.80    2.00
   7   1   7   20.30    1.80
   7   1   7   16.30    2.30
  -8  -2   7   57.79    4.10
   8  -2  -7   59.99    4.20
   8  -2  -7   62.19    4.00
  -8  -2   7   59.59    3.30
   8   2  -7   58.89    4.10
   8   2  -7   58.49    3.90
  -7  -2   7   55.49    3.60
   7  -2  -7   56.29    4.70
   7  -2  -7   60.49    4.80
   7  -2  -7   57.19    4.50
  -7  -2   7   59.89    3.50
   7   2  -7   59.09    4.50
   7   2  -7   63.09    4.90
   7   2  -7   59.79    4.30
   6  -2  -7   11.00    2.80
   6  -2  -7   10.40    2.60
   6  -2  -7   12.20    3.20
  -6  -2   7   13.40    2.40
  -6  -2   7   14.70    2.30
   6   2  -7   10.20    2.70
   6   2  -7   11.30    2.10
   6   2  -7   17.60    3.50
   6   2  -7   13.70    3.10
  -6   2   7   13.00    2.30
   6   2  -7    8.10    3.40
   5  -2  -7   57.79    5.90
   5  -2  -7   53.69    5.20
  -5  -2   7   57.39    3.40
  -5  -2   7   59.19    3.70
   5  -2  -7   63.89    5.20
   5  -2  -7   57.59    5.30
   5   2  -7   53.49    5.10
   5   2  -7   50.39    4.10
  -5   2   7   59.59    3.50
   5   2  -7   57.29    5.30
   5   2  -7   58.49    5.00
   5   2  -7   55.29    5.00
   5   2  -7   55.99    5.50
  -4  -2   7  508.85   18.00
   4  -2  -7  508.35   18.20
  -4  -2   7  520.05   18.00
  -4  -2   7  506.05   18.70
   4  -2  -7  527.45   19.10
   4  -2  -7  489.95   19.60
   4  -2  -7  548.25   20.00
   4   2  -7  514.45   19.20
   4   2  -7  526.75   19.80
  -4   2   7  525.55   17.50
   4   2  -7  549.54   19.90
   4   2  -7  517.05   18.50
   4   2  -7  524.05   18.50
   3  -2  -7 1117.19   39.50
   3  -2  -7 1133.79   38.40
  -3  -2   7 1145.09   38.60
  -3  -2   7 1193.38   38.10
   3  -2  -7 1185.58   39.00
   3  -2  -7 1158.88   39.80
  -3  -2   7 1170.38   38.00
   3   2  -7 1106.59   39.40
   3   2  -7 1158.58   38.40
   3   2  -7 1155.88   38.40
   3   2  -7 1148.89   39.60
   2  -2  -7   10.30    2.60
   2  -2  -7   13.30    3.00
   2  -2  -7    9.20    2.10
   2  -2  -7   13.00    2.60
  -2  -2   7   13.80    2.10
  -2  -2   7   13.10    5.20
   2   2  -7   12.70    3.10
  -2   2   7   10.30    1.70
  -2   2   7   13.40    1.80
   2   2  -7    9.20    3.10
   2   2  -7   17.80    2.60
   1  -2  -7    2.10    2.40
  -1  -2   7    3.00    1.30
   1  -2  -7    2.30    2.30
  -1  -2   7    3.50    2.30
   1  -2  -7    7.20    2.40
  -1   2   7    1.70    1.30
   1   2  -7    5.80    2.00
  -1   2   7    1.90    1.00
   1   2  -7    3.70    3.30
   1   2  -7    1.20    2.60
   0  -2   7   19.60    2.30
   0  -2  -7   17.90    3.80
   0  -2  -7   15.50    2.70
   0  -2   7    9.40    2.30
   0  -2  -7   20.60    3.50
   0   2  -7   13.30    2.10
   0   2   7   16.90    2.00
   0   2   7   12.30    2.20
   0   2  -7   11.60    2.10
   0   2  -7   15.70    3.00
  -1  -2  -7   66.89    4.90
   1  -2   7   63.89    4.80
   1  -2   7   62.29    3.50
  -1  -2  -7   50.69    5.40
   1  -2   7   59.19    3.80
  -1  -2  -7   68.29    4.70
  -1  -2  -7   57.09    4.80
   1  -2   7   64.29    4.40
  -1   2  -7   62.69    3.90
  -1   2  -7   58.89    4.20
   1   2   7   64.79    3.40
   1   2   7   66.29    3.60
  -1   2  -7   57.49    4.70
   2  -2   7   63.19    4.80
   2  -2   7   63.79    4.40
   2  -2   7   60.19    4.20
   2  -2   7   59.69    4.90
  -2  -2  -7   61.49    4.80
  -2  -2  -7   63.99    4.70
  -2  -2  -7   71.09    9.10
   2  -2   7   65.29    3.80
   2   2   7   60.39    5.70
  -2   2  -7   57.79    4.80
  -2   2  -7   66.29    4.30
   2   2   7   66.39    3.50
  -2   2  -7   61.59    4.50
   2   2   7   68.59    3.70
   3  -2   7  358.86   13.60
   3  -2   7  347.17   13.20
  -3  -2  -7  359.06   13.50
   3  -2   7  363.36   12.80
   3  -2   7  372.16   13.30
  -3  -2  -7  339.27   13.30
   3   2   7  341.87   12.70
   3   2   7  357.06   12.80
  -3   2  -7  349.27   13.50
  -3   2  -7  368.16   13.20
   3   2   7  338.67   13.80
  -3   2  -7  349.77   13.30
   3   2   7  364.16   13.40
  -4  -2  -7   31.40    3.70
  -4  -2  -7   32.00    3.60
  -4  -2  -7   29.00    4.20
   4  -2   7   30.30    3.30
   4  -2   7   28.50    4.00
   4  -2   7   32.00    3.60
   4  -2   7   35.30    3.40
   4   2   7   34.70    2.80
   4   2   7   33.80    4.50
   4   2   7   31.20    3.10
  -4   2  -7   31.70    4.20
   4   2   7   35.50    3.40
   4   2   7   31.20    3.10
  -4   2  -7   38.80    3.50
  -5  -2  -7   38.90    3.30
   5  -2   7   38.00    3.20
   5  -2   7   35.20    3.10
   5  -2   7   39.80    3.00
   5   2   7   36.90    4.80
  -5   2  -7   33.40    5.40
   5   2   7   43.30    2.90
  -5   2  -7   40.10    3.10
   5   2   7   43.60    4.10
   6  -2   7   21.60    2.30
  -6  -2  -7   18.60    2.30
   6  -2   7   22.50    3.10
   6  -2   7   21.90    2.30
  -6   2  -7   20.80    2.40
   6   2   7   19.10    3.00
   6   2   7   22.50    1.90
  -7  -2  -7   10.50    1.80
   7  -2   7    7.70    1.20
   7   2   7    8.00    1.10
  -7   2  -7   12.40    1.70
   8  -3  -7    5.30    2.30
  -8  -3   7    6.50    2.00
   8  -3  -7   -0.40    2.00
  -8  -3   7    6.80    1.50
   8   3  -7    3.40    2.30
   8   3  -7    3.10    1.60
  -7  -3   7   22.10    2.70
   7  -3  -7   23.80    4.20
  -7  -3   7   24.30    3.20
   7  -3  -7   22.30    3.50
  -7  -3   7   24.70    2.30
   7   3  -7   22.20    3.10
   7   3  -7   27.10    2.60
   7   3  -7   23.30    3.60
  -6  -3   7   74.59    4.20
   6  -3  -7   73.39    5.80
  -6  -3   7   74.59    4.90
   6  -3  -7   76.99    5.50
  -6  -3   7   77.29    4.10
   6  -3  -7   79.69    5.50
   6   3  -7   85.19    4.50
   6   3  -7   76.89    5.50
   6   3  -7   82.19    5.50
   6   3  -7   82.49    5.50
   5  -3  -7  226.18   10.90
   5  -3  -7  214.58   10.60
   5  -3  -7  230.58    9.80
  -5  -3   7  242.78    9.80
  -5  -3   7  231.88    9.00
  -5  -3   7  237.88    9.00
   5   3  -7  243.08   10.70
   5   3  -7  244.68    9.40
   5   3  -7  230.48    9.40
   5   3  -7  213.38   10.40
  -4  -3   7   88.29    4.60
   4  -3  -7   94.29    5.80
  -4  -3   7   86.49    5.80
   4  -3  -7   99.09    6.40
  -4  -3   7   83.79    4.40
   4  -3  -7   88.59    6.20
   4  -3  -7   84.69    5.00
  -4   3   7   90.59    4.10
   4   3  -7   87.79    5.00
   4   3  -7   84.89    5.10
   4   3  -7   88.79    6.70
   4   3  -7   99.39    6.30
   3  -3  -7   28.70    4.50
  -3  -3   7   26.80    4.70
  -3  -3   7   28.90    2.80
   3  -3  -7   37.00    4.20
   3  -3  -7   29.70    4.50
  -3  -3   7   34.80    2.70
   3   3  -7   27.80    5.50
   3   3  -7   32.60    4.60
  -3   3   7   32.30    2.30
   3   3  -7   27.50    3.30
   3   3  -7   33.40    3.60
   2  -3  -7  543.35   19.20
  -2  -3   7  540.65   19.00
   2  -3  -7  527.15   18.80
  -2  -3   7  534.95   18.20
   2  -3  -7  521.15   19.50
  -2  -3   7  521.65   18.20
   2  -3  -7  507.45   19.70
   2   3  -7  533.15   18.60
   2   3  -7  499.65   19.70
  -2   3   7  535.05   17.70
   2   3  -7  547.15   18.70
  -2   3   7  523.95   18.00
   2   3  -7  524.35   19.60
  -1  -3   7    5.40    2.60
  -1  -3   7    5.40    3.10
   1  -3  -7    1.60    1.80
  -1  -3   7    2.40    1.30
   1  -3  -7    3.50    2.40
   1  -3  -7    2.80    2.30
  -1  -3   7    0.50    1.30
   1  -3  -7    2.00    2.00
  -1   3   7    3.90    1.10
  -1   3   7    1.70    1.30
   1   3  -7   -0.70    1.80
   1   3  -7    1.40    2.90
   1   3  -7    2.00    1.20
   0  -3   7   91.09    6.10
   0  -3  -7   87.09    5.60
   0  -3  -7   81.79    6.30
   0  -3  -7   83.69    5.40
   0  -3   7   72.39    5.90
   0  -3   7   93.79    4.40
   0  -3  -7   89.89    5.10
   0  -3   7   90.39    5.80
   0  -3   7   93.99    5.20
   0  -3   7   87.19    4.30
   0  -3  -7   82.49    5.20
   0   3   7   93.59    4.10
   0   3  -7   77.59    5.90
   0   3  -7   91.29    4.50
   0   3   7   86.19    4.30
   0   3  -7   92.09    5.00
   1  -3   7   39.00    5.10
   1  -3   7   51.99    4.60
  -1  -3  -7   56.49    4.20
  -1  -3  -7   61.59    5.10
   1  -3   7   48.40    3.30
  -1  -3  -7   51.49    4.40
   1  -3   7   42.70    3.70
  -1  -3  -7   54.69    4.40
   1  -3   7   55.99    4.20
   1  -3   7   48.20    4.70
  -1  -3  -7   45.00    4.30
  -1   3  -7   50.89    3.80
   1   3   7   56.19    3.30
   1   3   7   51.19    3.10
  -1   3  -7   47.80    4.00
   2  -3   7  392.86   14.20
  -2  -3  -7  384.96   14.20
  -2  -3  -7  368.86   14.20
  -2  -3  -7  358.76   14.40
  -2  -3  -7  392.26   14.50
   2  -3   7  377.36   14.50
   2  -3   7  381.66   14.30
   2  -3   7  377.46   14.20
   2   3   7  394.76   13.60
  -2   3  -7  394.36   14.50
  -2   3  -7  389.86   14.10
   2   3   7  374.96   15.40
   2   3   7  374.76   13.50
   2   3   7  396.86   13.80
  -2   3  -7  382.96   14.00
  -3  -3  -7  548.95   18.90
   3  -3   7  519.55   18.80
   3  -3   7  524.85   18.70
  -3  -3  -7  520.05   18.70
  -3  -3  -7  525.85   19.10
   3  -3   7  522.65   18.30
   3  -3   7  560.14   18.80
   3  -3   7  553.64   19.30
  -3   3  -7  504.45   19.30
   3   3   7  533.45   18.40
   3   3   7  507.25   18.20
  -3   3  -7  556.74   18.70
   3   3   7  539.15   18.20
   4  -3   7  224.38    8.70
  -4  -3  -7  242.48    9.10
   4  -3   7  211.98   10.60
  -4   3  -7  220.68    9.00
   4   3   7  216.98    8.30
   4   3   7  237.18   10.50
   4   3   7  233.38    8.90
  -4   3  -7  231.38   10.00
   4   3   7  224.78   10.10
   5  -3   7  243.68    9.30
   5  -3   7  256.27    9.50
  -5  -3  -7  258.87    9.70
   5   3   7  239.48    9.10
   5   3   7  246.18   10.00
  -5   3  -7  252.47    9.50
   5   3   7  274.17   11.10
   5   3   7  251.17    9.10
  -6  -3  -7  210.58    7.90
   6  -3   7  203.98    7.60
   6  -3   7  213.48    7.80
   6   3   7  210.28    7.50
  -6   3  -7  214.08    7.80
   6   3   7  211.98    8.10
  -8  -4   7    5.40    1.90
   8   4  -7    3.80    1.60
  -7  -4   7   22.20    3.00
  -7  -4   7   20.60    3.10
   7  -4  -7   20.40    3.90
   7  -4  -7   20.60    3.50
  -7  -4   7   26.30    3.30
   7   4  -7   23.30    2.90
   7   4  -7   25.00    2.50
  -6  -4   7  137.89    5.60
  -6  -4   7  128.39    5.80
  -6  -4   7  132.39    6.10
   6  -4  -7  125.19    6.90
   6  -4  -7  120.19    6.70
   6   4  -7  125.39    5.70
   6   4  -7  131.89    7.10
   6   4  -7  123.79    6.30
   6   4  -7  127.79    6.70
  -5  -4   7   49.50    3.60
   5  -4  -7   54.39    5.20
   5  -4  -7   53.59    7.10
  -5  -4   7   51.99    3.40
   5  -4  -7   50.39    4.10
  -5  -4   7   52.09    4.80
   5   4  -7   50.39    3.80
   5   4  -7   56.59    4.90
   5   4  -7   50.19    5.80
  -4  -4   7  127.99    5.70
  -4  -4   7  128.89    6.70
   4  -4  -7  131.39    7.30
  -4  -4   7  126.69    5.70
   4  -4  -7  119.39    5.90
   4  -4  -7  128.99    7.20
   4  -4  -7  135.49    7.30
   4   4  -7  116.89    6.00
   4   4  -7  124.89    8.00
   4   4  -7  120.99    6.10
   4   4  -7  135.99    7.40
  -3  -4   7  351.76   15.00
   3  -4  -7  354.96   13.30
  -3  -4   7  354.66   13.00
   3  -4  -7  361.26   13.90
  -3  -4   7  372.26   13.80
   3  -4  -7  367.06   14.60
   3  -4  -7  348.17   14.30
  -3  -4   7  379.56   13.10
  -3   4   7  361.76   12.40
   3   4  -7  372.36   13.40
   3   4  -7  362.76   13.40
   3   4  -7  342.67   14.50
   2  -4  -7   51.19    4.80
   2  -4  -7   46.60    4.70
   2  -4  -7   48.80    4.00
  -2  -4   7   53.59    3.40
   2  -4  -7   53.59    4.40
  -2  -4   7   45.30    5.60
  -2  -4   7   52.39    4.70
  -2  -4   7   54.09    3.30
   2   4  -7   51.19    4.00
   2   4  -7   51.29    3.90
  -2   4   7   48.50    2.90
   2   4  -7   41.80    6.10
  -2   4   7   47.80    3.70
  -1  -4   7   49.70    4.70
  -1  -4   7   55.29    3.40
  -1  -4   7   50.59    3.60
   1  -4  -7   58.19    4.50
  -1  -4   7   49.50    5.80
   1  -4  -7   54.99    4.80
   1  -4  -7   53.39    4.40
   1  -4  -7   47.70    4.60
  -1   4   7   59.39    3.50
  -1   4   7   55.29    3.00
   1   4  -7   56.29    4.10
   1   4  -7   51.29    3.30
   0  -4   7   30.10    3.50
   0  -4  -7   28.00    4.60
   0  -4  -7   27.40    3.70
   0  -4  -7   27.80    3.60
   0  -4   7   34.00    2.90
   0  -4   7   37.10    4.30
   0  -4  -7   34.60    3.90
   0  -4   7   33.80    4.40
   0  -4   7   27.60    3.60
   0  -4  -7   32.70    4.00
   0   4  -7   30.10    3.50
   0   4   7   33.80    2.40
   0   4   7   35.40    2.80
   0   4  -7   32.30    3.10
   1  -4   7   91.39    5.00
   1  -4   7   98.29    5.90
  -1  -4  -7   99.69    5.80
  -1  -4  -7  104.29    6.00
  -1  -4  -7   97.39    5.50
   1  -4   7  103.39    5.50
  -1  -4  -7  106.09    5.80
   1  -4   7   98.19    5.70
   1  -4   7   98.89    5.60
  -1  -4  -7  102.39    5.50
  -1   4  -7  106.39    5.40
  -1   4  -7   99.69    5.50
   1   4   7   97.59    5.10
   1   4   7  104.29    4.60
   1   4   7  105.79    4.80
  -2  -4  -7  103.79    5.90
   2  -4   7  101.69    5.80
  -2  -4  -7   99.89    5.70
  -2  -4  -7  101.39    5.50
   2  -4   7  106.79    5.50
  -2  -4  -7  109.09    5.70
  -2   4  -7  104.39    6.00
   2   4   7   99.69    4.70
   2   4   7   98.59    5.10
  -2   4  -7   99.09    5.60
   2   4   7  104.29    4.70
  -3  -4  -7   10.80    2.40
  -3  -4  -7   14.50    2.80
   3  -4   7   13.40    2.00
  -3  -4  -7   11.50    2.30
   3  -4   7   12.50    2.30
   3   4   7    8.30    1.60
   3   4   7   15.30    2.50
  -3   4  -7    9.40    2.60
   3   4   7   13.50    4.10
  -3   4  -7    7.80    2.40
   3   4   7   19.50    2.90
   4  -4   7    2.60    1.50
  -4  -4  -7    2.50    1.60
   4  -4   7    0.30    1.50
  -4   4  -7    2.60    3.00
   4   4   7    0.80    1.10
   4   4   7    1.40    1.30
  -4   4  -7    0.40    1.50
   4   4   7    1.20    1.40
   4   4   7    3.00    1.60
   4   4   7    1.60    3.70
   5  -4   7   18.20    2.20
  -5  -4  -7   17.50    2.40
   5  -4   7   20.20    2.30
   5   4   7   11.70    1.90
  -5   4  -7   13.70    2.20
   5   4   7   13.40    2.20
   5   4   7   18.70    2.10
  -6  -4  -7   59.49    3.00
   6  -4   7   66.99    3.40
   6  -4   7   59.29    3.00
  -6  -4  -7   61.79    3.30
   6   4   7   57.89    2.90
  -6   4  -7   62.19    3.10
  -7  -5   7   31.60    3.30
  -7  -5   7   28.40    2.60
   7   5  -7   27.30    2.70
   7   5  -7   27.50    2.20
  -6  -5   7    9.20    2.30
  -6  -5   7    7.80    1.90
  -6  -5   7   12.40    1.70
   6   5  -7   10.20    2.20
   6   5  -7    8.10    1.40
   6   5  -7   10.20    2.50
   5  -5  -7  101.29    4.60
  -5  -5   7   94.09    4.60
  -5  -5   7   97.29    5.20
  -5  -5   7   99.19    5.80
   5  -5  -7   89.69    6.10
   5  -5  -7  101.09    5.40
   5  -5  -7   96.39    5.90
   5   5  -7  107.19    5.00
   5   5  -7   95.19    5.80
   5   5  -7   97.69    5.00
   4  -5  -7   25.70    2.90
   4  -5  -7   19.10    3.40
  -4  -5   7   16.20    4.60
  -4  -5   7   27.20    3.70
  -4  -5   7   24.90    3.10
  -4  -5   7   21.10    2.50
   4   5  -7   25.20    3.20
   4   5  -7   17.80    3.90
   4   5  -7   24.70    3.00
  -3  -5   7   67.39    4.70
  -3  -5   7   62.69    8.20
   3  -5  -7   67.79    4.80
   3  -5  -7   60.49    4.20
   3  -5  -7   58.59    4.90
   3  -5  -7   54.59    5.40
  -3  -5   7   55.39    3.60
  -3  -5   7   62.69    4.00
   3   5  -7   74.79    6.10
   3   5  -7   60.59    4.10
   3   5  -7   67.29    4.20
  -3   5   7   58.99    3.50
   2  -5  -7  111.09    6.60
  -2  -5   7  110.49    6.10
   2  -5  -7  113.79    5.70
   2  -5  -7  107.69    6.40
  -2  -5   7  110.89    7.40
   2  -5  -7  117.09    6.20
  -2  -5   7  111.59    7.10
  -2  -5   7  110.89    5.50
  -2  -5   7  111.19    5.10
  -2   5   7  111.19    4.70
  -2   5   7  110.19    5.30
   2   5  -7  109.79    5.70
   2   5  -7  116.69    5.70
   2   5  -7  104.29    4.70
  -1  -5   7   89.39    6.10
   1  -5  -7   84.49    5.20
  -1  -5   7   88.49    5.20
   1  -5  -7   87.99    5.60
  -1  -5   7   84.39    6.00
   1  -5  -7   90.49    5.60
  -1  -5   7   91.59    5.40
   1  -5  -7   90.49    5.20
   1   5  -7   91.89    5.00
  -1   5   7   83.29    4.70
   1   5  -7   95.59    4.80
  -1   5   7   94.89    4.20
   0  -5   7  156.18    7.20
   0  -5  -7  157.98    7.10
   0  -5   7  146.49    7.50
   0  -5   7  149.39    7.00
   0  -5  -7  156.88    7.50
   0  -5  -7  150.58    7.00
   0  -5  -7  146.99    7.10
   0  -5   7  155.28    7.20
   0  -5  -7  158.88    7.40
   0   5  -7  146.79    6.90
   0   5  -7  151.78    7.00
   0   5   7  151.18    6.10
   0   5   7  154.18    6.30
   1  -5   7   80.49    4.90
  -1  -5  -7   72.99    5.10
   1  -5   7   72.59    4.70
  -1  -5  -7   85.09    4.80
  -1  -5  -7   83.19    4.80
   1  -5   7   86.39    5.10
  -1  -5  -7   83.79    5.00
   1  -5   7   89.49    6.10
   1   5   7   84.59    4.10
   1   5   7   78.69    4.70
  -1   5  -7   86.79    4.90
  -1   5  -7   73.39    5.50
   1   5   7   76.39    3.90
   2  -5   7  116.59    6.40
   2  -5   7  127.39    5.90
  -2  -5  -7  115.59    5.70
   2  -5   7  115.09    6.00
  -2  -5  -7  128.89    6.10
  -2  -5  -7  118.69    6.20
   2  -5   7  122.29    5.90
   2   5   7  117.29    5.20
   2   5   7  128.09    5.50
  -2   5  -7  103.69    6.50
   2   5   7  112.19    5.10
  -3  -5  -7   92.59    5.00
   3  -5   7   86.19    4.80
   3  -5   7   91.99    4.70
  -3  -5  -7   85.89    4.60
   3  -5   7   78.79    5.90
   3  -5   7   95.29    4.60
   3   5   7   81.99    4.70
  -3   5  -7   87.19    6.40
   3   5   7   83.39    4.00
   3   5   7   91.79    4.30
   3   5   7   89.59    4.60
   3   5   7   87.69    4.30
  -4  -5  -7  123.59    5.10
  -4  -5  -7  122.49    5.70
   4  -5   7  128.19    5.40
   4  -5   7  126.09    5.50
   4   5   7  122.49    4.80
   4   5   7  121.89    5.00
  -4   5  -7  116.19    5.40
   4   5   7  121.39    5.40
  -5  -5  -7   23.60    2.40
   5  -5   7   30.70    2.30
   5  -5   7   29.00    2.40
  -5  -5  -7   30.60    2.20
   5   5   7   26.70    2.00
   5   5   7   26.90    3.00
   5   5   7   27.30    2.50
  -5   5  -7   36.60    4.10
  -6  -5  -7   68.99    2.90
  -6  -5  -7   65.59    3.00
   6  -5   7   67.09    3.50
  -7  -6   7   29.20    2.40
   7   6  -7   30.10    2.70
  -6  -6   7   85.89    5.00
  -6  -6   7  107.59    4.70
   6   6  -7   98.09    5.30
   6   6  -7  107.29    4.50
   6   6  -7  109.09    5.20
  -5  -6   7   46.10    3.40
   5  -6  -7   40.30    4.20
   5  -6  -7   50.29    3.20
   5  -6  -7   53.09    3.80
  -5  -6   7   44.60    3.90
   5   6  -7   47.90    3.30
   5   6  -7   49.40    3.20
   5   6  -7   52.29    4.20
   4  -6  -7    0.80    1.30
  -4  -6   7    2.60    1.70
  -4  -6   7   -0.10    4.40
   4  -6  -7    3.40    2.20
  -4  -6   7    2.40    1.80
   4  -6  -7    3.50    1.70
  -4  -6   7    2.90    4.10
   4   6  -7    1.30    2.80
   4   6  -7    2.30    1.40
   4   6  -7    0.60    1.30
  -3  -6   7   40.70    5.30
  -3  -6   7   35.70    3.30
  -3  -6   7   28.00    4.50
  -3  -6   7   40.30    6.30
   3  -6  -7   30.20    3.80
  -3   6   7   28.20    4.20
   3   6  -7   27.60    2.90
   2  -6  -7   24.10    3.20
   2  -6  -7   19.70    3.30
  -2  -6   7   20.70    3.30
  -2  -6   7   15.40    2.50
   2  -6  -7   20.90    2.90
  -2  -6   7   17.20    3.40
  -2  -6   7   22.50    5.10
   2   6  -7   23.90    3.00
  -2   6   7   20.50    2.40
   2   6  -7   16.90    3.00
  -2   6   7   20.80    2.30
   1  -6  -7   39.00    3.70
   1  -6  -7   37.60    3.50
  -1  -6   7   31.50    4.80
  -1  -6   7   36.50    3.60
  -1  -6   7   38.20    3.80
   1  -6  -7   41.30    3.70
  -1  -6   7   38.40    4.40
   1   6  -7   41.80    3.60
   1   6  -7   33.90    3.60
  -1   6   7   39.90    2.90
  -1   6   7   40.00    2.70
   0  -6  -7   44.40    5.00
   0  -6  -7   48.80    3.60
   0  -6  -7   44.20    3.70
   0  -6   7   43.60    4.00
   0  -6   7   43.70    3.70
   0  -6   7   39.90    4.70
   0  -6   7   46.50    4.10
   0  -6  -7   42.00    3.50
   0   6  -7   40.70    3.50
   0   6   7   44.00    2.90
   0   6   7   41.40    2.80
   0   6  -7   40.60    3.90
  -1  -6  -7   64.99    4.10
   1  -6   7   52.69    5.90
  -1  -6  -7   71.39    4.70
  -1  -6  -7   61.89    4.80
  -1  -6  -7   59.79    3.40
   1  -6   7   63.89    5.90
   1  -6   7   61.69    5.30
   1   6   7   61.39    3.40
   1   6   7   63.29    4.20
   1   6   7   62.99    3.40
  -1   6  -7   47.50    4.70
  -1   6  -7   59.89    4.00
  -2  -6  -7   14.50    2.00
  -2  -6  -7   14.60    2.30
  -2  -6  -7   15.20    2.30
   2  -6   7   13.20    3.40
   2  -6   7   16.10    2.90
   2  -6   7   16.10    2.20
  -2  -6  -7   15.80    2.20
  -2  -6  -7   14.70    2.20
   2   6   7   12.40    2.40
   2   6   7   15.30    2.30
   2   6   7   14.60    2.00
  -2   6  -7   16.40    2.60
   2   6   7   15.80    2.30
  -2   6  -7   12.00    3.10
  -3  -6  -7  104.09    4.30
   3  -6   7  101.89    4.80
  -3  -6  -7  103.39    5.00
   3  -6   7  100.69    4.90
   3  -6   7  105.39    4.60
   3   6   7   99.49    4.70
  -3   6  -7   94.09    5.00
   3   6   7   99.89    4.30
   3   6   7   86.29    4.60
   3   6   7   96.09    4.20
  -4  -6  -7    7.70    1.30
  -4  -6  -7    8.70    1.70
   4  -6   7    7.60    1.50
   4  -6   7    7.10    1.40
  -4   6  -7   12.60    2.40
   4   6   7    6.60    1.00
   4   6   7    7.10    1.70
  -5  -6  -7   22.50    1.80
   5  -6   7   23.90    2.40
   5  -6   7   27.40    2.00
  -5  -6  -7   20.70    1.70
   5   6   7   24.90    1.80
  -6  -7   7   93.99    4.00
   5  -7  -7  123.59    5.40
   5  -7  -7  132.09    5.70
  -5  -7   7  129.39    5.30
  -5  -7   7  128.59    5.60
   5   7  -7  126.99    6.10
   5   7  -7  124.09    5.20
   4  -7  -7   29.90    3.60
   4  -7  -7   28.90    2.30
  -4  -7   7   29.40    3.30
  -4  -7   7   32.50    2.80
   4  -7  -7   31.20    2.80
   4   7  -7   32.10    2.60
   4   7  -7   31.90    2.70
  -3  -7   7   21.90    2.90
   3  -7  -7   25.70    2.70
   3  -7  -7   22.90    3.10
   3  -7  -7   22.80    2.30
  -3  -7   7   26.00    2.80
  -3  -7   7   27.90    3.20
   3   7  -7   30.10    2.60
  -2  -7   7   50.29    3.50
  -2  -7   7   53.59    4.30
  -2  -7   7   46.70    3.70
   2  -7  -7   46.40    3.40
   2  -7  -7   47.90    3.10
   2  -7  -7   47.00    3.50
  -2  -7   7   53.69    6.20
  -2   7   7   44.80    2.90
   2   7  -7   47.20    3.30
  -2   7   7   47.10    3.30
   1  -7  -7   78.49    4.50
  -1  -7   7   82.89    4.50
  -1  -7   7   82.99    4.80
   1  -7  -7   79.59    4.30
  -1  -7   7   84.49    4.60
  -1  -7   7   87.19    6.50
  -1   7   7   83.39    4.70
  -1   7   7   79.19    3.80
  -1   7   7   75.39    4.70
  -1   7   7   80.79    3.80
   1   7  -7   82.89    4.30
   1   7  -7   75.29    5.10
   0  -7  -7   91.19    4.30
   0  -7  -7   89.09    4.30
   0  -7  -7   89.99    4.60
   0  -7  -7   83.89    4.60
   0  -7   7   89.59    4.60
   0  -7   7   81.09    6.40
   0  -7   7   85.59    4.70
   0  -7   7   84.39    4.60
   0   7   7   87.49    4.00
   0   7  -7   74.89    5.60
   0   7   7   79.49    4.30
   0   7  -7   90.19    4.50
   0   7   7   84.59    4.60
   0   7   7   84.89    4.00
  -1  -7  -7   86.49    4.50
  -1  -7  -7   92.59    4.50
  -1  -7  -7   85.69    4.20
  -1  -7  -7   83.09    4.10
   1  -7   7   83.29    4.50
   1  -7   7   80.29    4.20
   1  -7   7   87.39    4.50
   1   7   7   89.29    4.50
   1   7   7   83.79    4.10
   1   7   7   83.69    4.00
   1   7   7   84.99    3.90
  -1   7  -7   85.19    4.40
  -2  -7  -7   37.50    3.00
   2  -7   7   45.60    3.00
  -2  -7  -7   34.10    2.60
  -2  -7  -7   43.60    3.70
  -2  -7  -7   43.00    3.00
   2  -7   7   43.70    3.20
   2  -7   7   39.00    3.60
   2  -7   7   44.70    3.20
   2   7   7   40.00    2.50
   2   7   7   48.90    3.20
   2   7   7   43.60    2.60
   2   7   7   40.10    2.80
   3  -7   7    0.90    1.60
  -3  -7  -7    1.30    1.10
   3  -7   7    2.00    1.10
   3  -7   7   -1.50    1.40
   3   7   7    2.40    0.90
   3   7   7    1.40    1.10
   3   7   7    0.50    1.30
   3   7   7    2.20    0.80
   4  -7   7   12.90    1.90
   4  -7   7   11.70    1.80
  -4  -7  -7   12.10    1.80
   4   7   7    8.30    1.50
   4   7   7    9.30    2.60
  -5  -8   7   33.50    2.30
   4  -8  -7   60.49    3.80
   4  -8  -7   77.39    3.50
  -4  -8   7   65.69    3.40
   4   8  -7   67.89    3.80
  -3  -8   7   -0.70    2.20
  -3  -8   7   -1.40    1.30
   3  -8  -7    0.00    0.90
   3  -8  -7   -0.10    1.20
   3   8  -7   -0.10    1.10
   2  -8  -7   47.50    2.70
   2  -8  -7   44.00    2.90
  -2  -8   7   40.70    4.40
  -2  -8   7   44.10    3.50
  -2  -8   7   45.40    3.10
   2  -8  -7   43.60    3.10
  -2   8   7   38.70    2.90
   2   8  -7   44.20    2.90
  -1  -8   7    2.90    1.50
  -1  -8   7    1.20    1.40
   1  -8  -7    2.30    1.40
   1  -8  -7    2.00    1.20
   1  -8  -7    3.00    1.10
   1   8  -7    3.80    1.30
  -1   8   7    4.40    1.40
  -1   8   7    3.30    1.70
   0  -8   7   58.79    3.30
   0  -8  -7   58.59    3.00
   0  -8  -7   54.29    2.90
   0  -8   7   53.39    3.30
   0   8   7   64.69    3.90
   0   8   7   53.59    3.00
   0   8  -7   54.89    3.20
   0   8   7   57.19    4.50
   0   8   7   56.09    2.80
   0   8   7   50.89    3.00
  -1  -8  -7  103.59    4.50
   1  -8   7  107.29    5.40
  -1  -8  -7  100.49    5.30
   1  -8   7  108.29    4.60
   1  -8   7  115.09    4.80
   1   8   7  107.39    4.30
  -1   8  -7  109.59    5.00
   1   8   7  109.49    5.00
   1   8   7  104.09    4.30
   1   8   7  104.69    4.30
   2  -8   7  178.48    7.50
   2  -8   7  155.38    6.50
   2  -8   7  153.88    5.90
   2   8   7  149.29    6.30
   2   8   7  145.79    5.60
   2   8   7  153.98    5.60
   3  -8   7   36.40    2.30
   3   8   7   36.10    1.80
   3   8   7   33.50    2.00
   3  -9  -7   79.19    3.30
  -3  -9   7   71.69    3.30
   3  -9  -7   75.29    3.10
   3   9  -7   69.49    3.20
   2  -9  -7  149.99    5.40
  -2  -9   7  146.79    5.90
  -2  -9   7  146.39    5.70
   2  -9  -7  155.58    5.60
   2   9  -7  141.99    5.50
   1  -9  -7    8.60    1.20
  -1  -9   7    6.50    1.40
   1  -9  -7    7.90    1.10
  -1  -9   7    6.10    1.40
   0  -9  -7   20.60    1.90
   0  -9   7   20.90    2.10
   0  -9  -7   19.20    2.20
   0  -9   7   26.70    2.30
   0   9   7   27.50    2.00
   1  -9   7   62.59    3.20
   1  -9   7   52.39    2.80
   1   9   7   49.99    2.40
   8   0  -8    1.90    2.50
   8   0  -8    0.40    1.80
   7   0  -8   50.39    4.40
  -7   0   8   46.30    3.70
   7   0  -8   50.39    3.90
  -7   0   8   49.00    3.60
   7   0  -8   50.49    3.90
   6   0  -8  235.08   10.20
  -6   0   8  195.48    9.50
   6   0  -8  245.28   10.30
  -6   0   8  233.88    8.80
   6   0  -8  240.38    9.90
   6   0  -8  233.18    9.50
   5   0  -8   -0.90    2.30
   5   0  -8    1.60    2.30
   5   0  -8    0.50    2.80
   5   0  -8    0.80    2.30
  -5   0   8    0.60    1.50
  -5   0   8    0.90    1.40
   4   0  -8  146.79    7.30
   4   0  -8  167.78    7.80
  -4   0   8  153.08    6.50
   4   0  -8  156.58    8.40
  -4   0   8  159.08    6.20
   4   0  -8  136.99    8.00
   3   0  -8  304.87   11.70
   3   0  -8  307.97   12.20
   3   0  -8  318.97   12.90
  -3   0   8  299.47   10.80
   3   0  -8  288.67   11.70
   3   0  -8  289.47   12.80
  -3   0   8  298.07   11.00
   2   0  -8  109.59    6.60
   2   0  -8   94.69    5.50
  -2   0   8   97.69    4.50
   2   0  -8  100.39    6.60
   2   0  -8  101.09    5.90
  -2   0   8   97.19    4.70
  -1   0   8  330.17   11.40
   1   0  -8  309.87   12.10
   1   0  -8  294.97   12.90
   1   0  -8  330.37   12.90
   1   0  -8  315.57   12.50
  -1   0   8  314.77   11.40
   0   0   8    3.60    2.20
   0   0  -8    4.40    1.90
   0   0  -8    3.30    1.90
   0   0   8    5.20    1.50
   0   0  -8    5.50    2.50
   0   0   8    4.40    1.30
  -1   0  -8  105.59    5.60
   1   0   8  104.59    4.90
  -1   0  -8  104.19    6.30
  -1   0  -8  113.39    6.10
   1   0   8  101.69    7.10
   1   0   8  108.49    4.90
  -1   0  -8   90.79    6.70
   1   0   8  109.39    5.80
   2   0   8   14.40    1.90
  -2   0  -8   12.80    3.10
   2   0   8   12.90    2.30
   2   0   8   12.70    2.90
   2   0   8   17.00    2.80
  -3   0  -8  128.19    5.80
   3   0   8  122.79    5.50
  -3   0  -8  131.79    6.50
   3   0   8  131.09    5.70
   3   0   8  126.99    7.30
   3   0   8  131.29    6.40
   4   0   8   28.30    5.20
   4   0   8   36.50    4.10
   4   0   8   36.90    3.50
  -4   0  -8   40.50    3.40
   4   0   8   40.30    2.80
   5   0   8    0.60    1.70
   5   0   8    1.50    1.10
   5   0   8    3.20    2.00
  -5   0  -8    5.60    3.20
  -5   0  -8    1.30    1.50
  -6   0  -8   51.59    2.90
   6   0   8   60.09    3.20
   6   0   8   59.09    2.80
   8  -1  -8    2.70    1.60
   8  -1  -8    2.60    2.10
   8   1  -8   -1.10    1.50
   8   1  -8    0.10    1.80
   7  -1  -8    2.70    1.90
   7  -1  -8    4.90    2.40
  -7  -1   8    8.20    1.90
  -7  -1   8    5.10    1.70
   7  -1  -8    4.00    1.80
   7   1  -8    5.30    1.80
   7   1  -8    5.10    1.90
   6  -1  -8  177.88    8.40
   6  -1  -8  176.18    7.90
   6  -1  -8  176.28    8.40
   6  -1  -8  168.68    8.30
  -6  -1   8  180.88    7.10
  -6   1   8  171.38    7.00
   6   1  -8  182.38    7.90
   6   1  -8  186.48    8.20
  -6   1   8  175.18    7.50
   6   1  -8  183.48    8.60
   6   1  -8  173.18    8.40
  -5  -1   8  297.97   11.10
   5  -1  -8  284.67   12.70
   5  -1  -8  300.67   12.90
   5  -1  -8  308.77   12.10
  -5  -1   8  309.47   11.10
   5   1  -8  296.07   12.80
  -5   1   8  292.97   10.80
   5   1  -8  314.87   12.50
   5   1  -8  309.57   12.00
   5   1  -8  299.47   12.70
  -5   1   8  319.67   11.30
  -4  -1   8  196.38    7.70
   4  -1  -8  199.38    9.00
  -4  -1   8  202.78    7.90
   4  -1  -8  200.48    9.70
   4  -1  -8  198.48    9.60
   4   1  -8  193.68    9.60
   4   1  -8  186.28    9.60
   4   1  -8  194.08    8.90
  -4   1   8  191.68    7.50
   4   1  -8  210.18    8.60
  -4   1   8  205.88    7.90
   3  -1  -8  229.68    9.90
   3  -1  -8  217.18    9.40
   3  -1  -8  244.28   10.60
   3  -1  -8  221.88    9.30
  -3  -1   8  215.88    8.60
   3  -1  -8  246.88   10.70
  -3  -1   8  219.38    8.50
   3   1  -8  230.18   10.50
  -3   1   8  217.18    8.60
   3   1  -8  220.48    9.40
   3   1  -8  233.08    9.90
   3   1  -8  227.58   10.40
  -3   1   8  224.88    8.40
   2  -1  -8  461.75   17.50
   2  -1  -8  461.35   16.80
   2  -1  -8  442.16   16.40
   2  -1  -8  428.36   17.20
  -2  -1   8  462.15   15.70
  -2  -1   8  445.06   15.70
   2  -1  -8  473.95   16.60
   2   1  -8  430.26   17.20
  -2   1   8  446.96   15.60
   2   1  -8  466.95   16.80
   2   1  -8  426.96   17.30
  -2   1   8  456.65   15.50
   2   1  -8  464.25   16.50
   1  -1  -8  709.93   24.20
   1  -1  -8  689.13   24.40
  -1  -1   8  692.33   23.40
   1  -1  -8  673.63   24.90
  -1  -1   8  697.43   23.50
   1  -1  -8  689.33   24.80
   1   1  -8  668.73   24.80
  -1   1   8  719.03   23.50
   1   1  -8  679.43   24.60
   1   1  -8  724.73   24.40
  -1   1   8  672.23   23.80
  -1   1   8  709.03   23.30
   1   1  -8  707.63   24.10
   0  -1  -8  536.45   18.80
   0  -1   8  530.65   18.10
   0  -1  -8  517.85   19.10
   0  -1   8  537.05   18.50
   0  -1  -8  511.35   18.70
   0  -1  -8  514.15   19.30
   0  -1   8  515.35   19.50
   0   1   8  520.35   18.50
   0   1  -8  543.55   19.10
   0   1  -8  516.45   18.80
   0   1  -8  534.35   18.70
   0   1   8  501.75   17.90
   0   1   8  526.45   18.00
   0   1  -8  513.55   19.40
   1  -1   8   64.99    3.80
  -1  -1  -8   64.79    5.20
   1  -1   8   66.79    4.70
  -1  -1  -8   75.59    5.00
   1  -1   8   69.59    6.20
  -1  -1  -8   65.49    5.20
   1  -1   8   64.59    3.80
   1   1   8   66.09    5.30
  -1   1  -8   65.89    4.50
  -1   1  -8   70.59    4.80
   1   1   8   62.19    3.70
   1   1   8   71.89    3.90
   1   1   8   67.59    7.30
  -1   1  -8   62.59    5.30
   2  -1   8  129.69    5.50
   2  -1   8  131.39    7.30
  -2  -1  -8  134.59    6.80
   2  -1   8  125.79    6.20
   2  -1   8  118.99    5.80
  -2  -1  -8  108.09    8.00
   2  -1   8  111.19    7.20
   2   1   8  121.99    7.90
   2   1   8  125.99    5.50
   2   1   8  123.69    6.60
  -2   1  -8  128.09    6.30
   2   1   8  127.09    5.60
  -2   1  -8  128.69    5.70
   3  -1   8   37.70    3.20
   3  -1   8   40.70    3.80
   3  -1   8   42.10    5.10
  -3  -1  -8   41.10    4.00
   3   1   8   42.70    5.50
   3   1   8   34.00    5.00
   3   1   8   45.10    4.20
   3   1   8   48.50    4.90
   3   1   8   39.30    3.00
  -3   1  -8   43.00    4.10
   4  -1   8   83.29    4.90
   4  -1   8   90.19    4.60
   4  -1   8   73.39    6.00
   4  -1   8   90.29    4.20
  -4  -1  -8   85.29    4.70
   4   1   8   82.19    3.90
   4   1   8   96.59    5.80
   4   1   8   90.89    6.60
  -4   1  -8   85.99    4.80
   4   1   8   95.79    4.30
  -4   1  -8   82.19    5.90
   5  -1   8   35.90    3.30
   5  -1   8   40.40    3.20
   5  -1   8   37.40    2.60
  -5  -1  -8   36.30    3.00
  -5   1  -8   37.00    3.10
   5   1   8   38.20    3.80
   5   1   8   37.80    2.40
  -6  -1  -8  221.28    7.90
   6  -1   8  226.38    8.90
   6  -1   8  216.88    7.80
   6   1   8  211.98    8.00
   6   1   8  221.78    7.60
  -6   1  -8  216.98    7.90
   8  -2  -8    1.80    1.60
   8   2  -8    0.40    1.90
   7  -2  -8   13.70    2.40
  -7  -2   8   10.90    1.80
  -7  -2   8   10.60    1.70
   7  -2  -8   10.10    2.10
   7  -2  -8   11.50    3.20
   7   2  -8   11.70    2.60
   7   2  -8    7.40    2.00
   6  -2  -8   15.90    3.30
  -6  -2   8   10.90    3.40
  -6  -2   8   13.30    1.90
   6  -2  -8   16.20    2.70
   6  -2  -8   16.50    3.50
   6   2  -8   15.40    3.30
   6   2  -8   14.10    2.60
   6   2  -8   15.40    2.70
   5  -2  -8  114.19    7.20
   5  -2  -8  108.79    6.70
   5  -2  -8  109.99    6.70
  -5  -2   8  110.99    5.10
  -5  -2   8  108.09    5.10
  -5  -2   8  102.19    8.70
   5   2  -8  110.99    6.60
   5   2  -8  114.19    7.40
   5   2  -8   99.99    6.30
   5   2  -8  107.69    6.10
  -5   2   8  114.59    5.00
   4  -2  -8   81.49    6.00
  -4  -2   8   82.49    4.20
   4  -2  -8   82.09    6.00
   4  -2  -8   79.49    5.50
  -4  -2   8   84.19    4.30
   4  -2  -8   83.39    4.90
   4   2  -8   80.19    6.00
  -4   2   8   83.29    4.70
  -4   2   8   82.29    3.90
   4   2  -8   74.69    5.00
   4   2  -8   86.79    6.20
   4   2  -8   81.69    5.50
  -3  -2   8  292.97   10.90
  -3  -2   8  330.27   12.00
   3  -2  -8  284.27   12.60
   3  -2  -8  299.47   11.40
   3  -2  -8  287.27   12.50
   3  -2  -8  293.67   12.00
  -3   2   8  303.27   11.30
   3   2  -8  274.27   12.40
   3   2  -8  275.37   12.30
   3   2  -8  310.37   11.60
  -3   2   8  303.67   10.50
  -2  -2   8  209.28    8.00
   2  -2  -8  190.48    8.50
   2  -2  -8  198.78    9.50
   2  -2  -8  208.58    9.50
   2  -2  -8  203.18    9.00
  -2  -2   8  201.28    7.80
   2   2  -8  182.48    9.20
   2   2  -8  209.88    9.70
  -2   2   8  207.28    7.80
   2   2  -8  200.48    8.60
  -2   2   8  199.98    7.60
  -1  -2   8  109.89    5.00
  -1  -2   8   94.99    7.80
   1  -2  -8  104.19    6.00
   1  -2  -8   95.49    5.60
  -1  -2   8  100.09    4.90
   1  -2  -8  111.59    6.70
   1  -2  -8  113.09    6.40
   1   2  -8  107.29    6.40
  -1   2   8  106.89    4.70
   1   2  -8  110.49    5.70
  -1   2   8  111.99    5.00
   1   2  -8  116.89    7.40
   0  -2   8  124.79    5.70
   0  -2   8  126.49    5.70
   0  -2  -8  135.29    6.70
   0  -2   8  134.49    6.50
   0  -2  -8  137.39    7.10
   0  -2  -8  140.09    7.10
   0  -2   8  126.89    7.70
   0   2  -8  130.29    6.40
   0   2   8  141.39    5.70
   0   2   8  134.19    5.70
   0   2  -8  130.49    6.80
   0   2  -8  126.99    6.80
   1  -2   8   10.00    2.90
  -1  -2  -8    7.50    2.60
  -1  -2  -8    9.80    2.30
   1  -2   8   11.60    3.30
   1  -2   8    8.80    2.30
  -1  -2  -8    3.30    3.30
  -1  -2  -8   14.70    2.80
   1  -2   8   13.40    2.10
   1   2   8   12.30    2.00
  -1   2  -8   10.00    2.80
  -1   2  -8   11.00    2.30
  -1   2  -8   10.40    1.80
   2  -2   8  414.46   15.40
   2  -2   8  412.96   15.20
   2  -2   8  405.66   14.60
  -2  -2  -8  416.56   15.40
  -2  -2  -8  405.66   15.40
   2   2   8  416.16   14.70
   2   2   8  453.65   17.50
  -2   2  -8  426.86   15.10
   2   2   8  413.76   14.70
   3  -2   8   37.60    4.10
   3  -2   8   32.30    4.70
  -3  -2  -8   35.00    5.60
   3  -2   8   41.00    3.90
   3   2   8   46.70    6.40
  -3   2  -8   35.90    4.20
   3   2   8   35.90    3.10
  -3   2  -8   37.80    3.80
   3   2   8   37.30    2.80
   3   2   8   34.40    3.70
   4  -2   8   67.89    3.70
   4  -2   8   65.99    4.10
   4  -2   8   63.89    7.70
  -4  -2  -8   68.49    4.10
  -4  -2  -8   74.29    4.10
   4  -2   8   68.79    3.90
   4   2   8   68.49    6.40
   4   2   8   71.59    3.60
  -4   2  -8   63.39    4.20
   4   2   8   71.29    3.30
   4   2   8   64.19    4.30
   5  -2   8   79.99    4.00
  -5  -2  -8   86.39    4.10
   5  -2   8   82.19    4.10
   5  -2   8   73.69    4.00
  -5   2  -8   79.89    4.20
   5   2   8   82.99    3.60
   5   2   8   83.89    5.30
   6  -2   8   50.89    3.10
   6  -2   8   47.90    2.80
  -6  -2  -8   50.79    2.60
  -6  -2  -8   48.80    2.70
   6   2   8   45.60    2.40
  -6   2  -8   45.10    3.00
   8   3  -8    5.60    1.20
  -7  -3   8   44.10    5.00
   7  -3  -8   47.80    4.20
  -7  -3   8   49.00    2.90
   7  -3  -8   47.40    3.60
   7   3  -8   41.50    4.20
   7   3  -8   50.19    3.50
   6  -3  -8    1.00    1.90
  -6  -3   8   -0.10    2.40
   6  -3  -8    1.90    1.90
  -6  -3   8    2.60    1.40
  -6  -3   8    2.80    1.70
   6  -3  -8    6.10    2.40
   6   3  -8    3.70    2.20
   6   3  -8    1.40    1.70
   6   3  -8    0.80    2.20
   5  -3  -8    3.90    2.20
  -5  -3   8    2.90    2.50
   5  -3  -8    1.10    1.90
  -5  -3   8    3.00    1.40
  -5  -3   8    2.90    1.40
   5  -3  -8    0.70    1.90
   5   3  -8    5.60    2.50
   5   3  -8    5.20    2.30
   5   3  -8    1.10    1.90
   5   3  -8    7.20    2.40
   4  -3  -8  169.08    8.90
  -4  -3   8  181.98    7.40
  -4  -3   8  184.48    9.00
   4  -3  -8  189.58    7.60
   4  -3  -8  188.38    8.90
   4  -3  -8  189.48    8.50
  -4  -3   8  185.48    7.50
  -4   3   8  190.08    7.10
   4   3  -8  194.38    9.10
   4   3  -8  186.18    7.90
   4   3  -8  181.38    8.90
  -3  -3   8  269.37   10.30
  -3  -3   8  274.67   10.30
  -3  -3   8  254.57   11.10
   3  -3  -8  287.67   12.10
   3  -3  -8  295.47   11.50
   3  -3  -8  262.27   10.70
   3  -3  -8  285.57   11.80
  -3   3   8  273.37    9.80
   3   3  -8  270.47   10.80
   3   3  -8  265.37   11.70
   3   3  -8  293.17   12.10
  -3   3   8  289.77   10.30
   2  -3  -8  184.88    9.00
   2  -3  -8  186.08    8.10
   2  -3  -8  184.48    8.40
  -2  -3   8  193.88   10.60
  -2  -3   8  183.28    7.40
   2  -3  -8  181.38    8.70
   2   3  -8  169.68    8.70
   2   3  -8  196.28    8.10
  -2   3   8  185.78    7.00
   2   3  -8  180.88    9.30
   1  -3  -8   18.70    3.70
   1  -3  -8   10.90    2.50
  -1  -3   8   17.50    4.00
  -1  -3   8   15.90    2.60
   1  -3  -8   19.30    3.60
  -1  -3   8   18.40    2.50
   1  -3  -8   22.00    3.80
   1   3  -8   12.80    3.00
   1   3  -8   13.50    2.40
  -1   3   8   15.40    2.00
  -1   3   8   17.70    2.80
   0  -3  -8  102.59    5.70
   0  -3   8  104.09    5.60
   0  -3   8   98.79    5.00
   0  -3  -8  108.59    5.80
   0  -3   8  101.39    7.10
   0  -3  -8  110.19    6.00
   0  -3   8  109.19    6.60
   0  -3   8   83.29    7.00
   0  -3  -8   95.59    5.90
   0   3   8  105.89    4.70
   0   3  -8  104.39    6.00
   0   3  -8  103.09    5.60
   0   3   8   98.09    6.10
   0   3  -8   98.89    4.50
   1  -3   8  436.56   15.60
  -1  -3  -8  481.35   16.70
   1  -3   8  450.55   17.00
  -1  -3  -8  447.36   16.60
   1  -3   8  443.86   16.40
  -1  -3  -8  440.56   16.20
   1  -3   8  442.36   16.20
  -1  -3  -8  446.06   16.30
   1   3   8  451.15   15.70
   1   3   8  443.86   15.70
  -1   3  -8  450.65   16.40
  -1   3  -8  451.65   15.80
  -1   3  -8  460.65   16.20
   2  -3   8   25.80    3.30
  -2  -3  -8   30.50    3.50
  -2  -3  -8   30.00    4.10
  -2  -3  -8   29.70    3.40
   2  -3   8   31.40    4.10
   2   3   8   30.20    3.00
   2   3   8   29.90    2.50
  -2   3  -8   34.30    3.90
  -2   3  -8   34.90    3.90
   2   3   8   26.70    2.70
   3  -3   8   41.50    4.90
  -3  -3  -8   47.20    3.90
  -3  -3  -8   47.90    3.70
   3  -3   8   49.70    3.70
   3  -3   8   52.29    3.60
   3  -3   8   51.59    3.90
   3   3   8   52.89    3.20
   3   3   8   38.50    7.60
   3   3   8   52.39    3.20
  -3   3  -8   47.30    4.70
   3   3   8   47.90    3.00
  -4  -3  -8   39.20    3.50
  -4  -3  -8   31.50    3.10
   4  -3   8   33.70    3.30
   4  -3   8   32.20    2.90
   4  -3   8   35.20    3.00
   4   3   8   30.20    3.10
  -4   3  -8   26.40    3.20
   4   3   8   34.40    2.30
   4   3   8   30.60    2.40
  -5  -3  -8  272.97    9.80
   5  -3   8  267.47    9.70
   5  -3   8  277.47    9.80
  -5   3  -8  274.57   10.10
   5   3   8  278.27    9.50
  -6  -3  -8  286.77    9.60
   6  -3   8  262.87    9.50
   6   3   8  280.17    9.90
  -7  -4   8   19.70    4.70
  -7  -4   8   16.90    2.30
   7  -4  -8   11.40    2.60
   7   4  -8   12.40    2.60
   6  -4  -8    1.70    2.10
   6  -4  -8    6.00    3.20
  -6  -4   8    3.00    1.40
   6  -4  -8    1.40    2.10
  -6  -4   8    1.90    2.10
  -6  -4   8    4.50    2.00
   6   4  -8    2.50    1.70
   6   4  -8    2.90    2.20
   5  -4  -8    1.00    1.90
  -5  -4   8    1.10    1.30
   5  -4  -8    0.70    1.80
  -5  -4   8    3.50    2.10
   5  -4  -8   -0.50    1.90
  -5  -4   8    3.60    1.70
   5  -4  -8    0.80    2.10
   5   4  -8    1.50    1.80
   5   4  -8    1.90    1.80
   5   4  -8    3.20    2.10
   5   4  -8   -0.40    1.30
   4  -4  -8   30.70    4.00
   4  -4  -8   34.80    5.60
  -4  -4   8   29.90    2.70
  -4  -4   8   33.30    3.80
   4  -4  -8   30.40    3.10
  -4  -4   8   26.30    3.00
   4   4  -8   29.50    3.60
   4   4  -8   36.30    4.30
   3  -4  -8  160.88    8.10
  -3  -4   8  145.19   11.30
  -3  -4   8  158.08    6.80
  -3  -4   8  159.38    6.60
   3  -4  -8  166.48    7.90
   3  -4  -8  166.28    7.00
   3  -4  -8  159.48    7.60
  -3  -4   8  161.88    7.60
   3   4  -8  164.28    7.20
  -3   4   8  166.68    6.40
   3   4  -8  161.28    8.40
   2  -4  -8   45.50    4.10
  -2  -4   8   39.80    7.00
  -2  -4   8   48.60    3.20
  -2  -4   8   46.70    3.40
  -2  -4   8   46.50    4.60
   2  -4  -8   50.49    4.00
   2  -4  -8   46.30    4.50
   2  -4  -8   50.29    4.50
   2   4  -8   45.20    3.80
  -2   4   8   48.00    3.50
  -2   4   8   49.80    3.00
   1  -4  -8   41.80    3.90
  -1  -4   8   44.70    4.70
  -1  -4   8   41.10    3.90
   1  -4  -8   46.30    4.20
   1  -4  -8   47.70    4.10
   1  -4  -8   46.40    4.40
  -1  -4   8   40.60    3.60
  -1  -4   8   44.30    3.20
   1   4  -8   45.30    3.80
  -1   4   8   43.20    2.80
  -1   4   8   44.30    3.10
   0  -4  -8   10.30    2.50
   0  -4   8    8.60    2.80
   0  -4  -8   13.10    2.40
   0  -4  -8   11.10    2.40
   0  -4  -8    8.30    2.10
   0  -4   8    7.50    1.80
   0  -4   8   10.50    2.60
   0  -4   8    5.90    1.80
   0  -4   8    4.00    2.70
   0   4  -8    7.50    2.10
   0   4  -8   11.90    2.30
   0   4   8    9.90    1.60
   0   4   8    9.40    1.50
   1  -4   8   10.20    2.30
  -1  -4  -8   14.00    3.00
  -1  -4  -8   11.70    2.20
   1  -4   8   18.60    2.90
  -1  -4  -8   14.20    2.90
  -1  -4  -8   10.80    2.20
   1   4   8   13.60    2.10
   1   4   8   14.30    2.20
  -1   4  -8   10.40    2.10
  -1   4  -8   13.30    2.30
   1   4   8   16.40    2.10
  -2  -4  -8    2.50    1.80
   2  -4   8    2.90    1.80
  -2  -4  -8    5.70    1.80
   2  -4   8    1.60    2.10
  -2  -4  -8    2.40    2.20
   2   4   8    5.40    1.50
  -2   4  -8    6.80    2.10
   2   4   8    2.10    1.40
   2   4   8    3.60    1.40
  -2   4  -8    0.90    2.20
  -3  -4  -8   51.69    3.80
  -3  -4  -8   51.29    3.50
   3  -4   8   50.89    3.60
   3  -4   8   48.20    3.50
  -3   4  -8   52.39    7.20
   3   4   8   56.19    3.10
   3   4   8   52.39    3.00
   3   4   8   52.69    3.80
   3   4   8   49.20    3.50
   3   4   8   57.09    3.30
  -4  -4  -8   -1.60    1.30
   4  -4   8    0.30    1.30
   4  -4   8   -1.30    1.20
   4   4   8    0.40    1.00
  -4   4  -8   -0.40    2.80
   4   4   8    1.10    1.60
   4   4   8    0.40    1.00
   5  -4   8  140.39    7.10
  -5  -4  -8  160.08    6.10
   5  -4   8  170.78    6.20
   5   4   8  165.98    5.80
   7   5  -8   23.80    2.50
  -6  -5   8   14.30    2.40
   6  -5  -8   16.00    3.50
  -6  -5   8   17.20    2.30
   6   5  -8   22.10    2.90
   6   5  -8   16.90    2.50
  -5  -5   8   24.90    3.10
   5  -5  -8   22.10    3.10
  -5  -5   8   24.60    2.50
  -5  -5   8   24.90    3.80
   5  -5  -8   21.90    3.10
   5  -5  -8   25.10    3.20
   5   5  -8   19.90    2.90
   5   5  -8   26.20    3.40
   4  -5  -8  103.99    4.80
   4  -5  -8  112.19    5.20
  -4  -5   8  104.99    5.40
   4  -5  -8  108.89    5.70
   4  -5  -8   94.19    5.80
  -4  -5   8   94.29    5.40
  -4  -5   8  106.99    4.80
   4   5  -8   97.59    6.10
   4   5  -8  107.49    5.10
   3  -5  -8   43.20    3.20
  -3  -5   8   28.90    5.40
   3  -5  -8   44.90    4.40
  -3  -5   8   45.50    3.80
   3  -5  -8   40.20    3.70
  -3  -5   8   37.60    3.00
  -3  -5   8   36.30    5.70
   3  -5  -8   41.50    4.00
  -3   5   8   44.50    3.20
   3   5  -8   37.80    3.20
   3   5  -8   44.50    6.30
  -2  -5   8   14.70    2.10
   2  -5  -8   17.60    3.00
   2  -5  -8   18.60    3.20
   2  -5  -8   15.80    3.20
   2  -5  -8   17.50    3.10
  -2  -5   8   12.60    2.80
  -2  -5   8   19.80    3.50
  -2  -5   8    8.80    3.70
   2   5  -8   17.30    2.80
  -2   5   8   15.90    2.30
  -2   5   8   17.20    2.90
  -1  -5   8    9.10    2.90
  -1  -5   8    7.40    2.00
   1  -5  -8   10.40    2.20
  -1  -5   8    9.00    3.40
   1  -5  -8   11.30    2.20
  -1  -5   8   10.80    2.20
  -1  -5   8    7.70    2.50
   1  -5  -8    6.10    2.00
  -1   5   8    7.60    1.50
  -1   5   8    4.20    1.50
   1   5  -8   14.00    2.20
   0  -5   8  106.59    5.70
   0  -5   8  103.99    6.80
   0  -5   8  118.29    5.90
   0  -5  -8  100.39    5.70
   0  -5   8  105.99    5.50
   0  -5  -8  101.79    5.80
   0   5   8  101.19    4.60
   0   5  -8  101.69    5.30
   0   5   8  102.99    4.70
   1  -5   8  239.58   10.50
  -1  -5  -8  244.38    9.30
  -1  -5  -8  243.48    8.70
  -1  -5  -8  242.08    9.80
   1  -5   8  248.48    9.60
   1  -5   8  250.27    9.60
  -1  -5  -8  249.08    9.40
   1  -5   8  245.88    9.60
  -1  -5  -8  247.58    9.70
   1   5   8  240.88    9.10
  -1   5  -8  225.98    9.60
   1   5   8  251.17    9.20
   1   5   8  256.07    9.10
  -1   5  -8  247.38    9.50
   2  -5   8  359.26   15.60
  -2  -5  -8  360.66   13.10
  -2  -5  -8  375.76   13.20
  -2  -5  -8  359.56   12.40
   2  -5   8  361.76   12.90
  -2  -5  -8  349.17   12.70
   2  -5   8  346.87   12.90
   2  -5   8  337.97   12.90
   2   5   8  373.06   13.10
   2   5   8  368.76   12.60
  -2   5  -8  353.86   14.10
   2   5   8  352.56   12.60
   2   5   8  363.46   12.50
  -2   5  -8  366.36   12.90
   2   5   8  356.66   12.50
   3  -5   8   75.39    3.90
   3  -5   8   76.19    4.00
  -3  -5  -8   75.99    4.20
  -3  -5  -8   75.29    3.90
  -3  -5  -8   74.59    3.50
   3   5   8   68.19    3.50
   3   5   8   72.49    4.50
   3   5   8   70.59    3.70
   3   5   8   78.19    3.50
   3   5   8   78.29    4.10
   4  -5   8   22.90    2.40
   4  -5   8   28.10    2.30
  -4  -5  -8   26.40    1.90
  -4  -5  -8   25.00    2.30
   4   5   8   25.00    2.70
   4   5   8   20.40    2.30
   4   5   8   27.90    2.00
   4   5   8   28.70    2.80
  -5  -5  -8    5.60    1.40
   5  -5   8    4.80    1.30
   5  -5   8    4.30    1.20
  -6  -6   8   46.20    2.90
  -6  -6   8   40.00    3.10
   5  -6  -8   83.19    3.80
  -5  -6   8   83.99    4.20
   5  -6  -8   72.69    4.40
   5  -6  -8   81.29    5.80
   5   6  -8   81.49    4.40
   5   6  -8   81.19    5.10
   5   6  -8   90.29    4.20
   4  -6  -8   16.00    2.40
   4  -6  -8   17.40    2.10
   4  -6  -8   14.00    2.80
  -4  -6   8   11.60    2.50
  -4  -6   8   11.10    2.00
   4   6  -8   14.60    2.30
   3  -6  -8   29.40    3.10
   3  -6  -8   33.80    2.60
  -3  -6   8   29.80    3.00
   3  -6  -8   37.10    3.00
  -3  -6   8   40.40    4.10
  -3  -6   8   34.70    3.20
   3   6  -8   35.50    2.80
   2  -6  -8   32.40    3.00
  -2  -6   8   37.40    5.30
  -2  -6   8   27.20    3.20
   2  -6  -8   28.80    3.00
   2  -6  -8   30.00    2.60
  -2  -6   8   25.10    2.80
  -2   6   8   29.70    3.10
  -2   6   8   24.70    2.60
   2   6  -8   25.80    2.70
   1  -6  -8    7.40    1.80
  -1  -6   8    8.00    2.00
   1  -6  -8    3.80    1.40
   1  -6  -8    4.80    1.50
  -1  -6   8    6.50    1.70
  -1  -6   8   -0.40    2.20
  -1  -6   8    1.00    3.60
  -1   6   8    8.30    2.10
   1   6  -8    7.30    1.70
  -1   6   8    3.70    1.40
  -1   6   8    6.40    1.40
   0  -6   8   60.69    6.50
   0  -6   8   54.99    3.60
   0  -6  -8   61.89    4.00
   0  -6   8   56.69    4.10
   0  -6  -8   59.49    3.50
   0  -6  -8   61.19    3.60
   0  -6   8   63.29    4.00
   0   6   8   63.79    3.30
   0   6   8   62.19    3.40
   0   6  -8   62.69    3.70
   0   6   8   58.59    3.60
   1  -6   8   12.90    1.90
  -1  -6  -8   14.40    2.20
   1  -6   8   15.50    2.30
  -1  -6  -8   14.30    1.90
  -1  -6  -8   18.60    2.40
   1  -6   8   14.50    2.40
  -1  -6  -8   17.30    2.50
   1   6   8   13.40    2.20
   1   6   8   13.50    2.20
  -1   6  -8   15.90    2.80
   1   6   8   12.40    1.90
   1   6   8   12.70    2.00
  -2  -6  -8   52.39    3.40
   2  -6   8   42.10    3.60
  -2  -6  -8   51.79    2.90
   2  -6   8   48.20    3.10
   2  -6   8   53.49    3.30
   2   6   8   42.90    2.60
   2   6   8   53.19    2.80
   2   6   8   43.50    3.20
   2   6   8   47.60    3.30
  -3  -6  -8    0.20    1.10
  -3  -6  -8    1.40    1.40
   3  -6   8    3.60    1.30
   3  -6   8    2.20    1.40
   3   6   8    2.00    0.90
   3   6   8    3.30    0.90
   3   6   8    3.20    1.30
   3   6   8    2.70    1.50
  -4  -6  -8   29.00    2.10
   4  -6   8   26.50    2.10
   4  -6   8   27.00    2.50
   4   6   8   28.50    1.90
  -5  -7   8  136.89    5.40
   5   7  -8  141.69    5.60
   4  -7  -8   55.69    3.60
   4  -7  -8   57.79    3.80
  -4  -7   8   46.20    4.10
  -4  -7   8   48.20    3.30
   4  -7  -8   46.40    3.70
   4   7  -8   61.09    3.30
  -3  -7   8   56.09    3.50
   3  -7  -8   65.09    3.10
   3  -7  -8   59.29    3.30
   3  -7  -8   53.49    3.40
  -3  -7   8   54.79    3.30
   3   7  -8   64.09    3.30
   2  -7  -8   37.80    2.60
   2  -7  -8   39.70    2.80
  -2  -7   8   34.80    5.90
   2  -7  -8   38.30    2.90
  -2  -7   8   40.90    3.10
  -2  -7   8   39.00    3.00
  -2   7   8   34.20    3.00
   2   7  -8   36.80    2.70
  -1  -7   8   11.40    2.10
   1  -7  -8   18.90    2.10
  -1  -7   8   17.60    2.20
   1  -7  -8   19.10    2.20
  -1  -7   8   18.00    2.50
   1  -7  -8   18.90    2.20
  -1   7   8   20.80    3.00
  -1   7   8   11.60    2.50
  -1   7   8   14.40    2.30
   1   7  -8   16.90    2.20
  -1   7   8   13.40    2.00
   0  -7   8   25.00    2.60
   0  -7   8   22.40    2.80
   0  -7  -8   26.50    2.30
   0  -7  -8   23.90    2.30
   0  -7   8   24.60    2.90
   0  -7  -8   26.30    2.20
   0   7   8   24.30    3.00
   0   7   8   21.10    2.10
   0   7   8   26.30    2.40
   0   7  -8   24.70    2.50
   0   7   8   21.90    2.40
   1  -7   8   16.90    2.20
   1  -7   8   22.90    2.60
  -1  -7  -8   20.90    3.00
  -1  -7  -8   21.20    2.10
   1  -7   8   18.00    2.50
   1   7   8   21.30    2.00
   1   7   8   22.70    2.70
  -1   7  -8   21.30    3.50
   1   7   8   18.10    1.80
   2  -7   8   71.69    4.10
  -2  -7  -8   82.79    3.90
   2  -7   8   82.79    3.80
   2  -7   8   80.49    4.00
   2   7   8   84.99    3.40
   2   7   8   88.19    3.50
   2   7   8   82.99    4.00
   2   7   8   78.29    3.40
   3  -7   8   24.70    2.20
   3   7   8   28.80    1.80
   3   7   8   27.70    1.70
   3  -8  -8    4.10    1.00
   3  -8  -8    2.20    1.20
  -3  -8   8    1.80    1.50
   3   8  -8    1.70    0.90
  -2  -8   8   10.10    2.60
   2  -8  -8   11.10    1.90
   2  -8  -8    8.30    1.90
  -2  -8   8   12.20    1.80
   2   8  -8   10.80    1.70
  -1  -8   8    9.30    1.80
   1  -8  -8    8.90    1.70
   1  -8  -8   14.00    2.60
   1   8  -8    7.80    1.40
  -1   8   8    7.60    1.70
   0  -8   8   47.90    3.10
   0  -8  -8   48.60    2.60
   0  -8   8   46.30    3.00
   0  -8  -8   50.59    2.40
   0   8   8   49.80    2.70
   0   8   8   49.90    2.70
   0   8  -8   41.70    2.90
   1  -8   8   31.70    2.50
   1   8   8   28.50    1.90
   7   0  -9  292.17   10.50
   7   0  -9  260.07   10.30
   6   0  -9    8.50    2.10
   6   0  -9    9.20    2.10
   6   0  -9    6.10    1.90
  -6   0   9    7.20    1.80
  -6   0   9   11.50    2.00
  -5   0   9   52.39    3.20
   5   0  -9   49.90    3.90
  -5   0   9   46.90    3.30
   5   0  -9   48.00    4.30
   5   0  -9   51.39    4.30
  -4   0   9   37.00    2.80
   4   0  -9   35.80    4.90
   4   0  -9   32.70    4.80
   4   0  -9   39.00    4.60
  -4   0   9   40.50    2.90
  -3   0   9    0.20    1.20
   3   0  -9    4.50    2.30
   3   0  -9    3.10    2.20
  -3   0   9    1.60    1.20
   3   0  -9   -1.60    2.20
   3   0  -9    0.50    2.20
  -2   0   9  159.18    6.40
   2   0  -9  166.08    8.10
   2   0  -9  155.58    7.50
   2   0  -9  150.48    7.10
   2   0  -9  143.99    7.10
  -2   0   9  149.39    6.40
   2   0  -9  163.38    7.90
  -1   0   9   27.80    2.60
  -1   0   9   30.00    4.00
   1   0  -9   29.30    3.80
   1   0  -9   29.90    3.60
   1   0  -9   34.80    4.10
   1   0  -9   23.40    4.30
  -1   0   9   28.30    2.70
   0   0   9  574.74   19.90
   0   0  -9  547.25   20.70
   0   0   9  582.74   19.90
   0   0   9  578.24   20.10
   0   0  -9  585.24   20.50
   0   0  -9  579.64   20.50
   0   0  -9  613.94   20.90
   1   0   9   40.10    3.20
   1   0   9   45.40    6.30
   1   0   9   55.79    8.80
   1   0   9   39.50    3.00
   2   0   9    5.20    4.80
   2   0   9    1.00    4.10
   2   0   9    1.10    2.00
   2   0   9    0.50    1.40
   3   0   9   17.90    2.20
   3   0   9   19.90    3.50
   3   0   9   15.40    2.20
   4   0   9   33.70    4.80
  -4   0  -9   42.40    2.90
   4   0   9   37.60    2.50
  -4   0  -9   37.80    6.00
   5   0   9    4.60    1.10
  -7  -1   9  150.78    6.50
   7  -1  -9  174.28    7.50
   7  -1  -9  166.98    6.90
   7   1  -9  175.78    8.10
   7   1  -9  166.08    6.90
  -6  -1   9  418.86   15.30
   6  -1  -9  435.16   14.90
   6  -1  -9  431.56   15.60
  -6  -1   9  415.86   14.60
   6  -1  -9  410.76   15.60
  -6   1   9  406.16   14.70
   6   1  -9  424.36   15.50
   6   1  -9  431.56   15.80
   6   1  -9  440.56   15.00
  -5  -1   9   30.20    2.70
   5  -1  -9   32.70    3.80
   5  -1  -9   29.60    3.40
  -5  -1   9   28.60    2.70
   5  -1  -9   30.30    3.70
   5   1  -9   32.30    3.40
   5   1  -9   27.80    3.60
   5   1  -9   28.50    3.70
  -5   1   9   30.30    2.90
  -5   1   9   30.70    3.20
  -4  -1   9  137.89    5.70
  -4  -1   9  131.69    5.70
  -4   1   9  137.39    5.70
  -4   1   9  134.89    5.50
   4   1  -9  136.89    6.40
   4   1  -9  108.69    9.10
   4   1  -9  131.39    9.00
   3  -1  -9   44.20    4.10
   3  -1  -9   50.69    4.70
  -3  -1   9   51.89    3.20
   3  -1  -9   49.20    4.70
   3  -1  -9   47.60    4.20
  -3  -1   9   45.70    3.10
   3   1  -9   48.50    4.80
  -3   1   9   44.40    3.20
  -3   1   9   51.09    3.00
   3   1  -9   50.09    3.90
   3   1  -9   52.39    4.40
   3   1  -9   52.99    4.80
   2  -1  -9   53.49    4.40
   2  -1  -9   54.89    4.90
   2  -1  -9   55.29    4.20
  -2  -1   9   59.49    3.50
  -2  -1   9   61.29    3.60
   2  -1  -9   53.69    4.70
   2   1  -9   54.49    4.60
   2   1  -9   51.29    5.10
  -2   1   9   61.59    3.30
  -2   1   9   63.59    3.50
   2   1  -9   61.29    4.20
   2   1  -9   51.29    4.70
  -2   1   9   65.49    5.50
  -1  -1   9  326.47   12.00
   1  -1  -9  321.37   12.70
  -1  -1   9  340.97   12.50
   1  -1  -9  344.07   13.30
   1  -1  -9  342.17   13.20
   1  -1  -9  329.17   12.60
  -1  -1   9  336.77   12.00
  -1   1   9  328.27   11.90
   1   1  -9  327.17   13.00
  -1   1   9  334.67   11.90
  -1   1   9  364.16   14.20
   1   1  -9  299.47   13.20
   1   1  -9  308.47   12.50
   1   1  -9  336.87   12.80
   0  -1  -9   99.19    5.60
   0  -1   9   89.39    4.50
   0  -1   9   89.49    5.10
   0  -1  -9   90.69    5.40
   0  -1   9   91.19    4.50
   0  -1  -9   93.29    5.70
   0   1   9   98.19    4.60
   0   1  -9   91.19    5.10
   0   1  -9   87.69    5.50
   0   1   9   89.09    4.50
   0   1  -9   97.59    5.50
   1  -1   9    5.10    1.50
   1  -1   9    3.40    4.60
  -1  -1  -9    5.10    2.70
   1  -1   9    4.30    2.00
  -1  -1  -9    7.20    3.70
   1  -1   9    8.20    2.10
  -1   1  -9    7.60    2.10
  -1   1  -9    6.40    4.00
   1   1   9    4.40    1.50
   1   1   9    7.70    1.60
   2  -1   9   -0.10    4.10
   2  -1   9   -0.20    1.70
   2  -1   9    2.30    1.70
   2   1   9   -0.70    1.30
   2   1   9   -0.20    1.20
   2   1   9   -4.80    4.90
   2   1   9    2.10    2.30
   3  -1   9   54.09    3.70
   3  -1   9   45.80    3.10
   3  -1   9   48.80    5.00
  -3  -1  -9   55.59    4.50
   3  -1   9   55.09    3.20
  -3  -1  -9   53.99    3.40
   3   1   9   51.49    2.90
   3   1   9   49.00    3.90
   3   1   9   58.29    3.20
  -4  -1  -9  117.29    5.10
   4  -1   9  117.49    5.20
   4  -1   9  122.99    4.80
   4  -1   9  135.29    7.30
   4   1   9  121.99    4.90
  -4   1  -9  118.19    5.70
   5  -1   9   11.10    1.50
   5  -1   9   12.50    2.10
   5   1   9   15.70    1.70
   7  -2  -9   34.20    3.00
  -7  -2   9   43.00    2.90
   7  -2  -9   35.10    2.80
   7   2  -9   27.80    3.40
   7   2  -9   37.90    3.40
   6  -2  -9   -0.40    1.60
  -6  -2   9    2.10    1.50
  -6  -2   9    1.40    1.80
   6  -2  -9    0.20    2.00
   6  -2  -9   -0.10    1.60
   6   2  -9    1.00    1.70
   6   2  -9    4.70    2.00
   6   2  -9   -0.30    1.90
   5  -2  -9   51.89    4.20
  -5  -2   9   60.59    3.40
  -5  -2   9   58.09    3.50
   5  -2  -9   56.99    4.30
   5  -2  -9   55.29    3.90
   5   2  -9   62.69    4.30
   5   2  -9   62.59    4.00
   5   2  -9   56.19    4.50
  -5   2   9   46.30    3.70
   5   2  -9   52.79    4.30
   4  -2  -9   15.80    2.60
   4  -2  -9   16.10    3.40
   4  -2  -9   10.20    2.30
  -4  -2   9   12.10    1.90
  -4  -2   9   14.00    2.30
   4   2  -9   11.40    2.60
   4   2  -9   15.10    2.70
   4   2  -9   17.20    2.80
   4   2  -9   18.90    3.10
  -4   2   9   12.30    2.00
   3  -2  -9   27.10    3.70
   3  -2  -9   30.30    4.90
   3  -2  -9   27.90    4.10
  -3  -2   9   28.30    2.70
  -3  -2   9   29.30    2.70
   3  -2  -9   28.80    3.90
   3   2  -9   30.70    3.30
   3   2  -9   28.20    3.60
   3   2  -9   23.50    4.50
   3   2  -9   29.50    5.10
  -3   2   9   29.40    2.90
  -3   2   9   29.60    2.50
  -2  -2   9    3.80    1.40
   2  -2  -9    6.40    2.40
   2  -2  -9    5.90    2.10
  -2  -2   9    2.40    1.50
   2  -2  -9    7.50    2.30
   2  -2  -9    4.50    2.30
  -2   2   9    4.70    1.30
   2   2  -9    4.40    1.90
   2   2  -9    5.20    1.90
   2   2  -9    6.00    3.00
  -2   2   9    6.00    1.50
   2   2  -9    3.30    2.30
   1  -2  -9   74.99    4.80
   1  -2  -9   81.49    5.40
   1  -2  -9   78.29    5.00
  -1  -2   9   83.49    4.90
  -1  -2   9   81.49    4.30
  -1  -2   9   78.89    4.10
   1  -2  -9   82.49    5.30
  -1   2   9   77.79    4.00
   1   2  -9   83.09    5.10
   1   2  -9   84.49    4.80
   1   2  -9   78.99    5.10
  -1   2   9   79.39    4.10
   0  -2  -9  641.34   22.20
   0  -2  -9  650.83   22.50
   0  -2   9  630.24   21.50
   0  -2   9  625.74   21.90
   0  -2  -9  613.24   22.00
   0  -2   9  592.04   21.50
   0  -2   9  594.44   23.60
   0  -2  -9  677.03   22.60
   0   2  -9  650.53   22.20
   0   2   9  643.84   21.60
   0   2   9  636.34   21.50
   0   2  -9  638.74   22.10
   0   2  -9  648.04   22.10
  -1  -2  -9  206.58    8.30
  -1  -2  -9  191.68    8.20
   1  -2   9  181.18    8.10
   1  -2   9  177.18   10.30
   1  -2   9  186.88    7.50
  -1  -2  -9  188.78    8.10
   1   2   9  187.18    7.50
   1   2   9  200.88    7.50
  -1   2  -9  189.78    8.30
   2  -2   9  198.28    8.70
  -2  -2  -9  195.18    8.10
  -2  -2  -9  202.88    7.90
   2  -2   9  200.28    7.90
   2  -2   9  175.18    9.70
   2   2   9  207.98    8.20
   2   2   9  188.98    7.50
   2   2   9  185.18    7.40
   3  -2   9   48.20    4.20
   3  -2   9   50.79    3.50
  -3  -2  -9   46.90    3.20
  -3  -2  -9   48.70    4.00
   3  -2   9   49.50    3.10
   3   2   9   40.00    3.70
   3   2   9   47.60    3.70
   3   2   9   54.79    3.00
   3   2   9   51.59    2.80
   4  -2   9   24.60    3.20
  -4  -2  -9   16.50    2.00
   4  -2   9   20.20    2.60
   4  -2   9   17.50    2.40
  -4  -2  -9   22.30    3.80
   4   2   9   18.80    1.90
   5  -2   9   91.59    4.40
   5   2   9   86.99    3.60
   7  -3  -9   48.80    3.40
   7   3  -9   42.50    2.90
   6  -3  -9   16.60    2.80
   6  -3  -9   12.90    2.60
   6  -3  -9   16.50    2.40
  -6  -3   9   15.70    2.10
   6   3  -9   17.20    2.60
   6   3  -9   11.50    3.30
   6   3  -9   14.50    2.80
   5  -3  -9   65.19    4.10
  -5  -3   9   61.09    3.80
  -5  -3   9   63.49    3.40
   5  -3  -9   64.29    4.30
   5  -3  -9   65.39    4.30
   5   3  -9   68.69    4.10
   5   3  -9   63.79    4.00
   5   3  -9   59.59    4.70
   5   3  -9   61.89    4.40
   4  -3  -9   89.69    5.20
   4  -3  -9   94.49    5.00
   4  -3  -9   92.39    5.50
   4  -3  -9   90.99    4.60
  -4  -3   9   88.19    4.30
  -4   3   9   92.09    4.50
   4   3  -9   88.09    4.60
   4   3  -9   88.19    5.50
   4   3  -9   83.39    5.50
   3  -3  -9  157.28    7.30
  -3  -3   9  145.39    6.10
   3  -3  -9  135.99    7.30
   3  -3  -9  154.78    6.40
  -3  -3   9  140.19    6.20
   3  -3  -9  129.99    8.50
   3   3  -9  133.49    7.40
   3   3  -9  158.58    7.40
   3   3  -9  136.89    7.30
  -3   3   9  156.08    6.30
  -3   3   9  155.38    6.00
   3   3  -9  154.68    6.70
   2  -3  -9  104.69    6.10
   2  -3  -9  114.59    6.00
   2  -3  -9  108.69    5.90
   2  -3  -9  106.69    6.20
  -2  -3   9  105.09    5.10
  -2  -3   9  107.29    5.00
   2   3  -9   99.99    5.90
  -2   3   9  111.09    5.00
   2   3  -9  116.49    7.20
   2   3  -9  109.49    5.60
  -2   3   9  106.29    4.80
   2   3  -9  104.89    6.10
  -1  -3   9  349.87   13.00
  -1  -3   9  373.56   13.60
   1  -3  -9  377.56   14.30
   1  -3  -9  368.56   13.60
  -1  -3   9  357.26   13.20
   1  -3  -9  375.86   14.00
   1  -3  -9  376.06   13.80
   1   3  -9  359.56   13.90
  -1   3   9  361.06   13.00
  -1   3   9  356.96   12.90
   1   3  -9  385.66   13.80
   1   3  -9  355.76   13.50
   0  -3   9  371.06   15.80
   0  -3   9  360.96   13.60
   0  -3  -9  389.76   14.40
   0  -3   9  422.06   14.90
   0  -3   9  359.06   13.20
   0  -3  -9  397.76   14.40
   0   3   9  376.16   13.30
   0   3  -9  369.06   14.00
   0   3   9  366.46   13.30
   0   3  -9  357.66   15.60
   1  -3   9   72.49    7.60
   1  -3   9   87.09    4.60
  -1  -3  -9   89.09    4.80
   1  -3   9   90.89    4.70
   1  -3   9   98.69    6.20
  -1  -3  -9   91.69    4.80
  -1  -3  -9   85.89    5.00
  -1   3  -9   86.59    5.50
   1   3   9   87.89    4.30
  -1   3  -9   91.09    4.70
   1   3   9   82.79    4.30
   1   3   9   85.59    4.20
   2  -3   9   23.00    3.80
   2  -3   9   19.90    2.70
   2  -3   9   18.70    2.60
  -2  -3  -9   20.10    2.70
  -2  -3  -9   24.30    2.90
   2   3   9   21.10    3.00
   2   3   9   20.20    2.20
   2   3   9   22.50    2.30
   3  -3   9   22.70    2.80
  -3  -3  -9   17.90    2.50
  -3  -3  -9   21.90    2.60
   3  -3   9   14.60    2.00
   3  -3   9   20.10    2.50
   3   3   9   15.90    2.50
   3   3   9   22.60    2.10
   3   3   9   17.20    2.10
   3   3   9   17.30    2.40
  -4  -3  -9  121.69    5.30
   4  -3   9  129.09    5.10
   4  -3   9  125.09    5.20
   4   3   9  125.29    4.70
   4   3   9  112.79    4.80
   6  -4  -9    7.30    1.90
   6  -4  -9    2.80    2.00
  -6  -4   9    4.70    1.70
   6   4  -9    6.90    1.90
   6   4  -9    4.50    2.20
  -5  -4   9   80.99    4.70
   5  -4  -9   85.49    4.30
  -5  -4   9   89.99    4.40
   5  -4  -9   85.49    4.70
   5  -4  -9   84.19    4.60
   5   4  -9   88.59    5.00
   5   4  -9   83.19    4.40
   5   4  -9   86.89    4.40
   4  -4  -9   35.30    3.40
   4  -4  -9   36.60    3.40
  -4  -4   9   34.80    2.70
   4  -4  -9   38.40    3.00
   4  -4  -9   38.30    3.20
  -4  -4   9   34.70    3.50
   4   4  -9   36.90    4.00
   4   4  -9   33.60    3.10
   4   4  -9   38.90    3.20
   3  -4  -9   49.90    3.70
  -3  -4   9   46.80    3.00
   3  -4  -9   49.10    3.80
  -3  -4   9   37.80    3.80
   3  -4  -9   43.30    3.80
   3  -4  -9   47.40    3.20
   3   4  -9   46.40    3.30
  -3   4   9   47.90    3.20
   3   4  -9   40.20    5.20
  -3   4   9   47.60    3.80
   2  -4  -9   34.10    3.50
   2  -4  -9   40.00    3.40
   2  -4  -9   42.80    3.30
   2  -4  -9   39.00    3.70
  -2  -4   9   37.10    2.90
  -2  -4   9   34.00    3.70
  -2  -4   9   36.50    3.30
   2   4  -9   36.60    3.10
  -2   4   9   37.80    3.00
   1  -4  -9    4.60    1.60
   1  -4  -9    6.50    1.90
   1  -4  -9    7.20    1.80
  -1  -4   9    8.80    2.90
  -1  -4   9    9.90    1.80
   1  -4  -9    6.50    2.00
  -1  -4   9    7.60    1.90
  -1  -4   9    7.60    4.30
  -1   4   9   10.10    1.70
  -1   4   9    8.20    1.50
   1   4  -9    8.60    1.90
   0  -4  -9   73.59    4.40
   0  -4  -9   80.69    4.40
   0  -4   9   79.79    4.50
   0  -4   9   68.89    6.90
   0  -4  -9   69.19    4.30
   0  -4   9   69.79    6.40
   0  -4   9   79.49    4.60
   0   4   9   70.69    3.80
   0   4   9   73.59    3.90
   0   4  -9   77.99    4.80
   0   4  -9   79.59    4.40
   0   4   9   78.99    4.10
  -1  -4  -9   41.90    3.30
   1  -4   9   42.20    4.60
   1  -4   9   43.60    3.30
  -1  -4  -9   48.20    3.30
  -1  -4  -9   38.00    3.50
   1   4   9   46.30    3.10
  -1   4  -9   39.10    5.30
   1   4   9   42.60    2.80
   1   4   9   47.40    3.10
  -1   4  -9   44.40    3.30
   2  -4   9  135.99    6.00
  -2  -4  -9  138.19    5.60
   2  -4   9  129.79    5.70
  -2  -4  -9  119.39    6.10
  -2  -4  -9  135.49    5.70
   2   4   9  133.39    5.30
   2   4   9  141.09    5.40
   2   4   9  132.59    5.70
   2   4   9  131.29    5.30
   3  -4   9    2.50    1.30
  -3  -4  -9    2.70    1.60
   3  -4   9    2.40    1.60
  -3  -4  -9    1.80    1.00
  -3  -4  -9    3.60    2.10
   3   4   9    3.70    1.00
   3   4   9    3.40    1.70
   3   4   9    1.60    1.50
   3   4   9    1.70    1.20
   4  -4   9    2.10    1.40
  -4  -4  -9    3.00    1.00
   4  -4   9   -0.40    1.30
   4   4   9    1.90    1.20
   4   4   9    0.70    1.10
  -6  -5   9   28.30    2.40
   5  -5  -9   89.99    4.10
  -5  -5   9   73.59    4.00
   5  -5  -9   80.29    4.50
   5   5  -9   71.49    4.10
   5   5  -9   81.69    4.20
   5   5  -9   86.39    5.20
   4  -5  -9   72.99    3.50
   4  -5  -9   69.39    4.40
   4  -5  -9   69.79    4.00
  -4  -5   9   66.79    3.80
  -4  -5   9   69.19    6.30
   4  -5  -9   69.49    3.80
   4   5  -9   75.89    3.90
   4   5  -9   62.59    3.60
  -3  -5   9   36.70    4.70
   3  -5  -9   41.30    3.00
   3  -5  -9   32.40    3.10
   3  -5  -9   34.60    3.60
  -3  -5   9   38.20    3.10
   3  -5  -9   35.40    2.60
  -3  -5   9   44.30    3.90
   3   5  -9   36.50    2.80
   2  -5  -9   24.30    3.20
  -2  -5   9   25.50    2.70
   2  -5  -9   24.10    2.50
  -2  -5   9   20.60    3.60
   2  -5  -9   26.00    2.70
  -2  -5   9   22.90    4.10
   2  -5  -9   24.00    2.80
   2   5  -9   23.00    2.50
  -2   5   9   26.50    3.40
  -2   5   9   28.60    2.70
   1  -5  -9   51.89    3.40
   1  -5  -9   49.70    3.60
  -1  -5   9   50.29    3.40
   1  -5  -9   53.29    3.30
  -1   5   9   46.40    3.10
  -1   5   9   52.99    3.10
   1   5  -9   53.89    3.30
   0  -5  -9   89.59    4.60
   0  -5   9   88.69    4.40
   0  -5   9   91.09    5.70
   0  -5  -9   94.79    4.40
   0  -5  -9   90.39    4.30
   0   5  -9   93.09    4.60
   0   5  -9   90.59    4.90
   0   5   9   83.39    4.20
   0   5   9   89.89    4.10
   1  -5   9   80.69    4.10
  -1  -5  -9   83.49    3.90
   1  -5   9   79.19    4.70
  -1  -5  -9   78.69    4.10
  -1  -5  -9   77.39    4.10
   1   5   9   84.99    3.80
   1   5   9   81.59    3.70
  -1   5  -9   81.79    4.20
   1   5   9   81.29    4.00
   2  -5   9  279.27   10.40
   2  -5   9  290.77   10.40
  -2  -5  -9  291.07   10.10
  -2  -5  -9  294.57   10.80
   2   5   9  292.27   10.50
   2   5   9  281.57   10.00
   2   5   9  300.67   10.10
   3  -5   9  160.68    6.30
   3  -5   9  160.08    5.90
   3   5   9  152.68    6.00
   3   5   9  141.39    6.10
   3   5   9  140.29    5.40
  -5  -6   9   46.80    2.80
   5   6  -9   50.99    3.20
  -4  -6   9   43.30    4.10
   4  -6  -9   46.90    3.10
   4  -6  -9   51.69    2.70
   4  -6  -9   48.80    3.90
   4   6  -9   53.19    3.70
   4   6  -9   47.50    3.00
   3  -6  -9    6.10    1.50
   3  -6  -9    9.10    1.40
   3  -6  -9   12.10    2.00
  -3  -6   9    5.50    1.30
  -3  -6   9    9.60    2.60
   3   6  -9    8.10    1.40
  -2  -6   9   14.50    2.70
  -2  -6   9   17.90    2.30
   2  -6  -9   16.90    2.10
   2  -6  -9   19.00    2.20
   2  -6  -9   17.50    2.00
  -2   6   9   16.40    2.90
  -2   6   9   13.20    1.90
   2   6  -9   17.80    2.10
   1  -6  -9   24.30    2.40
  -1  -6   9   27.50    4.50
   1  -6  -9   26.20    2.20
  -1  -6   9   23.20    2.30
   1  -6  -9   29.30    2.30
  -1  -6   9   18.80    3.40
   1   6  -9   28.90    2.50
  -1   6   9   20.20    3.10
  -1   6   9   23.90    2.30
  -1   6   9   23.30    2.80
  -1   6   9   20.50    2.90
   0  -6  -9   17.40    2.10
   0  -6  -9   19.30    2.00
   0  -6   9   24.70    3.40
   0  -6   9   15.50    2.20
   0  -6  -9   16.30    2.10
   0   6  -9   20.30    2.40
   0   6   9   18.50    2.60
   0   6   9   17.70    2.20
   0   6   9   17.10    2.60
   0   6   9   17.50    2.00
   0   6  -9   17.50    3.40
   1  -6   9    8.80    1.50
   1  -6   9    9.70    1.90
  -1  -6  -9   12.60    1.80
   1   6   9    9.20    1.70
  -1   6  -9    7.10    2.00
   1   6   9    6.20    1.20
   1   6   9    7.70    1.80
   2  -6   9  111.49    4.80
   2  -6   9  111.89    4.70
   2   6   9   96.39    4.50
   2   6   9  116.59    4.80
   2   6   9  113.79    4.90
   3   6   9   22.00    1.70
   4   7  -9   11.30    2.20
  -3  -7   9   35.30    3.00
   3  -7  -9   43.40    2.50
   3  -7  -9   43.30    2.30
   3  -7  -9   36.20    2.50
   3   7  -9   41.10    2.60
   3   7  -9   41.00    2.50
   2  -7  -9   33.30    2.40
   2  -7  -9   32.80    2.10
  -2  -7   9   24.90    2.60
   2   7  -9   27.00    2.40
   2   7  -9   32.50    2.50
   1  -7  -9   34.00    2.70
   1  -7  -9   28.80    2.20
   1  -7  -9   31.50    2.70
  -1  -7   9   37.20    2.60
   1   7  -9   31.60    2.70
   1   7  -9   35.40    2.70
  -1   7   9   31.40    3.00
   0  -7   9   18.30    2.30
   0  -7   9   21.90    2.50
   0  -7  -9   15.80    1.60
   0  -7  -9   13.10    2.20
   0   7   9   18.80    2.00
   0   7   9   14.50    2.00
   0   7  -9   20.10    2.60
   1  -7   9    3.70    1.90
   1  -7   9    1.90    1.60
   1   7   9    1.00    1.10
   1   7   9   -0.60    1.00
   6   0 -10  592.94   19.80
   6   0 -10  563.64   20.40
   6   0 -10  635.94   20.60
   5   0 -10    0.50    1.40
   5   0 -10   -0.10    1.60
   5   0 -10    0.10    1.50
  -5   0  10   -0.80    1.50
  -5   0  10    0.50    1.90
  -4   0  10   13.00    2.30
  -4   0  10   15.20    2.40
   4   0 -10   18.00    3.00
   4   0 -10   17.70    2.90
   4   0 -10   13.50    2.60
   3   0 -10   11.70    2.20
   3   0 -10   12.20    2.30
  -3   0  10    8.50    1.60
  -3   0  10   11.80    2.10
   3   0 -10    7.30    1.70
  -3   0  10    7.70    2.30
   3   0 -10    9.10    2.20
   2   0 -10   32.40    3.80
   2   0 -10   38.50    3.50
  -2   0  10   40.10    4.10
  -2   0  10   38.90    3.20
  -2   0  10   34.90    2.80
   2   0 -10   34.20    3.40
  -1   0  10    5.10    1.70
   1   0 -10    7.20    1.90
  -1   0  10    8.80    2.40
   1   0 -10    6.40    1.90
   1   0 -10    3.60    1.50
  -1   0  10    7.70    1.50
   0   0  10  223.58    8.80
   0   0 -10  246.98    9.40
   0   0  10  228.88    8.70
   0   0 -10  226.28    9.10
   0   0  10  234.28    9.20
   1   0  10  122.79    5.90
   1   0  10   98.69    5.50
   1   0  10  107.39    4.70
   2   0  10    1.50    2.10
   2   0  10    0.50    1.10
   3   0  10    3.70    1.10
  -3   0 -10    5.10    1.30
   4   0  10    0.30    1.00
   6  -1 -10    3.90    1.50
   6  -1 -10    7.60    2.00
  -6  -1  10    2.70    2.20
   6  -1 -10    4.40    2.10
   6   1 -10    3.70    2.00
   6   1 -10    7.10    1.70
   6   1 -10    5.70    1.70
  -5  -1  10   11.40    1.70
   5  -1 -10   11.40    2.20
  -5  -1  10    9.70    2.00
   5  -1 -10    8.20    1.90
   5   1 -10   15.80    2.50
   5   1 -10   13.40    2.80
  -5   1  10   11.50    2.00
   5   1 -10   14.70    2.50
  -4  -1  10   53.49    3.50
  -4  -1  10   64.49    3.30
   4  -1 -10   58.09    3.80
   4  -1 -10   62.29    4.10
   4  -1 -10   57.39    4.20
   4   1 -10   55.79    3.90
   4   1 -10   58.49    3.80
   4   1 -10   56.59    4.20
  -4   1  10   65.09    3.80
  -4   1  10   62.59    3.50
   3  -1 -10   22.90    3.20
  -3  -1  10   30.70    3.20
  -3  -1  10   23.40    2.50
   3  -1 -10   26.00    3.20
   3  -1 -10   22.80    3.20
  -3  -1  10   26.60    2.50
   3  -1 -10   28.50    3.10
   3   1 -10   28.70    3.60
   3   1 -10   30.80    3.30
  -3   1  10   29.80    2.60
   3   1 -10   30.00    3.20
   3   1 -10   29.10    3.00
  -3   1  10   26.20    2.60
   2  -1 -10  287.57   10.80
  -2  -1  10  248.48   10.90
   2  -1 -10  290.77   11.10
  -2  -1  10  289.07   10.50
   2  -1 -10  286.27   11.40
   2  -1 -10  299.27   11.40
  -2  -1  10  291.57   10.80
  -2   1  10  298.97   11.20
  -2   1  10  298.57   10.50
   2   1 -10  292.57   11.00
   2   1 -10  277.37   11.30
   2   1 -10  294.17   11.20
   2   1 -10  299.27   11.20
   2   1 -10  294.37   10.80
  -1  -1  10  136.49    6.10
  -1  -1  10  135.29    5.60
  -1  -1  10  140.59    6.60
   1  -1 -10  138.19    6.20
   1  -1 -10  135.79    6.10
   1  -1 -10  130.29    6.50
   1  -1 -10  139.69    6.40
   1   1 -10  122.39    6.20
   1   1 -10  134.09    6.10
  -1   1  10  136.39    5.60
  -1   1  10  125.39    7.00
   1   1 -10  129.79    6.30
   0  -1  10   80.39    4.50
   0  -1 -10   91.09    4.70
   0  -1  10   72.49    4.50
   0  -1 -10   73.59    4.60
   0  -1 -10   74.59    4.20
   0  -1  10   78.59    3.90
   0  -1 -10   86.79    4.90
   0   1  10   75.29    4.10
   0   1  10   79.59    4.00
   0   1 -10   73.69    4.70
   1  -1  10  151.88    6.20
   1  -1  10  149.59    5.90
   1  -1  10  140.89    7.10
   1   1  10  136.09    6.20
   1   1  10  144.99    5.80
  -2  -1 -10   43.00    2.90
   2  -1  10   39.20    3.30
   2  -1  10   43.70    2.70
   2   1  10   34.80    3.00
   2   1  10   41.40    2.60
   3  -1  10   -0.80    2.30
  -3  -1 -10    2.80    1.30
   3  -1  10    1.90    1.10
   3   1  10    2.50    1.00
   4   1  10   22.00    1.80
   6  -2 -10   70.49    3.70
   6  -2 -10   77.09    3.90
   6   2 -10   74.59    3.80
   5  -2 -10   19.40    2.60
   5  -2 -10   18.00    2.50
  -5  -2  10   13.20    2.10
   5  -2 -10   19.30    2.60
   5   2 -10   21.90    3.80
   5   2 -10   15.60    2.50
   5   2 -10   19.90    2.80
   4  -2 -10  111.89    5.70
  -4  -2  10  113.69    4.80
   4  -2 -10  109.49    5.20
   4  -2 -10  108.89    5.50
  -4  -2  10  112.09    5.10
   4   2 -10  114.69    5.20
   4   2 -10  109.49    5.40
   4   2 -10  112.79    5.70
   4   2 -10  112.59    5.30
  -4   2  10  110.89    5.10
  -4   2  10  107.09    5.00
  -3  -2  10   13.40    2.10
   3  -2 -10   12.30    2.00
   3  -2 -10   18.70    3.00
  -3  -2  10    9.90    1.80
   3  -2 -10   16.60    2.80
  -3  -2  10   14.00    1.90
   3  -2 -10   11.30    2.00
   3   2 -10   15.70    2.50
  -3   2  10   18.60    2.50
   3   2 -10   14.50    2.70
   3   2 -10   15.70    2.70
  -3   2  10   14.50    2.40
   3   2 -10   14.40    3.00
  -2  -2  10   20.30    2.90
  -2  -2  10   23.80    2.40
   2  -2 -10   22.30    2.90
   2  -2 -10   23.80    2.70
   2  -2 -10   30.00    3.30
   2  -2 -10   29.30    3.20
  -2  -2  10   21.10    2.80
  -2   2  10   20.00    2.50
   2   2 -10   28.30    4.60
   2   2 -10   24.80    2.80
   2   2 -10   21.10    3.00
  -2   2  10   26.00    2.50
   2   2 -10   22.70    3.40
   2   2 -10   23.80    3.20
   1  -2 -10   64.09    4.00
  -1  -2  10   59.89    4.20
   1  -2 -10   71.39    4.40
  -1  -2  10   66.19    4.00
   1  -2 -10   71.09    4.10
  -1  -2  10   69.29    3.60
  -1   2  10   65.49    3.60
   1   2 -10   63.99    4.20
   1   2 -10   69.29    4.20
   1   2 -10   68.99    4.00
  -1   2  10   66.89    3.70
   0  -2  10  192.28    7.60
   0  -2 -10  202.28    7.90
   0  -2  10  206.48    7.90
   0  -2  10  181.08    8.30
   0  -2 -10  205.08    8.10
   0  -2 -10  202.78    8.00
   0   2 -10  209.18    8.00
   0   2  10  198.38    7.60
   0   2 -10  197.38    8.10
   0   2  10  192.58    7.70
  -1  -2 -10  165.78    6.60
   1  -2  10  173.38    6.60
  -1  -2 -10  160.68    6.70
   1  -2  10  135.89    6.50
   1   2  10  159.08    6.20
   1   2  10  164.88    6.20
   1   2  10  156.88    6.60
   2  -2  10   26.50    2.40
  -2  -2 -10   28.90    2.40
   2  -2  10   23.30    2.80
   2   2  10   25.60    2.50
   2   2  10   26.70    2.20
   2   2  10   26.60    2.10
   3  -2  10    1.80    1.30
  -3  -2 -10    0.60    1.30
   3  -2  10    1.80    1.60
   3   2  10    3.00    1.00
   3   2  10    1.00    1.30
   4   2  10    8.30    1.30
   6  -3 -10   91.79    4.30
  -6  -3  10  114.79    4.30
   6  -3 -10   96.39    4.40
   5  -3 -10  144.29    5.80
  -5  -3  10  131.39    5.40
   5  -3 -10  135.69    5.90
   5  -3 -10  116.09    6.60
   5   3 -10  147.29    5.80
   5   3 -10  138.69    6.00
   4  -3 -10  126.29    5.40
  -4  -3  10  120.29    5.30
   4  -3 -10  132.59    5.80
   4  -3 -10  130.69    5.90
   4  -3 -10  135.59    5.60
  -4  -3  10  122.19    5.70
   4   3 -10  120.79    6.80
   4   3 -10  127.09    5.40
   4   3 -10  130.39    5.60
  -3  -3  10   28.40    2.80
   3  -3 -10   30.50    2.60
   3  -3 -10   31.20    3.00
   3  -3 -10   29.80    3.00
  -3  -3  10   27.60    2.50
  -3  -3  10   34.70    3.20
   3  -3 -10   31.80    2.70
   3   3 -10   28.50    2.90
  -3   3  10   28.40    3.00
   3   3 -10   26.30    2.50
  -3   3  10   24.70    2.90
   2  -3 -10   28.50    2.70
   2  -3 -10   26.70    3.00
  -2  -3  10   33.00    2.90
   2  -3 -10   27.60    2.90
  -2  -3  10   34.00    3.50
  -2  -3  10   27.50    2.50
   2  -3 -10   34.00    3.00
  -2   3  10   28.90    2.60
   2   3 -10   29.40    2.70
   2   3 -10   26.50    2.90
  -2   3  10   29.00    2.70
   1  -3 -10   59.59    3.70
   1  -3 -10   55.69    3.70
  -1  -3  10   53.29    3.30
   1  -3 -10   49.60    3.30
  -1  -3  10   56.49    3.50
  -1  -3  10   48.40    4.80
   1  -3 -10   54.69    3.60
  -1   3  10   46.90    3.00
   1   3 -10   52.09    3.40
   1   3 -10   49.99    3.70
  -1   3  10   55.69    3.30
   0  -3 -10  342.17   12.50
   0  -3 -10  353.96   12.30
   0  -3  10  326.67   12.10
   0  -3 -10  366.56   12.50
   0  -3  10  367.46   12.50
   0   3  10  327.37   12.10
   0   3 -10  350.56   12.40
   0   3  10  337.47   12.10
   0   3  10  348.27   12.00
   0   3 -10  347.47   12.50
  -1  -3 -10  345.47   12.30
   1  -3  10  354.66   12.10
   1  -3  10  359.76   12.40
  -1  -3 -10  368.46   12.40
   1   3  10  317.67   12.30
   1   3  10  342.57   12.10
   1   3  10  359.66   12.10
  -2  -3 -10   15.70    2.00
   2  -3  10   14.90    2.30
   2  -3  10   15.90    2.60
   2   3  10   10.30    1.80
   2   3  10   17.20    2.00
   2   3  10   17.00    1.80
   3  -3  10    4.40    1.50
   3   3  10    5.00    1.30
   5  -4 -10   91.09    4.40
   5  -4 -10   99.19    4.10
   5  -4 -10   90.69    4.20
  -5  -4  10   95.99    4.10
   5   4 -10   93.29    4.20
   4  -4 -10  303.87   11.30
  -4  -4  10  322.37   11.00
  -4  -4  10  285.87   10.70
   4  -4 -10  340.77   12.30
   4  -4 -10  308.07   11.00
   4  -4 -10  296.77   10.60
   4   4 -10  302.37   11.10
   4   4 -10  327.77   11.40
   3  -4 -10   28.30    2.40
   3  -4 -10   32.00    2.90
  -3  -4  10   32.70    2.70
   3  -4 -10   33.60    2.80
  -3  -4  10   26.10    2.60
   3  -4 -10   29.10    2.60
   3   4 -10   31.00    2.70
  -3   4  10   26.40    3.50
   3   4 -10   30.50    2.50
   2  -4 -10   25.70    2.60
   2  -4 -10   26.20    2.40
  -2  -4  10   20.20    2.70
  -2  -4  10   23.70    2.50
   2  -4 -10   24.00    2.40
   2  -4 -10   26.40    2.70
   2   4 -10   23.70    2.40
   2   4 -10   21.70    2.60
  -2   4  10   21.10    2.90
  -2   4  10   17.80    2.50
  -1  -4  10    7.00    3.00
   1  -4 -10   11.20    2.00
   1  -4 -10    8.50    1.50
  -1  -4  10    9.10    1.70
   1  -4 -10   11.30    2.10
  -1   4  10    6.60    3.00
   1   4 -10   10.10    1.70
  -1   4  10    5.70    1.80
   1   4 -10    9.30    1.50
  -1   4  10    7.20    1.50
   0  -4 -10  304.17   10.40
   0  -4  10  301.37   10.50
   0  -4 -10  284.27   10.50
   0  -4 -10  289.27   10.30
   0   4 -10  294.77   10.40
   0   4  10  281.17   10.30
   0   4  10  273.07   10.90
   0   4  10  286.97   10.30
  -1  -4 -10  178.08    6.60
   1  -4  10  176.88    6.70
   1   4  10  165.08    6.50
   1   4  10  181.68    6.50
   1   4  10  172.18    6.50
  -2  -4 -10   67.69    3.10
   2   4  10   67.09    3.50
   2   4  10   72.59    3.90
   3  -4  10   24.80    2.30
  -4  -5  10   93.39    3.90
   4  -5 -10   86.29    4.00
   4  -5 -10   88.69    3.80
   4   5 -10   89.89    4.00
   4   5 -10   85.79    3.90
   3  -5 -10   19.60    1.90
   3  -5 -10   20.90    2.10
   3  -5 -10   21.40    2.00
  -3  -5  10   22.50    2.30
   3   5 -10   23.50    2.10
   3   5 -10   22.00    2.20
   2  -5 -10   29.90    2.10
   2  -5 -10   35.00    2.50
  -2  -5  10   31.90    2.60
   2  -5 -10   33.20    2.30
  -2   5  10   37.10    3.10
   2   5 -10   34.30    2.40
  -2   5  10   33.10    3.80
   2   5 -10   34.70    2.70
   1  -5 -10   13.40    1.90
   1  -5 -10   13.80    1.80
  -1  -5  10   17.40    2.00
   1  -5 -10   12.80    1.90
  -1   5  10    9.10    1.60
  -1   5  10   14.70    2.10
   1   5 -10   14.50    2.70
   1   5 -10   12.70    1.90
   0  -5 -10   37.00    2.30
   0  -5  10   31.70    2.50
   0  -5 -10   35.40    2.40
   0  -5 -10   37.10    2.70
   0   5  10   42.70    3.20
   0   5 -10   42.10    4.20
   0   5  10   37.90    2.40
   1  -5  10   49.80    3.00
  -1  -5 -10   40.70    2.40
   1   5  10   43.60    3.30
   1   5  10   39.60    2.40
   1   5  10   42.00    2.40
   2  -5  10   71.89    3.30
   2   5  10   73.69    2.90
   2   5  10   69.79    3.00
   3  -6 -10   13.70    1.80
  -3  -6  10   14.30    2.00
   3  -6 -10   11.40    1.70
   3   6 -10   10.20    1.40
   3   6 -10   10.20    1.40
   2  -6 -10   15.60    1.80
   2  -6 -10   12.10    1.60
   2  -6 -10   12.00    1.70
  -2  -6  10   13.90    1.60
   2   6 -10   13.70    1.90
   2   6 -10   18.00    2.30
  -1  -6  10    8.90    1.40
   1  -6 -10   10.90    1.60
   1  -6 -10    5.60    1.00
   1  -6 -10    8.30    1.40
   1   6 -10    7.60    1.30
   0  -6 -10   12.80    1.70
   0  -6  10    9.30    1.40
   0   6  10    9.50    1.70
   5   0 -11   18.90    2.20
   5   0 -11   15.50    2.20
   5   0 -11   11.30    2.10
   4   0 -11    6.10    2.00
   4   0 -11   11.40    2.40
   4   0 -11    5.80    1.40
  -3   0  11   14.80    2.10
   3   0 -11   14.20    2.30
   3   0 -11   14.10    2.20
   2   0 -11    3.00    1.50
  -2   0  11    0.40    1.30
   2   0 -11    1.80    2.40
   2   0 -11    2.80    1.40
   2   0 -11    3.60    1.60
  -2   0  11    0.50    1.90
   1   0 -11   45.80    3.10
   1   0 -11   54.29    3.20
  -1   0  11   60.79    5.90
  -1   0  11   53.39    3.00
   0   0 -11   19.30    2.50
   0   0  11   21.10    2.20
   0   0 -11   21.70    2.20
  -1   0 -11    6.30    1.30
   1   0  11    6.80    1.20
   2   0  11   31.90    2.10
  -2   0 -11   36.70    2.30
   5  -1 -11   62.79    3.20
   5  -1 -11   63.19    3.20
   5  -1 -11   58.19    3.10
   5   1 -11   61.29    3.80
   5   1 -11   63.49    3.20
   4  -1 -11   12.00    2.00
  -4  -1  11   12.30    2.10
   4  -1 -11   10.80    2.10
   4  -1 -11    8.60    2.50
   4   1 -11   11.90    1.90
   4   1 -11   12.00    2.70
   4   1 -11    7.80    1.80
   3  -1 -11   26.60    2.70
   3  -1 -11   27.90    2.50
  -3  -1  11   29.50    2.40
  -3  -1  11   28.00    4.20
   3  -1 -11   32.00    2.70
  -3   1  11   28.60    2.50
   3   1 -11   25.30    2.50
   3   1 -11   27.00    3.40
   3   1 -11   26.90    2.80
   2  -1 -11   18.60    2.40
   2  -1 -11   17.00    2.80
   2  -1 -11   22.40    2.40
  -2  -1  11   23.10    4.00
  -2  -1  11   20.70    2.20
   2  -1 -11   17.10    2.40
  -2   1  11   20.70    2.30
   2   1 -11   21.80    2.40
   2   1 -11   19.50    3.00
   2   1 -11   22.40    2.70
   1  -1 -11    6.10    2.30
  -1  -1  11   13.90    2.40
   1  -1 -11    8.40    1.60
  -1  -1  11    7.30    1.60
   1  -1 -11    5.30    1.40
  -1   1  11    9.80    1.60
   1   1 -11    8.80    1.70
   1   1 -11    9.50    1.70
   0  -1 -11    9.30    1.50
   0  -1 -11    9.40    2.30
   0  -1  11   14.50    2.40
   0   1  11    8.10    1.50
   0   1  11   13.50    1.90
  -1  -1 -11   30.20    2.20
   1  -1  11   29.70    2.30
   1   1  11   19.60    3.60
  -1   1 -11   31.50    2.30
   1   1  11   30.10    2.10
  -2  -1 -11   10.00    1.70
   2  -1  11    9.00    1.20
  -2   1 -11   12.70    1.70
   2   1  11   11.50    1.60
   5  -2 -11   32.50    2.30
   5  -2 -11   27.90    2.20
   4  -2 -11   20.40    2.20
  -4  -2  11   30.50    3.10
   4  -2 -11   25.20    2.30
   4  -2 -11   29.00    2.60
  -4  -2  11   26.30    2.40
   4   2 -11   23.80    2.40
  -3  -2  11   54.29    3.00
  -3  -2  11   56.49    3.60
   3  -2 -11   53.39    3.20
   3  -2 -11   43.70    3.10
   3  -2 -11   53.39    3.00
   3  -2 -11   54.09    3.30
   3   2 -11   52.79    3.10
  -3   2  11   51.29    3.10
   2  -2 -11    1.60    1.30
  -2  -2  11    2.20    1.50
   2  -2 -11    2.50    1.30
  -2  -2  11    5.40    2.70
   2  -2 -11    3.00    1.50
   2  -2 -11    3.10    1.40
   2   2 -11    2.70    1.30
  -2   2  11    2.30    1.40
  -1  -2  11   33.20    2.80
   1  -2 -11   40.00    2.60
  -1  -2  11   40.10    4.70
   1  -2 -11   35.60    2.90
   1  -2 -11   34.60    2.80
  -1   2  11   34.60    2.40
   0  -2 -11   16.80    2.00
   0  -2  11   15.80    2.70
   0   2  11   14.60    2.00
   0   2  11   17.70    2.10
   0   2 -11   18.60    2.40
   1  -2  11   11.60    2.60
  -1  -2 -11   13.80    2.10
   1  -2  11   12.60    2.00
  -1   2 -11   13.90    2.00
   1   2  11   13.30    2.50
   1   2  11   16.00    1.90
  -2  -2 -11    6.90    1.20
   2   2  11    9.40    1.20
  -2   2 -11    7.80    1.20
  -4  -3  11   29.80    2.60
   4  -3 -11   30.20    2.40
   4  -3 -11   32.20    2.50
   4  -3 -11   33.70    2.30
   4   3 -11   34.00    2.40
   3  -3 -11   51.89    4.70
   3  -3 -11   55.69    3.20
   3  -3 -11   64.69    3.60
   3  -3 -11   52.89    3.10
  -3  -3  11   56.09    3.30
   3   3 -11   58.49    3.40
   2  -3 -11    5.50    1.20
   2  -3 -11    9.60    2.60
  -2  -3  11    4.20    1.40
   2   3 -11    6.10    1.30
   2   3 -11    7.20    2.00
  -2   3  11   10.30    1.70
   1  -3 -11   94.49    4.20
  -1  -3  11  101.49    4.70
   1  -3 -11   99.59    4.20
   1  -3 -11  104.89    4.20
  -1   3  11   97.29    4.20
   1   3 -11   84.09    4.90
   1   3 -11   96.59    4.40
  -1   3  11   90.69    4.00
   0  -3  11  205.48    7.20
   0  -3 -11  169.18    7.70
   0  -3  11  201.78    7.30
   0   3 -11  211.48    7.40
   0   3  11  199.88    7.20
   0   3  11  215.38    7.10
   1  -3  11   22.70    3.00
  -1  -3 -11   21.60    1.80
   1   3  11   17.80    1.70
  -1   3 -11   17.90    1.80
   3  -4 -11    5.00    1.20
   3  -4 -11    4.50    1.30
  -3  -4  11    3.20    0.90
   3   4 -11    4.40    1.30
   2  -4 -11  102.09    4.30
  -2  -4  11  108.89    4.40
   2  -4 -11  100.89    4.20
   2  -4 -11  105.59    4.10
   2   4 -11  103.89    4.40
   2   4 -11  109.59    4.30
  -1  -4  11  112.79    4.40
   1  -4 -11  105.39    4.30
   1  -4 -11  105.69    4.20
  -1   4  11  103.19    4.30
   0  -4  11   12.80    2.10
   0  -4 -11   14.40    1.50
   0   4  11   12.00    1.70
  -2   0  12   23.70    1.80
  -1   0  12    0.20    1.10
   0   0   0    0.00    0.00

_computing_structure_solution     'SHELXT 2014/5 (Sheldrick, 2014)'
;
_shelx_hkl_checksum              26313
loop_
_space_group_symop_operation_xyz
'x, y, z'
'-x, y+1/2, -z'
loop_
_atom_site_label
_atom_site_type_symbol
_atom_site_fract_x
_atom_site_fract_y
_atom_site_fract_z
_atom_site_U_iso_or_equiv
_atom_site_adp_type
_atom_site_occupancy
_atom_site_site_symmetry_order
_atom_site_calc_flag
_atom_site_refinement_flags_posn
_atom_site_refinement_flags_adp
_atom_site_refinement_flags_occupancy
_atom_site_disorder_assembly
_atom_site_disorder_group
O1 O 0.6046(2) 0.81920(19) 0.7152(2) 0.0448(5) Uani 1 1 d . . . . .
O2 O 0.1765(2) 0.4550(3) 0.8559(2) 0.0540(5) Uani 1 1 d . . . . .
C6 C 0.6130(2) 0.4521(2) 0.83476(19) 0.0201(4) Uani 1 1 d . . . . .
C2 C 0.6795(3) 0.7079(2) 0.7574(2) 0.0282(4) Uani 1 1 d . . . . .
C13 C 0.7434(3) 0.4989(3) 0.6074(2) 0.0292(5) Uani 1 1 d . . . . .
H13A H 0.855910 0.488702 0.666905 0.035 Uiso 1 1 calc R U . . .
H13B H 0.706453 0.400088 0.573233 0.035 Uiso 1 1 calc R U . . .
C1 C 0.6173(2) 0.5571(2) 0.70291(19) 0.0216(4) Uani 1 1 d . . . . .
C7 C 0.4722(2) 0.5038(2) 0.9188(2) 0.0269(4) Uani 1 1 d . . . . .
H7A H 0.463966 0.433788 0.997060 0.032 Uiso 1 1 calc R U . . .
H7B H 0.503925 0.600107 0.962377 0.032 Uiso 1 1 calc R U . . .
C11 C 0.5676(3) 0.2991(2) 0.7829(2) 0.0303(5) Uani 1 1 d . . . . .
H11 H 0.457147 0.286599 0.730912 0.036 Uiso 1 1 calc R U . . .
C8 C 0.3016(3) 0.5163(3) 0.8263(3) 0.0340(5) Uani 1 1 d . . . . .
C5 C 0.7826(2) 0.4555(3) 0.9369(2) 0.0255(4) Uani 1 1 d . . . . .
H5A H 0.772820 0.393668 1.020929 0.031 Uiso 1 1 calc R U . . .
H5B H 0.871461 0.412585 0.887776 0.031 Uiso 1 1 calc R U . . .
C10 C 0.4408(2) 0.5697(3) 0.6119(2) 0.0297(5) Uani 1 1 d . . . . .
H10A H 0.445363 0.644221 0.536957 0.036 Uiso 1 1 calc R U . . .
H10B H 0.412003 0.475017 0.563705 0.036 Uiso 1 1 calc R U . . .
C4 C 0.8373(3) 0.6082(3) 0.9882(2) 0.0338(5) Uani 1 1 d . . . . .
H4A H 0.951146 0.603234 1.046145 0.041 Uiso 1 1 calc R U . . .
H4B H 0.757848 0.645961 1.049801 0.041 Uiso 1 1 calc R U . . .
C3 C 0.8414(3) 0.7135(3) 0.8631(2) 0.0341(5) Uani 1 1 d . . . . .
H3A H 0.859291 0.814304 0.900245 0.041 Uiso 1 1 calc R U . . .
H3B H 0.937823 0.688007 0.813724 0.041 Uiso 1 1 calc R U . . .
C9 C 0.2993(3) 0.6110(3) 0.6974(3) 0.0375(5) Uani 1 1 d . . . . .
H9A H 0.313149 0.714414 0.727725 0.045 Uiso 1 1 calc R U . . .
H9B H 0.188468 0.601302 0.635365 0.045 Uiso 1 1 calc R U . . .
C12 C 0.6615(3) 0.1817(3) 0.8007(3) 0.0397(5) Uani 1 1 d . . . . .
H12A H 0.773198 0.187082 0.851821 0.048 Uiso 1 1 calc R U . . .
H12B H 0.618045 0.090908 0.762588 0.048 Uiso 1 1 calc R U . . .
C14 C 0.7623(4) 0.5927(5) 0.4790(3) 0.0613(10) Uani 1 1 d . . . . .
C15A C 0.8981(5) 0.5793(5) 0.3970(4) 0.0336(11) Uiso 0.569(8) 1 d . . P A .
H15A H 0.920593 0.656626 0.335775 0.040 Uiso 0.569(8) 1 calc R U P . .
C16A C 0.9902(6) 0.4622(6) 0.4061(5) 0.0418(13) Uiso 0.569(8) 1 d . . P . .
H16A H 0.967961 0.384696 0.467290 0.050 Uiso 0.569(8) 1 calc R U P A .
H16B H 1.079867 0.453799 0.351685 0.050 Uiso 0.569(8) 1 calc R U P . .
C15B C 0.8898(7) 0.4978(7) 0.3941(5) 0.0291(14) Uiso 0.431(8) 1 d . . P A 1
H15B H 0.868844 0.396892 0.375379 0.035 Uiso 0.431(8) 1 calc R U P A 1
C16B C 1.0188(7) 0.5604(7) 0.3528(6) 0.0382(17) Uiso 0.431(8) 1 d . . P A 1
H16C H 1.039725 0.661294 0.371488 0.046 Uiso 0.431(8) 1 calc R U P A 1
H16D H 1.092557 0.505567 0.303644 0.046 Uiso 0.431(8) 1 calc R U P A 1
H14A H 0.809(4) 0.673(4) 0.519(4) 0.046 Uiso 1 1 d . U . . .
H14B H 0.656(4) 0.603(4) 0.419(3) 0.046 Uiso 1 1 d . U . . .
loop_
_atom_site_aniso_label
_atom_site_aniso_U_11
_atom_site_aniso_U_22
_atom_site_aniso_U_33
_atom_site_aniso_U_23
_atom_site_aniso_U_13
_atom_site_aniso_U_12
O1 0.0511(11) 0.0301(8) 0.0527(11) 0.0105(8) 0.0068(8) 0.0044(7)
O2 0.0198(7) 0.0783(14) 0.0653(12) 0.0122(11) 0.0111(8) -0.0041(9)
C6 0.0154(8) 0.0262(9) 0.0180(8) 0.0004(7) 0.0003(6) 0.0002(7)
C2 0.0293(10) 0.0312(11) 0.0256(10) 0.0025(8) 0.0088(8) -0.0028(9)
C13 0.0238(9) 0.0466(12) 0.0177(9) -0.0003(8) 0.0050(7) 0.0062(9)
C1 0.0170(8) 0.0302(9) 0.0171(8) 0.0023(7) 0.0010(7) 0.0029(7)
C7 0.0207(9) 0.0376(11) 0.0232(9) 0.0001(8) 0.0058(7) -0.0008(8)
C11 0.0281(10) 0.0325(11) 0.0288(10) -0.0014(8) -0.0002(8) -0.0013(9)
C8 0.0170(9) 0.0463(13) 0.0398(12) -0.0012(10) 0.0076(8) 0.0041(9)
C5 0.0188(8) 0.0387(11) 0.0178(8) 0.0050(8) -0.0011(7) -0.0009(8)
C10 0.0199(9) 0.0435(12) 0.0235(9) 0.0026(9) -0.0039(7) 0.0063(9)
C4 0.0261(10) 0.0504(13) 0.0226(9) -0.0018(10) -0.0034(8) -0.0122(10)
C3 0.0308(11) 0.0375(12) 0.0336(11) -0.0022(9) 0.0039(9) -0.0137(9)
C9 0.0196(10) 0.0528(14) 0.0388(12) 0.0045(11) 0.0005(9) 0.0117(10)
C12 0.0471(13) 0.0304(11) 0.0385(13) 0.0037(10) -0.0028(10) 0.0017(10)
C14 0.0411(15) 0.112(3) 0.0332(14) 0.0307(17) 0.0146(11) 0.0209(17)
loop_
_atom_type_symbol
_atom_type_description
_atom_type_scat_dispersion_real
_atom_type_scat_dispersion_imag
_atom_type_scat_source
C C 0.0181 0.0091 'International Tables Vol C Tables 4.2.6.8 and 6.1.1.4'
H H 0.0000 0.0000 'International Tables Vol C Tables 4.2.6.8 and 6.1.1.4'
O O 0.0492 0.0322 'International Tables Vol C Tables 4.2.6.8 and 6.1.1.4'
loop_
_geom_angle_atom_site_label_1
_geom_angle_atom_site_label_2
_geom_angle_atom_site_label_3
_geom_angle
C11 C6 C5 111.60(16)
C11 C6 C7 106.99(16)
C5 C6 C7 108.06(14)
C11 C6 C1 109.85(15)
C5 C6 C1 111.12(14)
C7 C6 C1 109.09(15)
O1 C2 C3 121.2(2)
O1 C2 C1 121.70(19)
C3 C2 C1 117.11(18)
C14 C13 C1 115.4(2)
C14 C13 H13A 108.4
C1 C13 H13A 108.4
C14 C13 H13B 108.4
C1 C13 H13B 108.4
H13A C13 H13B 107.5
C2 C1 C10 110.12(17)
C2 C1 C13 107.45(16)
C10 C1 C13 108.77(15)
C2 C1 C6 109.07(14)
C10 C1 C6 110.98(15)
C13 C1 C6 110.38(16)
C8 C7 C6 112.85(16)
C8 C7 H7A 109.0
C6 C7 H7A 109.0
C8 C7 H7B 109.0
C6 C7 H7B 109.0
H7A C7 H7B 107.8
C12 C11 C6 128.0(2)
C12 C11 H11 116.0
C6 C11 H11 116.0
O2 C8 C9 123.3(2)
O2 C8 C7 122.2(2)
C9 C8 C7 114.50(18)
C4 C5 C6 113.66(17)
C4 C5 H5A 108.8
C6 C5 H5A 108.8
C4 C5 H5B 108.8
C6 C5 H5B 108.8
H5A C5 H5B 107.7
C9 C10 C1 114.14(16)
C9 C10 H10A 108.7
C1 C10 H10A 108.7
C9 C10 H10B 108.7
C1 C10 H10B 108.7
H10A C10 H10B 107.6
C5 C4 C3 111.71(17)
C5 C4 H4A 109.3
C3 C4 H4A 109.3
C5 C4 H4B 109.3
C3 C4 H4B 109.3
H4A C4 H4B 107.9
C2 C3 C4 111.88(17)
C2 C3 H3A 109.2
C4 C3 H3A 109.2
C2 C3 H3B 109.2
C4 C3 H3B 109.2
H3A C3 H3B 107.9
C8 C9 C10 111.77(18)
C8 C9 H9A 109.3
C10 C9 H9A 109.3
C8 C9 H9B 109.3
C10 C9 H9B 109.3
H9A C9 H9B 107.9
C11 C12 H12A 120.0
C11 C12 H12B 120.0
H12A C12 H12B 120.0
C15A C14 C13 124.3(3)
C15A C14 C15B 27.1(2)
C13 C14 C15B 103.9(3)
C15A C14 H14A 90(2)
C13 C14 H14A 102(2)
C15B C14 H14A 113(2)
C15A C14 H14B 111(2)
C13 C14 H14B 110(2)
C15B C14 H14B 109(2)
H14A C14 H14B 117(3)
C16A C15A C14 120.3(4)
C16A C15A H15A 119.8
C14 C15A H15A 119.8
C15A C16A H16A 120.0
C15A C16A H16B 120.0
H16A C16A H16B 120.0
C16B C15B C14 120.0(5)
C16B C15B H15B 120.0
C14 C15B H15B 120.0
C15B C16B H16C 120.0
C15B C16B H16D 120.0
H16C C16B H16D 120.0
loop_
_geom_bond_atom_site_label_1
_geom_bond_atom_site_label_2
_geom_bond_distance
O1 C2 1.218(3)
O2 C8 1.218(3)
C6 C11 1.510(3)
C6 C5 1.541(2)
C6 C7 1.552(2)
C6 C1 1.581(2)
C2 C3 1.512(3)
C2 C1 1.529(3)
C13 C14 1.516(4)
C13 C1 1.551(3)
C13 H13A 0.9900
C13 H13B 0.9900
C1 C10 1.541(2)
C7 C8 1.508(3)
C7 H7A 0.9900
C7 H7B 0.9900
C11 C12 1.307(3)
C11 H11 0.9500
C8 C9 1.496(4)
C5 C4 1.521(3)
C5 H5A 0.9900
C5 H5B 0.9900
C10 C9 1.538(3)
C10 H10A 0.9900
C10 H10B 0.9900
C4 C3 1.533(3)
C4 H4A 0.9900
C4 H4B 0.9900
C3 H3A 0.9900
C3 H3B 0.9900
C9 H9A 0.9900
C9 H9B 0.9900
C12 H12A 0.9500
C12 H12B 0.9500
C14 C15A 1.436(5)
C14 C15B 1.643(6)
C14 H14A 0.89(3)
C14 H14B 0.96(3)
C15A C16A 1.296(7)
C15A H15A 0.9500
C16A H16A 0.9500
C16A H16B 0.9500
C15B C16B 1.293(8)
C15B H15B 0.9500
C16B H16C 0.9500
C16B H16D 0.9500
loop_
_geom_torsion_atom_site_label_1
_geom_torsion_atom_site_label_2
_geom_torsion_atom_site_label_3
_geom_torsion_atom_site_label_4
_geom_torsion
O1 C2 C1 C10 -8.9(3)
C3 C2 C1 C10 172.85(17)
O1 C2 C1 C13 109.4(2)
C3 C2 C1 C13 -68.8(2)
O1 C2 C1 C6 -130.9(2)
C3 C2 C1 C6 50.8(2)
C14 C13 C1 C2 -59.6(3)
C14 C13 C1 C10 59.6(3)
C14 C13 C1 C6 -178.4(2)
C11 C6 C1 C2 -174.76(16)
C5 C6 C1 C2 -50.8(2)
C7 C6 C1 C2 68.26(18)
C11 C6 C1 C10 63.7(2)
C5 C6 C1 C10 -172.27(17)
C7 C6 C1 C10 -53.2(2)
C11 C6 C1 C13 -56.9(2)
C5 C6 C1 C13 67.1(2)
C7 C6 C1 C13 -173.90(16)
C11 C6 C7 C8 -64.2(2)
C5 C6 C7 C8 175.50(17)
C1 C6 C7 C8 54.6(2)
C5 C6 C11 C12 -8.9(3)
C7 C6 C11 C12 -126.9(3)
C1 C6 C11 C12 114.8(3)
C6 C7 C8 O2 126.2(3)
C6 C7 C8 C9 -54.6(3)
C11 C6 C5 C4 177.95(17)
C7 C6 C5 C4 -64.7(2)
C1 C6 C5 C4 55.0(2)
C2 C1 C10 C9 -68.6(2)
C13 C1 C10 C9 173.9(2)
C6 C1 C10 C9 52.3(2)
C6 C5 C4 C3 -54.0(2)
O1 C2 C3 C4 130.8(2)
C1 C2 C3 C4 -50.9(2)
C5 C4 C3 C2 49.9(3)
O2 C8 C9 C10 -130.4(3)
C7 C8 C9 C10 50.3(3)
C1 C10 C9 C8 -49.9(3)
C1 C13 C14 C15A 164.6(4)
C1 C13 C14 C15B -175.7(3)
C13 C14 C15A C16A 17.4(7)
C15B C14 C15A C16A -28.6(5)
C15A C14 C15B C16B 10.7(5)
C13 C14 C15B C16B -131.5(5)
