#------------------------------------------------------------------------------
#$Date: 2017-03-25 09:24:08 +0200 (Sat, 25 Mar 2017) $
#$Revision: 194514 $
#$URL: file:///home/coder/svn-repositories/cod/cif/1/54/56/1545650.cif $
#------------------------------------------------------------------------------
#
# This file is available in the Crystallography Open Database (COD),
# http://www.crystallography.net/. The original data for this entry
# were provided by IUCr Journals, http://journals.iucr.org/.
#
# The file may be used within the scientific community so long as
# proper attribution is given to the journal article from which the
# data were obtained.
#
data_1545650
loop_
_publ_author_name
'Preveena, Narasimhamurthy'
'Hosamani, Amar A.'
'Praveen, Managutti'
'Nagendrappa, Gopalpur'
'Guru Row, Tayur N.'
_publ_section_title
;
 <i>cis</i>-[3-(2-Chloro-6-methylquinolin-3-yl)oxiran-2-yl](<i>p</i>-tolyl)methanone
;
_journal_coeditor_code           HB4122
_journal_issue                   3
_journal_name_full               IUCrData
_journal_page_first              x170434
_journal_paper_doi               10.1107/S2414314617004345
_journal_volume                  2
_journal_year                    2017
_chemical_formula_iupac          'C20 H16 Cl N O2'
_chemical_formula_moiety         'C20 H16 Cl N O2'
_chemical_formula_sum            'C20 H16 Cl N O2'
_chemical_formula_weight         337.79
_chemical_name_common            PM_I_2C
_chemical_name_systematic
<i>cis</i>-[3-(2-Chloro-6-methylquinolin-3-yl)oxiran-2-yl](<i>p</i>-tolyl)methanone
_space_group_crystal_system      triclinic
_space_group_IT_number           2
_space_group_name_Hall           '-P 1'
_space_group_name_H-M_alt        'P -1'
_symmetry_space_group_name_Hall  '-P 1'
_symmetry_space_group_name_H-M   'P -1'
_atom_sites_solution_hydrogens   geom
_atom_sites_solution_primary     direct
_audit_creation_method
;
Olex2 1.2
(compiled 2017.01.04 svn.r3372 for OlexSys, GUI svn.r5292)
;
_cell_angle_alpha                105.124(18)
_cell_angle_beta                 95.633(18)
_cell_angle_gamma                104.398(17)
_cell_formula_units_Z            2
_cell_length_a                   7.412(2)
_cell_length_b                   10.963(4)
_cell_length_c                   11.070(4)
_cell_measurement_reflns_used    5696
_cell_measurement_temperature    298(2)
_cell_measurement_theta_max      27.07
_cell_measurement_theta_min      2.34
_cell_volume                     828.2(5)
_computing_cell_refinement
;
SAINT (Bruker, 2012)
;
_computing_data_collection
;
APEX2 (Bruker, 2012)
;
_computing_data_reduction
;
SAINT (Bruker, 2012)
;
_computing_molecular_graphics
;
<i>OLEX2</i> (Dolomanov <i>et al.</i>,  2009)
;
_computing_publication_material
;
<i>OLEX2</i> (Dolomanov <i>et al.</i>,  2009)
;
_computing_structure_refinement
;
SHELXL2014 (Sheldrick, 2015)
;
_computing_structure_solution
;
SHELXS97 (Sheldrick, 2008)
;
_diffrn_ambient_temperature      298(2)
_diffrn_detector_area_resol_mean 7.9
_diffrn_measured_fraction_theta_full 0.989
_diffrn_measured_fraction_theta_max 0.989
_diffrn_measurement_device       'three-circle diffractometer'
_diffrn_measurement_device_type  'Bruker SMART APEXII CCD'
_diffrn_measurement_method       '\w and \f scans'
_diffrn_radiation_monochromator  'mirror optics'
_diffrn_radiation_type           MoK\a
_diffrn_radiation_wavelength     0.71073
_diffrn_reflns_av_R_equivalents  0.0452
_diffrn_reflns_limit_h_max       8
_diffrn_reflns_limit_h_min       -8
_diffrn_reflns_limit_k_max       13
_diffrn_reflns_limit_k_min       -13
_diffrn_reflns_limit_l_max       13
_diffrn_reflns_limit_l_min       -13
_diffrn_reflns_number            11538
_diffrn_reflns_theta_full        24.996
_diffrn_reflns_theta_max         24.996
_diffrn_reflns_theta_min         1.935
_diffrn_standards_number         0
_exptl_absorpt_coefficient_mu    0.242
_exptl_absorpt_correction_T_max  0.7456
_exptl_absorpt_correction_T_min  0.6863
_exptl_absorpt_correction_type   multi-scan
_exptl_absorpt_process_details
;
(SADABS; Bruker, 2012)
;
_exptl_crystal_colour            'clear light colourless'
_exptl_crystal_density_diffrn    1.355
_exptl_crystal_density_method    'not measured'
_exptl_crystal_description       block
_exptl_crystal_F_000             352
_exptl_crystal_size_max          0.25
_exptl_crystal_size_mid          0.24
_exptl_crystal_size_min          0.23
_refine_diff_density_max         0.226
_refine_diff_density_min         -0.178
_refine_ls_extinction_method     none
_refine_ls_goodness_of_fit_ref   1.126
_refine_ls_hydrogen_treatment    constr
_refine_ls_matrix_type           full
_refine_ls_number_parameters     219
_refine_ls_number_reflns         2880
_refine_ls_number_restraints     0
_refine_ls_restrained_S_all      1.126
_refine_ls_R_factor_all          0.0511
_refine_ls_R_factor_gt           0.0422
_refine_ls_shift/su_max          0.000
_refine_ls_shift/su_mean         0.000
_refine_ls_structure_factor_coef Fsqd
_refine_ls_weighting_details
'w=1/[\s^2^(Fo^2^)+(0.0588P)^2^+0.1667P] where P=(Fo^2^+2Fc^2^)/3'
_refine_ls_weighting_scheme      calc
_refine_ls_wR_factor_gt          0.1191
_refine_ls_wR_factor_ref         0.1244
_reflns_number_gt                2411
_reflns_number_total             2880
_reflns_threshold_expression     'I > 2\s(I)'
_cod_data_source_file            hb4122sup1.cif
_cod_data_source_block           I
_cod_database_code               1545650
_shelx_space_group_comment
;
The symmetry employed for this shelxl refinement is uniquely defined
by the following loop, which should always be used as a source of
symmetry information in preference to the above space-group names.
They are only intended as comments.
;
_shelx_hkl_file
;
  -1   0   0   69.50    4.47
  -1   0   0   75.99    4.60
  -1   0   0   72.16    4.57
  -1   0   0   64.65    4.57
   1   0   0   78.72    4.60
   1   0   0   77.18    4.60
   1   0   0   79.32    4.57
   1   0   0   72.97    4.47
  -2   0   0    1.59    0.17
  -2   0   0    1.31    0.19
  -2   0   0    1.55    0.16
  -2   0   0    1.16    0.15
   2   0   0    1.71    0.17
   2   0   0    1.49    0.20
   2   0   0    1.60    0.17
  -3   0   0    3.27    0.27
  -3   0   0    2.62    0.30
  -3   0   0    3.03    0.25
   3   0   0    2.82    0.30
   3   0   0    2.92    0.26
  -4   0   0  199.53   12.88
  -4   0   0  218.41   12.97
   4   0   0  208.17   12.96
   4   0   0  205.09   13.34
  -5   0   0   34.73    2.24
  -5   0   0   35.12    2.22
  -5   0   0   32.84    2.18
  -5   0   0   36.15    2.21
   5   0   0   35.44    2.20
   5   0   0   29.81    2.24
  -6   0   0   38.31    2.34
  -6   0   0   33.26    2.32
  -6   0   0   35.80    2.40
   6   0   0   38.30    2.37
   6   0   0   32.86    2.39
  -7   0   0    1.34    0.39
  -7   0   0    0.73    0.21
   7   0   0    0.96    0.23
   7   0   0    0.76    0.23
  -8   0   0    2.04    0.52
  -8   0   0    1.74    0.32
   8   0   0    1.81    0.36
  -9   0   0    1.36    0.50
  -9   0   0    1.29    0.31
   9   0   0    0.76    0.34
   9  -1   0    2.23    0.46
  -9   1   0    1.59    0.54
  -9   1   0    1.72    0.37
   8  -1   0    0.06    0.24
   8  -1   0   -0.12    0.17
  -8   1   0   -0.46    0.20
  -8   1   0    0.22    0.36
  -8   1   0   -0.30    0.18
   7  -1   0    8.72    0.74
   7  -1   0    8.56    0.77
  -7   1   0    8.04    0.71
  -7   1   0    8.61    0.72
  -7   1   0    7.97    0.88
   6  -1   0   71.68    4.60
   6  -1   0   69.09    4.74
   6  -1   0   75.91    4.66
  -6   1   0   69.84    4.57
  -6   1   0   74.89    4.60
  -6   1   0   70.34    4.58
   5  -1   0   18.73    1.46
   5  -1   0   21.59    1.45
   5  -1   0   23.60    1.45
  -5   1   0   20.87    1.42
  -5   1   0   21.80    1.50
  -5   1   0   21.05    1.44
  -5   1   0   22.25    1.47
   4  -1   0    0.21    0.10
   4  -1   0    0.01    0.10
   4  -1   0    0.09    0.12
  -4   1   0    0.17    0.17
  -4   1   0   -0.07    0.11
  -4   1   0    0.04    0.11
  -4   1   0    0.15    0.11
  -4   1   0    0.27    0.13
   3  -1   0   27.27    1.76
   3  -1   0   25.48    1.78
   3  -1   0   27.43    1.75
   3  -1   0   28.71    1.75
  -3   1   0   26.16    1.74
  -3   1   0   27.60    1.73
  -3   1   0   28.86    1.75
  -3   1   0   28.34    1.76
  -3   1   0   23.73    1.75
   2  -1   0   12.68    0.87
   2  -1   0   13.15    0.88
   2  -1   0   12.66    0.89
   2  -1   0   14.57    0.88
  -2   1   0   12.56    0.86
  -2   1   0   14.47    0.88
  -2   1   0   12.52    0.88
  -2   1   0   13.39    0.88
  -2   1   0   13.11    0.86
  -2   1   0   13.11    0.87
  -1  -1   0  242.72   15.31
  -1  -1   0  264.84   15.73
   1   1   0  263.74   15.82
   1   1   0  246.18   15.31
  -2  -1   0  182.70   10.28
  -2  -1   0  161.24   10.21
  -2  -1   0  145.39   10.26
  -2  -1   0  149.80    9.97
   2   1   0  182.13    9.98
   2   1   0  167.88   10.27
  -3  -1   0   69.36    4.31
  -3  -1   0   68.93    4.23
  -3  -1   0   67.36    4.31
   3   1   0   67.53    4.31
   3   1   0   70.55    4.23
  -4  -1   0   79.06    4.89
  -4  -1   0   80.67    4.82
  -4  -1   0   75.87    4.85
  -4  -1   0   72.79    4.87
   4   1   0   78.37    4.88
   4   1   0   80.14    4.82
  -5  -1   0   28.07    1.71
  -5  -1   0   24.17    1.69
  -5  -1   0   26.46    1.69
  -5  -1   0   26.64    1.78
   5   1   0   27.26    1.70
   5   1   0   24.63    1.73
  -6  -1   0   11.07    0.98
  -6  -1   0   10.81    0.82
  -6  -1   0   12.13    0.81
   6   1   0   10.69    0.83
  -7  -1   0    1.06    0.23
  -7  -1   0    1.54    0.40
   7   1   0    1.02    0.25
  -8  -1   0    1.44    0.29
  -8  -1   0    1.10    0.44
   8   1   0    1.23    0.32
   9  -2   0    1.36    0.40
  -9   2   0    0.77    0.45
  -9   2   0    0.79    0.31
  -9   2   0    1.16    0.32
   8  -2   0    0.26    0.26
   8  -2   0    0.00    0.19
  -8   2   0    0.36    0.25
  -8   2   0    0.07    0.35
  -8   2   0    0.73    0.27
   7  -2   0   11.44    0.93
   7  -2   0   10.40    0.88
  -7   2   0   10.30    0.85
  -7   2   0   11.07    0.88
  -7   2   0   10.77    1.02
   6  -2   0   30.70    2.06
   6  -2   0   28.01    2.00
   6  -2   0   27.25    1.99
  -6   2   0   30.88    1.97
  -6   2   0   31.29    1.99
  -6   2   0   26.68    2.01
   5  -2   0   43.46    2.69
   5  -2   0   43.06    2.66
   5  -2   0   39.44    2.73
  -5   2   0   42.87    2.66
  -5   2   0   43.29    2.68
  -5   2   0   40.05    2.66
  -5   2   0   35.14    2.63
  -5   2   0   38.31    2.63
   4  -2   0    6.27    0.49
   4  -2   0    6.12    0.49
   4  -2   0    6.31    0.50
  -4   2   0    5.14    0.51
  -4   2   0    6.06    0.49
  -4   2   0    5.55    0.49
  -4   2   0    5.83    0.49
  -4   2   0    5.86    0.47
   3  -2   0   12.22    0.96
   3  -2   0   14.18    0.95
   3  -2   0   13.15    0.94
   3  -2   0   13.41    0.95
  -3   2   0   14.08    0.92
  -3   2   0   13.91    0.95
  -3   2   0   13.32    0.92
  -3   2   0   13.33    0.94
  -3   2   0   14.61    0.94
   2  -2   0  303.08   19.24
   2  -2   0  306.73   18.55
   2  -2   0  316.25   18.08
   2  -2   0  313.55   18.87
   2  -2   0  304.39   18.66
  -2   2   0  296.90   19.23
  -2   2   0  307.94   18.66
  -2   2   0  293.43   18.08
  -2   2   0  267.57   18.66
  -2   2   0  323.09   18.55
  -2   2   0  261.10   18.55
   1  -2   0  304.41   20.82
   1  -2   0  331.10   20.70
   1  -2   0  355.59   20.70
   1  -2   0  343.55   20.82
  -1   2   0  341.76   20.83
  -1   2   0  327.01   21.05
   0  -2   0   -0.22    0.08
   0  -2   0    0.46    0.12
   0  -2   0   -0.08    0.08
   0  -2   0   -0.10    0.07
   0   2   0   -0.08    0.08
   0   2   0   -0.26    0.07
   0   2   0   -0.20    0.09
   0   2   0    0.01    0.08
  -1  -2   0  154.58    9.14
  -1  -2   0  153.43    9.07
  -1  -2   0  149.09    9.12
  -1  -2   0  144.50    9.07
   1   2   0  142.44    8.82
   1   2   0  133.96    9.12
  -2  -2   0   69.24    4.05
  -2  -2   0   66.89    4.02
  -2  -2   0   55.93    4.00
  -2  -2   0   63.55    3.93
   2   2   0   65.85    3.93
   2   2   0   64.20    4.04
  -3  -2   0    0.16    0.09
  -3  -2   0    0.16    0.07
  -3  -2   0    0.37    0.13
  -3  -2   0    0.42    0.09
  -3  -2   0    0.20    0.09
   3   2   0    0.33    0.09
   3   2   0    0.10    0.11
  -4  -2   0   95.97    6.96
  -4  -2   0  114.55    6.98
  -4  -2   0  115.83    6.85
  -4  -2   0  114.86    7.00
   4   2   0  119.77    6.85
   4   2   0  110.50    6.99
  -5  -2   0    6.91    0.63
  -5  -2   0    5.92    0.51
  -5  -2   0    7.38    0.52
  -5  -2   0    6.54    0.48
   5   2   0    6.26    0.50
  -6  -2   0    4.10    0.44
  -6  -2   0    3.92    0.41
  -6  -2   0    4.33    0.55
   6   2   0    4.02    0.41
  -7  -2   0    1.13    0.23
  -7  -2   0    1.48    0.40
  -7  -2   0    1.41    0.29
   7   2   0    0.93    0.24
  -8  -2   0    2.57    0.35
   8   2   0    1.92    0.37
   9  -3   0    0.33    0.34
  -9   3   0   -0.38    0.37
  -9   3   0    0.22    0.27
   8  -3   0    6.78    0.77
   8  -3   0    5.50    0.66
  -8   3   0    6.85    0.71
  -8   3   0    6.76    0.68
  -8   3   0    8.52    0.96
   7  -3   0    0.11    0.21
   7  -3   0    0.13    0.22
  -7   3   0    0.16    0.31
  -7   3   0    0.02    0.21
  -7   3   0    0.18    0.20
   6  -3   0   21.56    1.77
   6  -3   0   27.13    1.74
   6  -3   0   24.61    1.72
  -6   3   0   26.53    1.73
  -6   3   0   24.05    1.70
  -6   3   0   25.44    1.72
  -6   3   0   23.44    1.74
   5  -3   0   36.35    2.45
   5  -3   0   37.30    2.54
   5  -3   0   39.59    2.47
  -5   3   0   37.53    2.48
  -5   3   0   35.54    2.42
  -5   3   0   35.83    2.45
  -5   3   0   35.72    2.43
  -5   3   0   38.20    2.45
   4  -3   0    2.90    0.31
   4  -3   0    2.31    0.32
   4  -3   0    2.61    0.33
  -4   3   0    3.15    0.28
  -4   3   0    3.00    0.39
  -4   3   0    2.87    0.31
  -4   3   0    3.08    0.35
  -4   3   0    3.42    0.34
   3  -3   0    0.59    0.15
   3  -3   0    0.65    0.14
  -3   3   0    0.94    0.20
  -3   3   0    0.50    0.12
  -3   3   0    0.95    0.22
  -3   3   0    0.81    0.17
  -3   3   0    0.37    0.13
   2  -3   0 1000.00   61.82
   1  -3   0   76.96    4.72
   1  -3   0   74.95    4.67
   1  -3   0   74.32    4.66
  -1   3   0   76.81    4.69
  -1   3   0   70.29    4.67
  -1   3   0   72.54    4.66
   0  -3   0   64.60    3.83
   0  -3   0   59.20    3.80
   0  -3   0   63.58    3.80
   0  -3   0   53.55    3.83
   0   3   0   61.33    3.80
  -1  -3   0  132.02    8.16
  -1  -3   0  137.46    8.11
  -1  -3   0  120.77    8.14
  -1  -3   0  126.92    8.10
   1   3   0  133.97    8.15
  -2  -3   0    3.12    0.26
  -2  -3   0    2.66    0.29
  -2  -3   0    3.02    0.28
   2   3   0    2.63    0.26
   2   3   0    2.78    0.25
  -3  -3   0   19.08    1.26
  -3  -3   0   18.78    1.24
  -3  -3   0   17.65    1.26
  -3  -3   0   18.81    1.24
  -3  -3   0   19.54    1.26
   3   3   0   19.98    1.25
   3   3   0   19.34    1.24
  -4  -3   0    2.48    0.29
  -4  -3   0    3.56    0.39
  -4  -3   0    3.56    0.34
  -4  -3   0    2.73    0.29
  -4  -3   0    3.59    0.29
   4   3   0    2.32    0.26
   4   3   0    2.63    0.34
  -5  -3   0   83.05    4.77
  -5  -3   0   78.38    4.82
  -5  -3   0   67.83    4.78
  -6  -3   0    2.10    0.34
  -6  -3   0    2.84    0.44
  -6  -3   0    2.06    0.28
  -7  -3   0    0.02    0.17
  -7  -3   0   -0.06    0.21
  -7  -3   0    0.39    0.30
   7   3   0    0.00    0.18
  -8  -3   0    0.48    0.22
  -8  -3   0    0.81    0.30
   8   3   0    0.72    0.28
   9  -4   0    1.50    0.45
  -9   4   0    1.99    0.45
  -9   4   0    1.32    0.52
   8  -4   0   12.01    1.16
   8  -4   0   12.41    1.08
  -8   4   0   13.51    1.09
  -8   4   0   12.41    1.07
  -8   4   0   13.76    1.23
   7  -4   0    2.12    0.38
   7  -4   0    1.57    0.37
  -7   4   0    1.17    0.32
  -7   4   0    1.36    0.46
  -7   4   0    2.13    0.38
  -7   4   0    2.02    0.38
   6  -4   0   62.68    3.96
   6  -4   0   59.39    4.06
   6  -4   0   58.58    3.92
  -6   4   0   61.69    3.93
  -6   4   0   59.65    3.88
  -6   4   0   58.00    3.90
   5  -4   0   66.49    4.21
   5  -4   0   61.51    4.06
   5  -4   0   52.32    4.07
  -5   4   0   63.19    4.07
  -5   4   0   67.95    4.05
  -5   4   0   61.60    3.99
  -5   4   0   65.73    4.03
   4  -4   0   57.93    4.01
   4  -4   0   63.55    4.00
   4  -4   0   64.17    4.12
  -4   4   0   63.22    3.95
  -4   4   0   59.32    3.89
  -4   4   0   61.96    3.99
  -4   4   0   61.62    3.96
  -4   4   0   62.25    3.99
   3  -4   0  309.44   19.89
   3  -4   0  322.32   20.26
   3  -4   0  310.24   20.04
  -3   4   0  330.96   19.93
  -3   4   0  310.82   19.90
  -3   4   0  318.33   19.41
  -3   4   0  334.72   20.05
  -3   4   0  318.33   20.24
  -3   4   0  331.01   20.65
   2  -4   0  371.75   26.18
   2  -4   0  445.18   26.19
   2  -4   0  433.72   26.36
  -2   4   0  404.37   26.63
  -2   4   0  436.71   26.19
  -2   4   0  441.03   27.17
  -2   4   0  425.82   25.50
   1  -4   0  134.99    8.85
   1  -4   0  133.12    8.76
  -1   4   0  142.82    8.77
  -1   4   0  146.34    8.78
  -1   4   0  144.74    8.83
   0  -4   0  223.76   13.63
   0  -4   0  209.21   13.71
   0  -4   0  224.01   13.73
   0  -4   0  231.95   13.64
   0   4   0  208.54   13.63
   0   4   0  217.84   13.71
  -1  -4   0    4.52    0.39
  -1  -4   0    4.27    0.42
  -1  -4   0    4.39    0.37
  -1  -4   0    5.01    0.41
   1   4   0    3.92    0.38
  -2  -4   0    2.22    0.26
  -2  -4   0    2.98    0.27
  -2  -4   0    2.79    0.31
  -2  -4   0    2.38    0.27
   2   4   0    2.59    0.26
   2   4   0    2.55    0.27
  -3  -4   0   23.59    1.62
  -3  -4   0   25.43    1.64
  -3  -4   0   23.53    1.64
   3   4   0   25.83    1.61
   3   4   0   25.75    1.63
  -4  -4   0   68.82    4.06
  -4  -4   0   60.40    4.02
  -4  -4   0   59.67    4.05
  -4  -4   0   65.49    4.03
   4   4   0   63.38    4.04
   4   4   0   64.72    3.97
  -5  -4   0   10.19    0.75
  -5  -4   0    9.73    0.79
  -6  -4   0    0.49    0.27
  -6  -4   0    0.08    0.19
  -6  -4   0    0.09    0.16
  -7  -4   0    0.40    0.21
   7   4   0    0.45    0.24
   9  -5   0    4.66    0.74
  -9   5   0    4.70    0.79
  -9   5   0    4.90    0.68
   8  -5   0   17.88    1.55
   8  -5   0   17.83    1.45
  -8   5   0   18.27    1.45
  -8   5   0   19.36    1.58
   7  -5   0   12.96    1.07
   7  -5   0   12.03    1.14
  -7   5   0    9.07    1.02
  -7   5   0   14.01    1.16
  -7   5   0   14.23    1.06
  -7   5   0   12.14    1.05
   6  -5   0   32.14    2.40
   6  -5   0   36.77    2.42
   6  -5   0   35.72    2.51
  -6   5   0   37.57    2.41
  -6   5   0   36.72    2.42
  -6   5   0   33.73    2.37
  -6   5   0   32.63    2.40
   5  -5   0   16.63    1.29
   5  -5   0   15.90    1.22
   5  -5   0   17.88    1.26
  -5   5   0   16.73    1.21
  -5   5   0   17.64    1.25
  -5   5   0   14.13    1.22
  -5   5   0   15.99    1.22
   4  -5   0   10.44    0.88
   4  -5   0   11.22    0.92
  -4   5   0    9.75    0.84
  -4   5   0   12.89    0.89
  -4   5   0   11.74    0.91
  -4   5   0   13.59    0.91
  -4   5   0   10.50    0.88
   3  -5   0  477.50   29.86
   3  -5   0  484.87   29.66
  -3   5   0  441.24   28.88
  -3   5   0  510.82   29.69
  -3   5   0  472.78   30.16
  -3   5   0  483.12   30.76
   2  -5   0   10.26    0.75
   2  -5   0    9.60    0.74
   2  -5   0    8.70    0.79
  -2   5   0    8.30    0.74
  -2   5   0   10.40    0.74
  -2   5   0    9.67    0.74
  -2   5   0    9.85    0.76
  -2   5   0    9.65    0.74
   1  -5   0   80.33    4.66
   1  -5   0   60.24    4.56
   1  -5   0   76.23    4.59
  -1   5   0   72.32    4.59
  -1   5   0   72.72    4.61
   0  -5   0    3.55    0.35
   0  -5   0    2.88    0.38
   0  -5   0    2.73    0.32
   0   5   0    2.47    0.32
  -1  -5   0    2.65    0.30
  -1  -5   0    2.55    0.29
  -1  -5   0    3.04    0.34
  -1  -5   0    3.05    0.37
   1   5   0    1.94    0.28
  -2  -5   0    7.58    0.67
  -2  -5   0    8.51    0.64
  -2  -5   0    8.86    0.66
  -2  -5   0    7.91    0.63
   2   5   0    7.94    0.60
   2   5   0    9.55    0.66
  -3  -5   0    8.26    0.65
  -3  -5   0    9.24    0.69
  -3  -5   0    8.35    0.69
   3   5   0    7.39    0.63
   3   5   0    9.36    0.66
  -4  -5   0    0.23    0.15
  -4  -5   0    0.08    0.17
  -4  -5   0   -0.03    0.17
  -5  -5   0    7.95    0.64
  -5  -5   0    7.83    0.68
  -6  -5   0    1.60    0.31
  -6  -5   0    1.33    0.25
  -7  -5   0    3.01    0.45
  -7  -5   0    3.61    0.42
   7   5   0    3.29    0.46
  -9   6   0    3.13    0.61
  -9   6   0    3.15    0.69
   8  -6   0   17.41    1.41
   8  -6   0   15.89    1.48
  -8   6   0   18.08    1.52
  -8   6   0   16.73    1.41
   7  -6   0    1.21    0.41
   7  -6   0    2.04    0.46
   7  -6   0    2.55    0.45
  -7   6   0    2.08    0.49
  -7   6   0    2.26    0.45
  -7   6   0    2.38    0.45
   6  -6   0    0.07    0.25
   6  -6   0   -0.25    0.29
   6  -6   0   -0.15    0.29
  -6   6   0    0.30    0.26
  -6   6   0    0.07    0.27
  -6   6   0    0.02    0.25
  -6   6   0   -0.71    0.26
   5  -6   0   46.75    3.05
  -5   6   0   41.61    2.97
  -5   6   0   44.71    3.00
  -5   6   0   47.56    2.98
  -5   6   0   44.54    3.03
   4  -6   0   29.53    2.00
   4  -6   0   30.48    2.08
  -4   6   0   31.89    2.03
  -4   6   0   26.38    1.98
  -4   6   0   31.62    2.04
  -4   6   0   27.34    2.04
   3  -6   0    0.85    0.21
   3  -6   0    0.76    0.27
  -3   6   0    0.94    0.24
  -3   6   0    0.66    0.24
  -3   6   0    1.06    0.26
  -3   6   0    0.63    0.17
  -3   6   0    0.69    0.20
   2  -6   0    7.01    0.67
   2  -6   0    6.99    0.60
   2  -6   0    6.72    0.60
  -2   6   0    5.20    0.56
  -2   6   0    7.49    0.60
  -2   6   0    7.21    0.61
  -2   6   0    6.92    0.61
   1  -6   0  134.55    7.89
   1  -6   0  114.87    7.78
   1  -6   0  124.70    7.79
  -1   6   0  123.62    7.79
  -1   6   0  121.41    7.83
   0  -6   0    0.25    0.15
   0  -6   0    0.21    0.19
   0  -6   0    0.37    0.15
   0   6   0    0.23    0.15
  -1  -6   0   37.82    2.35
  -1  -6   0   37.16    2.39
  -1  -6   0   29.87    2.31
   1   6   0   37.08    2.35
  -2  -6   0    0.27    0.16
  -2  -6   0    0.41    0.18
  -2  -6   0    0.15    0.14
  -2  -6   0    0.23    0.20
   2   6   0    0.59    0.18
   2   6   0    0.24    0.14
  -3  -6   0   69.62    4.22
  -3  -6   0   61.66    4.18
  -3  -6   0   68.56    4.24
   3   6   0   63.01    4.05
  -4  -6   0    0.29    0.21
  -4  -6   0    0.54    0.22
  -4  -6   0    0.40    0.18
  -5  -6   0    7.26    0.70
  -5  -6   0    7.83    0.61
  -6  -6   0    0.08    0.19
  -6  -6   0   -0.25    0.22
  -7  -6   0    0.34    0.30
  -7  -6   0    0.78    0.25
  -9   7   0   -0.09    0.43
  -9   7   0   -0.09    0.34
   8  -7   0    7.92    0.87
  -8   7   0    7.05    0.88
  -8   7   0    6.38    0.89
  -8   7   0    7.75    0.91
   7  -7   0   -0.21    0.31
  -7   7   0   -0.18    0.33
  -7   7   0   -0.12    0.27
  -7   7   0   -0.15    0.22
   6  -7   0    0.56    0.34
  -6   7   0    0.40    0.31
  -6   7   0    0.22    0.36
  -6   7   0    0.32    0.28
   5  -7   0    5.36    0.67
  -5   7   0    6.08    0.64
  -5   7   0    4.92    0.65
   4  -7   0   73.98    4.60
   4  -7   0   74.92    4.70
  -4   7   0   72.86    4.63
  -4   7   0   63.49    4.64
  -4   7   0   75.01    4.68
  -4   7   0   66.99    4.60
  -4   7   0   73.03    4.53
   3  -7   0   -0.16    0.21
   3  -7   0    0.21    0.19
  -3   7   0    0.06    0.14
  -3   7   0   -0.10    0.16
  -3   7   0   -0.14    0.18
  -3   7   0    0.10    0.17
  -3   7   0    0.27    0.22
  -3   7   0    0.14    0.19
   2  -7   0   -0.20    0.14
   2  -7   0   -0.12    0.21
   2  -7   0   -0.14    0.16
  -2   7   0    0.02    0.13
  -2   7   0   -0.07    0.17
  -2   7   0   -0.07    0.16
  -2   7   0   -0.11    0.14
   1  -7   0    1.07    0.25
   1  -7   0    0.70    0.24
   1  -7   0    0.96    0.28
  -1   7   0    0.98    0.24
   0  -7   0   32.99    2.22
   0  -7   0   31.94    2.17
   0  -7   0   31.21    2.15
   0   7   0   31.81    2.16
  -1  -7   0    7.65    0.68
  -1  -7   0    7.86    0.70
  -1  -7   0    7.91    0.75
   1   7   0    8.12    0.68
  -2  -7   0   12.45    0.96
  -2  -7   0   11.75    0.92
  -2  -7   0   11.42    0.89
   2   7   0   10.77    0.80
   2   7   0   10.78    0.87
  -3  -7   0    5.77    0.59
  -3  -7   0    4.23    0.52
  -3  -7   0    4.26    0.49
  -4  -7   0    0.56    0.24
  -4  -7   0    0.41    0.22
  -4  -7   0    0.02    0.18
  -5  -7   0    5.90    0.59
  -5  -7   0    6.68    0.57
  -5  -7   0    5.20    0.63
  -6  -7   0    2.27    0.43
  -6  -7   0    2.30    0.37
  -9   8   0    0.31    0.46
  -8   8   0    0.77    0.46
  -8   8   0    0.87    0.45
   7  -8   0    1.33    0.46
  -7   8   0    1.31    0.38
  -7   8   0    0.49    0.42
  -7   8   0    1.26    0.44
   6  -8   0    7.10    0.88
  -6   8   0    8.47    0.91
  -6   8   0    8.81    0.87
  -6   8   0    8.32    0.92
   5  -8   0    0.42    0.32
  -5   8   0    0.77    0.32
  -5   8   0    0.65    0.28
  -5   8   0    0.51    0.32
   4  -8   0   18.95    1.47
  -4   8   0   19.62    1.44
  -4   8   0   17.84    1.38
  -4   8   0   18.67    1.38
  -4   8   0   16.16    1.33
   3  -8   0    0.26    0.22
   3  -8   0    0.57    0.32
  -3   8   0    0.63    0.27
  -3   8   0    0.31    0.21
  -3   8   0    0.63    0.23
  -3   8   0    0.37    0.24
  -3   8   0    0.45    0.27
   2  -8   0   52.71    4.25
   2  -8   0   67.61    4.23
   2  -8   0   69.03    4.32
  -2   8   0   69.62    4.27
  -2   8   0   69.37    4.22
  -2   8   0   67.23    4.10
  -2   8   0   58.48    4.26
   1  -8   0    3.06    0.43
   1  -8   0    3.48    0.50
   1  -8   0    3.57    0.54
  -1   8   0    2.81    0.44
   0  -8   0   87.02    5.25
   0  -8   0   66.93    5.26
   0  -8   0   84.99    5.23
   0   8   0   85.97    5.26
  -1  -8   0    1.27    0.29
  -1  -8   0    1.18    0.30
  -1  -8   0    1.24    0.35
   1   8   0    1.39    0.31
  -2  -8   0   16.34    1.38
  -2  -8   0   20.17    1.36
  -2  -8   0   18.92    1.37
   2   8   0   17.30    1.38
  -3  -8   0    2.22    0.40
  -3  -8   0    2.19    0.37
  -3  -8   0    1.83    0.38
  -4  -8   0    0.18    0.27
  -4  -8   0   -0.11    0.19
  -4  -8   0    0.46    0.28
  -5  -8   0    4.47    0.58
  -5  -8   0    4.16    0.52
  -8   9   0    0.05    0.41
  -8   9   0    0.49    0.44
   7  -9   0    0.95    0.46
  -7   9   0    0.14    0.39
  -7   9   0    0.57    0.42
   6  -9   0   35.16    2.65
  -6   9   0   35.22    2.55
  -6   9   0   38.62    2.67
   5  -9   0    1.95    0.52
  -5   9   0    3.34    0.53
  -5   9   0    2.22    0.47
   4  -9   0   23.89    1.77
  -4   9   0   22.93    1.72
  -4   9   0   21.25    1.63
  -4   9   0   20.82    1.62
   3  -9   0    0.50    0.30
   3  -9   0    0.71    0.37
  -3   9   0    0.55    0.26
  -3   9   0    0.20    0.29
  -3   9   0    0.92    0.36
   2  -9   0   10.88    1.05
   2  -9   0    9.84    0.92
  -2   9   0    8.81    0.85
  -2   9   0   10.34    0.93
  -2   9   0    9.33    0.86
   1  -9   0    0.74    0.31
   1  -9   0    0.30    0.39
  -1   9   0    1.11    0.34
   0  -9   0   16.48    1.34
   0  -9   0   15.06    1.23
   0  -9   0   14.89    1.22
   0   9   0   15.06    1.23
  -1  -9   0    8.97    0.81
  -1  -9   0    8.32    0.81
  -1  -9   0    8.46    0.91
   1   9   0    8.06    0.79
  -2  -9   0    1.29    0.33
  -2  -9   0    0.87    0.29
  -2  -9   0    0.97    0.38
  -3  -9   0    0.51    0.34
  -3  -9   0    0.37    0.25
  -3  -9   0    0.30    0.29
  -4  -9   0   -0.02    0.24
  -4  -9   0   -0.06    0.25
  -4  -9   0    0.06    0.28
  -5  -9   0   -0.17    0.24
  -5  -9   0    0.08    0.29
  -8  10   0    0.76    0.51
  -8  10   0    0.67    0.50
   7 -10   0    8.66    1.13
  -7  10   0   10.59    1.17
  -7  10   0   10.27    1.11
   6 -10   0   19.02    1.62
  -6  10   0   17.62    1.48
  -6  10   0   16.48    1.56
   5 -10   0    0.28    0.40
  -5  10   0    0.19    0.34
  -5  10   0    0.35    0.36
   4 -10   0   20.94    1.77
  -4  10   0   21.95    1.72
  -4  10   0   21.98    1.66
   3 -10   0    0.57    0.40
  -3  10   0    0.75    0.33
  -3  10   0    0.44    0.35
   2 -10   0    8.41    0.86
   2 -10   0    6.59    0.85
  -2  10   0    7.83    0.80
  -2  10   0    8.35    0.86
   1 -10   0   46.64    3.23
   1 -10   0   53.59    3.36
  -1  10   0   43.22    3.09
  -1  10   0   48.92    3.26
   0 -10   0    0.48    0.29
   0 -10   0    0.83    0.40
   0  10   0    0.82    0.31
  -1 -10   0    0.47    0.29
  -1 -10   0    0.56    0.39
  -2 -10   0    0.96    0.43
  -2 -10   0    1.19    0.37
  -3 -10   0    1.79    0.43
  -3 -10   0    1.77    0.47
  -4 -10   0    0.36    0.31
  -4 -10   0   -0.22    0.33
   7 -11   0    1.38    0.58
  -7  11   0    0.32    0.46
  -7  11   0    1.21    0.55
   6 -11   0    2.92    0.67
  -6  11   0    3.98    0.76
  -6  11   0    2.27    0.57
   5 -11   0    2.73    0.67
  -5  11   0    2.03    0.53
  -5  11   0    2.40    0.54
   4 -11   0    5.18    0.82
  -4  11   0    4.83    0.75
  -4  11   0    4.41    0.68
   3 -11   0    0.32    0.41
  -3  11   0    0.28    0.31
  -3  11   0   -0.26    0.33
   2 -11   0    4.18    0.72
  -2  11   0    3.35    0.61
  -2  11   0    3.84    0.57
   1 -11   0    0.51    0.36
   1 -11   0    0.45    0.40
  -1  11   0    0.18    0.26
  -1  11   0    0.18    0.28
   0 -11   0    2.87    0.63
   0 -11   0    2.44    0.50
  -1 -11   0   -0.36    0.33
  -1 -11   0    0.71    0.37
  -2 -11   0    0.11    0.30
  -2 -11   0    0.21    0.43
  -3 -11   0    3.03    0.59
  -3 -11   0    1.99    0.50
   6 -12   0    2.85    0.75
  -6  12   0    2.77    0.71
  -6  12   0    3.06    0.66
   5 -12   0    2.29    0.64
  -5  12   0    2.12    0.56
  -5  12   0    3.06    0.62
   4 -12   0    0.10    0.44
  -4  12   0    0.51    0.40
  -4  12   0   -0.22    0.37
   3 -12   0   36.49    2.60
  -3  12   0   29.83    2.30
  -3  12   0   31.87    2.45
   2 -12   0    0.49    0.52
  -2  12   0    0.35    0.29
  -2  12   0    0.09    0.32
   1 -12   0    0.16    0.45
  -1  12   0    0.39    0.39
   0 -12   0    0.15    0.45
  -1 -12   0   -0.40    0.43
  -1 -12   0   -0.58    0.30
  -2 -12   0    3.83    0.66
  -2 -12   0    3.31    0.70
   5 -13   0    0.48    0.57
  -5  13   0    0.46    0.49
  -5  13   0   -0.14    0.41
   4 -13   0    3.78    0.84
  -4  13   0    2.36    0.57
  -4  13   0    4.07    0.76
   3 -13   0   14.78    1.63
  -3  13   0   13.15    1.24
  -3  13   0   12.77    1.38
   2 -13   0   -0.50    0.50
  -2  13   0   -0.08    0.36
   1 -13   0    2.98    0.76
   0 -13   0    3.00    0.76
   3 -14   1    3.16    0.86
   0 -13   1    0.21    0.48
   1 -13   1    3.64    0.77
  -2  13  -1    0.37    0.42
   2 -13   1    0.72    0.57
  -3  13  -1   14.92    1.28
  -3  13  -1   13.30    1.44
   3 -13   1   17.78    1.73
  -4  13  -1    0.65    0.39
  -4  13  -1    0.92    0.47
   4 -13   1    0.08    0.58
  -5  13  -1    2.07    0.65
  -5  13  -1    0.85    0.47
   5 -13   1    1.62    0.60
  -2 -12   1    0.38    0.50
  -2 -12   1    0.48    0.40
  -1 -12   1   -0.32    0.43
  -1 -12   1    0.17    0.33
   0 -12   1   -0.15    0.42
  -1  12  -1    0.26    0.34
   1 -12   1   -0.31    0.40
  -2  12  -1    1.77    0.50
  -2  12  -1    1.45    0.40
   2 -12   1    1.79    0.66
  -3  12  -1   24.03    1.94
  -3  12  -1   29.12    2.15
   3 -12   1   29.28    2.27
  -4  12  -1   12.25    1.28
  -4  12  -1   12.10    1.15
   4 -12   1   14.66    1.46
  -5  12  -1    0.24    0.37
  -5  12  -1    0.68    0.48
   5 -12   1    0.37    0.50
  -6  12  -1   -0.33    0.39
  -6  12  -1    0.01    0.40
   6 -12   1    0.03    0.49
  -7  12  -1    0.63    0.50
  -7  12  -1    0.98    0.58
   7 -12   1    1.01    0.56
  -3 -11   1    7.72    0.93
  -3 -11   1    6.68    0.82
  -2 -11   1   -0.34    0.39
  -2 -11   1   -0.03    0.30
  -1 -11   1    0.10    0.36
  -1 -11   1    0.33    0.30
   0  11  -1    0.09    0.25
   0 -11   1   -0.07    0.35
   0 -11   1    0.17    0.27
  -1  11  -1    2.10    0.45
  -1  11  -1    2.73    0.42
   1 -11   1    1.85    0.57
  -2  11  -1    2.73    0.48
  -2  11  -1    2.84    0.53
   2 -11   1    3.20    0.64
  -3  11  -1    0.42    0.32
  -3  11  -1   -0.02    0.35
   3 -11   1    0.63    0.46
  -4  11  -1   10.98    1.19
  -4  11  -1   12.23    1.12
   4 -11   1   15.18    1.40
  -5  11  -1    0.53    0.37
  -5  11  -1    0.76    0.40
   5 -11   1    0.53    0.46
  -6  11  -1    0.53    0.43
  -6  11  -1    0.06    0.39
   6 -11   1    0.36    0.50
  -7  11  -1    2.00    0.58
  -7  11  -1    2.97    0.71
   7 -11   1    1.91    0.61
  -4 -10   1    0.11    0.38
  -4 -10   1    0.43    0.34
  -3 -10   1    0.82    0.35
  -3 -10   1    0.42    0.37
  -2 -10   1   15.98    1.39
  -2 -10   1   15.53    1.30
   1  10  -1    2.09    0.43
  -1 -10   1    2.47    0.44
  -1 -10   1    2.29    0.55
   0  10  -1   -0.08    0.19
   0  10  -1   -0.18    0.23
   0 -10   1   -0.09    0.31
   0 -10   1   -0.10    0.24
  -1  10  -1   -0.10    0.22
  -1  10  -1   -0.08    0.26
   1 -10   1   -0.47    0.29
   1 -10   1    0.67    0.33
  -2  10  -1   45.12    2.96
  -2  10  -1   43.87    3.10
   2 -10   1   43.81    3.07
   2 -10   1   47.93    3.22
  -3  10  -1   16.12    1.37
  -3  10  -1   17.72    1.43
   3 -10   1   19.18    1.58
  -4  10  -1    0.99    0.39
  -4  10  -1    1.31    0.41
   4 -10   1    1.23    0.46
  -5  10  -1   -0.05    0.30
  -5  10  -1    0.05    0.33
   5 -10   1    0.01    0.40
  -6  10  -1    6.00    0.79
  -6  10  -1    5.99    0.88
   6 -10   1    4.03    0.74
  -7  10  -1    5.43    0.83
  -7  10  -1    4.68    0.79
   7 -10   1    4.11    0.74
  -8  10  -1    4.75    0.80
  -8  10  -1    3.80    0.72
  -5  -9   1   16.13    1.27
  -5  -9   1   16.06    1.36
  -4  -9   1    0.25    0.23
  -4  -9   1    0.15    0.29
  -4  -9   1    0.54    0.31
  -3  -9   1    0.34    0.29
  -3  -9   1    1.56    0.42
  -3  -9   1    0.49    0.26
  -2  -9   1    1.86    0.36
  -2  -9   1    1.44    0.41
  -2  -9   1    2.61    0.44
   1   9  -1    0.12    0.18
  -1  -9   1   -0.16    0.17
  -1  -9   1   -0.14    0.25
  -1  -9   1   -0.21    0.22
   0   9  -1    4.22    0.44
   0   9  -1    4.47    0.58
   0  -9   1    2.94    0.60
   0  -9   1    3.29    0.48
   0  -9   1    3.44    0.50
  -1   9  -1   72.92    4.78
  -1   9  -1   76.25    4.57
   1  -9   1   71.37    4.85
   1  -9   1   70.80    4.74
  -2   9  -1   21.18    1.41
  -2   9  -1   15.72    1.45
   2  -9   1   17.85    1.56
   2  -9   1   22.03    1.49
  -3   9  -1   11.13    0.97
  -3   9  -1   11.65    1.01
  -3   9  -1   11.95    1.05
   3  -9   1   12.95    1.16
   3  -9   1   12.31    1.08
  -4   9  -1    0.63    0.34
  -4   9  -1    1.30    0.39
   4  -9   1    0.57    0.37
  -5   9  -1    3.95    0.62
  -5   9  -1    4.84    0.67
   5  -9   1    4.98    0.70
  -6   9  -1   12.04    1.14
  -6   9  -1   11.59    1.13
   6  -9   1   11.65    1.18
  -7   9  -1   -0.01    0.37
  -7   9  -1    0.21    0.32
   7  -9   1    0.14    0.36
  -8   9  -1    3.54    0.76
  -8   9  -1    3.07    0.66
  -6  -8   1    1.59    0.37
  -6  -8   1    1.97    0.47
  -5  -8   1    1.18    0.32
  -5  -8   1    0.81    0.28
  -5  -8   1    0.17    0.30
  -4  -8   1    1.21    0.34
  -4  -8   1    1.67    0.36
  -4  -8   1    1.81    0.34
  -3  -8   1    0.23    0.21
  -3  -8   1    0.41    0.27
  -3  -8   1    0.12    0.29
   2   8  -1    0.80    0.24
  -2  -8   1    0.39    0.21
  -2  -8   1    0.58    0.31
  -2  -8   1    0.27    0.24
   1   8  -1   12.02    0.99
  -1  -8   1   12.07    1.06
  -1  -8   1   12.08    0.97
  -1  -8   1   12.57    1.00
   0   8  -1    6.73    0.67
   0  -8   1    6.97    0.78
   0  -8   1    7.73    0.70
   0  -8   1    6.04    0.65
  -1   8  -1    9.90    0.79
  -1   8  -1   10.16    0.88
   1  -8   1   10.90    0.99
   1  -8   1   10.98    0.89
   1  -8   1   10.13    0.87
  -2   8  -1    0.06    0.17
  -2   8  -1   -0.05    0.19
  -2   8  -1   -0.28    0.17
   2  -8   1    0.15    0.16
   2  -8   1   -0.29    0.24
   2  -8   1    0.10    0.19
  -3   8  -1    7.85    0.74
  -3   8  -1    6.01    0.67
  -3   8  -1    7.38    0.75
  -3   8  -1    6.63    0.69
  -3   8  -1    7.39    0.67
   3  -8   1    9.33    0.74
   3  -8   1    7.21    0.82
  -4   8  -1    1.13    0.27
  -4   8  -1    1.39    0.34
  -4   8  -1    0.99    0.30
  -4   8  -1    0.70    0.34
   4  -8   1    0.96    0.36
  -5   8  -1   -0.21    0.18
  -5   8  -1    0.03    0.22
  -5   8  -1   -0.08    0.27
   5  -8   1   -0.17    0.27
  -6   8  -1   11.86    1.01
  -6   8  -1   11.53    1.05
  -6   8  -1    9.04    0.99
   6  -8   1    9.34    1.03
  -7   8  -1   14.74    1.39
  -7   8  -1   16.22    1.34
  -7   8  -1   17.15    1.40
   7  -8   1   16.33    1.41
  -8   8  -1    2.73    0.59
  -8   8  -1    2.96    0.55
  -8   8  -1    4.88    0.71
  -9   8  -1    0.22    0.36
  -6  -7   1    0.43    0.30
  -6  -7   1    0.76    0.28
  -5  -7   1    0.04    0.24
  -5  -7   1    0.10    0.19
  -5  -7   1    0.03    0.24
  -4  -7   1    2.09    0.39
  -4  -7   1    1.90    0.32
  -4  -7   1    1.97    0.38
  -3  -7   1    7.28    0.70
  -3  -7   1    7.31    0.73
  -3  -7   1    6.69    0.64
   2   7  -1    4.85    0.52
   2   7  -1    5.13    0.40
  -2  -7   1    4.50    0.55
  -2  -7   1    5.80    0.63
  -2  -7   1    5.96    0.53
   1   7  -1    2.08    0.35
  -1  -7   1    3.19    0.40
  -1  -7   1    2.85    0.43
  -1  -7   1    2.32    0.38
   0   7  -1    3.29    0.42
   0  -7   1    2.08    0.34
   0  -7   1    2.76    0.43
   0  -7   1    1.99    0.32
  -1   7  -1   14.45    1.01
  -1   7  -1   12.53    1.04
  -1   7  -1   11.85    1.05
   1  -7   1   15.84    1.17
   1  -7   1   17.12    1.09
  -2   7  -1    2.37    0.35
  -2   7  -1    2.35    0.36
  -2   7  -1    3.66    0.46
   2  -7   1    3.35    0.45
   2  -7   1    3.33    0.50
   2  -7   1    3.01    0.37
  -3   7  -1   22.93    1.57
  -3   7  -1   21.88    1.55
  -3   7  -1   23.01    1.60
  -3   7  -1   21.74    1.57
  -3   7  -1   22.19    1.60
   3  -7   1   22.43    1.65
   3  -7   1   21.39    1.56
  -4   7  -1    2.10    0.38
  -4   7  -1    2.45    0.42
  -4   7  -1    2.52    0.35
  -4   7  -1    1.81    0.40
   4  -7   1    1.60    0.32
   4  -7   1    2.27    0.42
  -5   7  -1    2.45    0.39
  -5   7  -1    2.99    0.49
  -5   7  -1    2.05    0.38
  -5   7  -1    2.55    0.47
   5  -7   1    1.69    0.39
  -6   7  -1   31.63    2.36
  -6   7  -1   33.97    2.40
  -6   7  -1   34.90    2.37
   6  -7   1   34.48    2.41
  -7   7  -1    7.95    0.85
  -7   7  -1    6.92    0.78
  -7   7  -1    7.27    0.89
  -8   7  -1    2.63    0.50
  -8   7  -1    1.85    0.57
  -8   7  -1    1.70    0.48
  -9   7  -1    1.12    0.43
  -9   7  -1    0.66    0.52
   7   6  -1    4.04    0.56
  -7  -6   1    4.05    0.51
  -7  -6   1    4.24    0.56
  -6  -6   1    0.42    0.21
  -6  -6   1    0.23    0.26
  -5  -6   1    0.18    0.22
  -5  -6   1    0.25    0.23
  -5  -6   1    0.10    0.18
  -4  -6   1   17.89    1.31
  -4  -6   1   17.71    1.28
  -4  -6   1   18.51    1.32
   3   6  -1   18.70    1.29
   3   6  -1   17.62    1.17
  -3  -6   1   19.51    1.32
  -3  -6   1   18.19    1.28
  -3  -6   1   16.84    1.32
   2   6  -1    0.19    0.10
   2   6  -1    0.08    0.14
  -2  -6   1    0.13    0.13
  -2  -6   1    0.58    0.23
  -2  -6   1    0.22    0.16
  -2  -6   1    0.16    0.14
   1   6  -1    0.53    0.18
  -1  -6   1    0.57    0.23
  -1  -6   1    0.62    0.19
  -1  -6   1    0.59    0.20
   0   6  -1   93.94    6.86
   0  -6   1  111.90    6.84
   0  -6   1  122.85    6.85
   0  -6   1  104.38    6.90
  -1   6  -1    7.44    0.59
  -1   6  -1    6.11    0.55
  -1   6  -1    6.89    0.61
   1  -6   1    7.44    0.67
   1  -6   1    6.80    0.59
  -2   6  -1  121.40    7.31
  -2   6  -1  118.28    7.56
  -2   6  -1  121.11    7.52
  -2   6  -1  123.74    7.52
   2  -6   1  116.52    7.50
   2  -6   1  109.37    7.59
   2  -6   1  123.09    7.53
  -3   6  -1   32.51    1.99
  -3   6  -1   29.15    1.92
  -3   6  -1   29.45    1.98
  -3   6  -1   30.32    1.97
   3  -6   1   29.12    2.02
   3  -6   1   23.58    1.92
  -4   6  -1   33.73    2.27
  -4   6  -1   34.72    2.28
  -4   6  -1   35.24    2.26
  -4   6  -1   35.87    2.32
  -4   6  -1   34.03    2.31
   4  -6   1   29.79    2.30
  -5   6  -1    6.26    0.63
  -5   6  -1    6.61    0.67
  -5   6  -1    5.43    0.59
  -5   6  -1    6.07    0.64
   5  -6   1    5.06    0.62
  -6   6  -1  116.47    7.09
  -6   6  -1  116.94    7.22
  -6   6  -1  102.45    7.23
  -6   6  -1  115.07    7.19
   6  -6   1  113.55    7.26
  -7   6  -1    0.29    0.39
  -7   6  -1    1.01    0.35
  -7   6  -1    1.06    0.35
   7  -6   1    0.99    0.33
   7  -6   1    0.86    0.35
  -8   6  -1   -0.10    0.27
  -8   6  -1   -0.17    0.28
  -8   6  -1    0.70    0.46
   8  -6   1   -0.10    0.33
   8  -6   1   -0.14    0.27
  -9   6  -1    0.58    0.35
  -9   6  -1    0.41    0.44
   9  -6   1    0.30    0.34
   7   5  -1   -0.19    0.23
  -7  -5   1    0.27    0.23
  -7  -5   1    0.10    0.27
  -6  -5   1    7.48    0.63
  -6  -5   1    7.96    0.67
  -6  -5   1    6.38    0.71
  -5  -5   1   34.15    2.31
  -5  -5   1   35.82    2.34
  -5  -5   1   35.54    2.37
   4   5  -1    1.92    0.28
   4   5  -1    2.04    0.29
  -4  -5   1    1.45    0.25
  -4  -5   1    2.17    0.34
  -4  -5   1    1.75    0.31
   3   5  -1   20.29    1.29
   3   5  -1   21.06    1.39
  -3  -5   1   21.18    1.41
  -3  -5   1   19.72    1.37
  -3  -5   1   19.33    1.43
  -3  -5   1   19.73    1.38
   2   5  -1   12.71    1.00
   2   5  -1   14.45    0.91
  -2  -5   1   13.59    1.05
  -2  -5   1   14.78    1.00
  -2  -5   1   14.96    1.03
  -2  -5   1   14.78    1.01
   1   5  -1  291.12   17.71
  -1  -5   1  292.39   17.61
  -1  -5   1  287.26   17.74
  -1  -5   1  263.89   17.69
  -1  -5   1  281.89   17.60
   0   5  -1    0.37    0.15
   0   5  -1    0.34    0.14
   0  -5   1    0.26    0.12
   0  -5   1    0.29    0.15
   0  -5   1    0.32    0.18
  -1   5  -1   90.68    5.50
  -1   5  -1   95.19    5.73
  -1   5  -1   92.69    5.67
   1  -5   1   91.44    5.67
   1  -5   1   91.48    5.75
   1  -5   1   78.03    5.66
  -2   5  -1   43.72    3.07
  -2   5  -1   50.92    3.00
  -2   5  -1   40.82    3.06
  -2   5  -1   49.67    3.12
  -2   5  -1   48.44    3.10
   2  -5   1   55.10    3.11
   2  -5   1   42.04    3.12
   2  -5   1   50.76    3.07
  -3   5  -1    6.52    0.56
  -3   5  -1    6.71    0.58
  -3   5  -1    6.64    0.58
  -3   5  -1    6.31    0.54
  -3   5  -1    6.47    0.58
   3  -5   1    6.36    0.55
   3  -5   1    6.21    0.61
  -4   5  -1   10.55    0.77
  -4   5  -1    8.97    0.81
  -4   5  -1   11.36    0.81
  -4   5  -1    9.81    0.82
  -4   5  -1    9.45    0.81
   4  -5   1   10.75    0.85
  -5   5  -1    0.99    0.32
  -5   5  -1    0.99    0.25
  -5   5  -1    0.50    0.21
  -5   5  -1    0.96    0.24
   5  -5   1    0.82    0.25
   5  -5   1    0.80    0.23
   5  -5   1    0.98    0.26
  -6   5  -1   48.04    3.09
  -6   5  -1   44.78    3.09
  -6   5  -1   41.33    3.08
  -6   5  -1   47.90    3.08
   6  -5   1   47.27    3.11
   6  -5   1   46.10    3.21
   6  -5   1   49.05    3.13
  -7   5  -1    3.24    0.49
  -7   5  -1    2.65    0.54
  -7   5  -1    3.17    0.47
  -7   5  -1    2.77    0.46
   7  -5   1    3.34    0.47
   7  -5   1    3.58    0.54
  -8   5  -1    1.37    0.36
  -8   5  -1    0.78    0.47
  -8   5  -1    1.78    0.42
   8  -5   1    0.57    0.37
   8  -5   1    1.11    0.34
  -9   5  -1    5.92    0.86
  -9   5  -1    5.71    0.68
   9  -5   1    3.69    0.65
   8   4  -1    0.51    0.26
  -8  -4   1    0.74    0.27
  -8  -4   1    0.28    0.29
   7   4  -1    4.09    0.52
  -7  -4   1    5.07    0.58
  -7  -4   1    4.26    0.49
   6   4  -1    4.63    0.51
  -6  -4   1    4.44    0.48
  -6  -4   1    5.09    0.49
  -6  -4   1    4.02    0.51
  -6  -4   1    4.04    0.55
  -5  -4   1    6.77    0.60
  -5  -4   1    6.24    0.56
  -5  -4   1    5.63    0.59
  -5  -4   1    5.81    0.59
   4   4  -1   19.59    1.30
   4   4  -1   18.71    1.33
  -4  -4   1   20.10    1.37
  -4  -4   1   21.17    1.32
  -4  -4   1   19.25    1.33
  -4  -4   1   19.66    1.37
   3   4  -1  396.05   23.97
   3   4  -1  414.72   24.79
  -3  -4   1  376.14   24.79
  -3  -4   1  402.17   24.66
  -3  -4   1  361.99   24.67
  -3  -4   1  436.76   24.83
   2   4  -1    7.18    0.59
   2   4  -1    8.07    0.54
  -2  -4   1    8.58    0.62
  -2  -4   1    9.19    0.66
  -2  -4   1    7.87    0.59
  -2  -4   1    7.56    0.59
   1   4  -1    6.98    0.53
  -1  -4   1    5.88    0.51
  -1  -4   1    6.83    0.53
  -1  -4   1    6.97    0.58
  -1  -4   1    6.54    0.52
   0   4  -1  190.63   11.60
   0   4  -1  173.57   11.67
   0  -4   1  189.11   11.70
   0  -4   1  203.28   11.61
   0  -4   1  175.90   11.61
  -1   4  -1  138.76    8.16
  -1   4  -1  156.93    8.48
  -1   4  -1  124.64    8.40
  -1   4  -1  112.49    8.39
   1  -4   1  148.93    8.49
   1  -4   1  139.13    8.40
   1  -4   1  122.33    8.40
  -2   4  -1    0.15    0.12
  -2   4  -1    0.16    0.11
  -2   4  -1    0.35    0.14
  -2   4  -1    0.12    0.10
  -2   4  -1    0.09    0.09
   2  -4   1    0.26    0.12
   2  -4   1    0.02    0.13
  -3   4  -1  410.15   26.30
  -3   4  -1  400.14   26.57
  -3   4  -1  448.41   26.17
  -3   4  -1  432.13   26.15
  -3   4  -1  406.94   25.47
   3  -4   1  433.40   26.32
  -4   4  -1    0.49    0.20
  -4   4  -1    2.04    0.27
  -4   4  -1    0.84    0.21
  -4   4  -1    0.94    0.21
  -4   4  -1    0.78    0.16
   4  -4   1    1.30    0.24
   4  -4   1    1.09    0.20
   4  -4   1    0.91    0.21
  -5   4  -1   25.06    1.89
  -5   4  -1   29.12    1.88
  -5   4  -1   29.89    1.90
  -5   4  -1   27.00    1.90
   5  -4   1   29.53    1.91
   5  -4   1   25.41    1.95
   5  -4   1   28.81    1.91
  -6   4  -1    0.82    0.25
  -6   4  -1    0.90    0.25
  -6   4  -1    0.77    0.25
  -6   4  -1    0.61    0.33
   6  -4   1    0.72    0.27
   6  -4   1    0.53    0.23
   6  -4   1    0.82    0.27
  -7   4  -1   11.36    0.95
  -7   4  -1   11.23    1.09
  -7   4  -1   11.68    0.96
  -7   4  -1   12.02    0.98
   7  -4   1   12.21    0.98
   7  -4   1   11.23    1.02
  -8   4  -1    2.36    0.53
  -8   4  -1    1.60    0.36
  -8   4  -1    2.26    0.38
   8  -4   1    1.55    0.35
  -9   4  -1    1.02    0.50
  -9   4  -1    1.90    0.39
   9  -4   1    1.15    0.44
   8   3  -1    0.05    0.24
  -8  -3   1   -0.30    0.24
  -8  -3   1    0.33    0.22
   7   3  -1    1.19    0.29
  -7  -3   1    1.23    0.27
  -7  -3   1    1.23    0.34
   6   3  -1    6.79    0.64
  -6  -3   1    5.89    0.61
  -6  -3   1    7.49    0.68
  -6  -3   1    7.88    0.72
  -6  -3   1    8.29    0.63
  -5  -3   1    0.87    0.22
  -5  -3   1    0.23    0.19
  -5  -3   1    0.75    0.18
  -5  -3   1    0.37    0.23
  -5  -3   1    0.70    0.19
   4   3  -1   64.21    4.11
   4   3  -1   66.12    4.01
  -4  -3   1   62.25    4.12
  -4  -3   1   63.58    4.11
  -4  -3   1   64.77    4.00
  -4  -3   1   67.21    4.09
   3   3  -1  182.97   10.85
   3   3  -1  184.67   11.22
  -3  -3   1  189.66   11.23
  -3  -3   1  185.40   11.17
  -3  -3   1  154.89   11.20
  -3  -3   1  181.13   11.15
  -3  -3   1  176.94   10.85
   2   3  -1   86.82    5.31
   2   3  -1   89.98    5.52
  -2  -3   1   91.13    5.54
  -2  -3   1   87.88    5.52
  -2  -3   1   82.71    5.48
   1   3  -1   71.28    4.40
   1   3  -1   72.62    4.60
  -1  -3   1   68.25    4.59
  -1  -3   1   72.57    4.62
  -1  -3   1   79.03    4.59
  -1  -3   1   73.83    4.57
   0   3  -1  252.12   18.25
   0   3  -1  271.00   18.15
   0   3  -1  299.89   18.16
   0   3  -1  287.71   17.63
   0  -3   1  330.02   18.17
   0  -3   1  293.01   18.26
   0  -3   1  302.37   18.28
   0  -3   1  307.69   18.16
  -1   3  -1    2.44    0.24
  -1   3  -1    2.24    0.26
  -1   3  -1    2.90    0.28
  -1   3  -1    3.56    0.28
   1  -3   1    2.52    0.26
   1  -3   1    2.65    0.26
   1  -3   1    2.20    0.24
   1  -3   1    2.64    0.30
  -2   3  -1   26.11    1.67
  -2   3  -1   24.03    1.69
  -2   3  -1   26.50    1.66
  -2   3  -1   26.04    1.63
  -2   3  -1   25.27    1.65
  -2   3  -1   25.12    1.68
   2  -3   1   27.15    1.65
   2  -3   1   26.42    1.63
   2  -3   1   20.87    1.67
  -3   3  -1    0.64    0.17
  -3   3  -1    0.48    0.14
  -3   3  -1    0.14    0.18
  -3   3  -1    0.50    0.11
  -3   3  -1    0.66    0.16
   3  -3   1    0.58    0.15
   3  -3   1    0.71    0.14
   3  -3   1    0.54    0.17
   3  -3   1    0.27    0.16
  -4   3  -1    0.58    0.17
  -4   3  -1    0.47    0.13
  -4   3  -1    0.79    0.18
  -4   3  -1    0.35    0.20
  -4   3  -1    0.72    0.18
   4  -3   1    0.26    0.14
   4  -3   1    0.49    0.15
   4  -3   1    0.61    0.15
  -5   3  -1   15.21    1.12
  -5   3  -1   16.68    1.20
  -5   3  -1   13.69    1.10
  -5   3  -1   16.53    1.13
  -5   3  -1   17.00    1.15
   5  -3   1   16.70    1.17
   5  -3   1   15.86    1.12
   5  -3   1   15.05    1.12
  -6   3  -1    2.14    0.35
  -6   3  -1    3.24    0.50
  -6   3  -1    3.42    0.42
  -6   3  -1    3.49    0.41
   6  -3   1    3.15    0.41
   6  -3   1    3.55    0.44
   6  -3   1    3.18    0.39
  -7   3  -1   18.30    1.39
  -7   3  -1   18.51    1.52
  -7   3  -1   19.39    1.40
  -7   3  -1   20.05    1.42
   7  -3   1   21.43    1.43
   7  -3   1   18.94    1.48
   8  -3   1    7.13    0.71
  -9   3  -1   13.13    0.99
  -9   3  -1   11.53    1.02
  -9   3  -1   12.12    1.21
   9  -3   1   10.80    1.11
   8   2  -1    6.69    0.71
  -8  -2   1    6.73    0.65
  -8  -2   1    6.45    0.73
   7   2  -1    1.03    0.27
  -7  -2   1    1.51    0.32
  -7  -2   1    1.26    0.25
  -7  -2   1    0.56    0.31
  -7  -2   1    1.22    0.26
   6   2  -1    0.00    0.16
  -6  -2   1   -0.24    0.16
  -6  -2   1   -0.09    0.23
  -6  -2   1   -0.02    0.15
  -6  -2   1   -0.30    0.18
   5   2  -1   18.11    1.26
   5   2  -1   18.33    1.29
  -5  -2   1   18.90    1.26
  -5  -2   1   18.62    1.26
  -5  -2   1   19.35    1.28
  -5  -2   1   18.14    1.29
   4   2  -1   62.64    3.83
   4   2  -1   61.93    3.91
  -4  -2   1   63.38    3.93
  -4  -2   1   59.01    3.82
  -4  -2   1   60.90    3.89
   3   2  -1   47.20    3.09
   3   2  -1   50.56    3.01
  -3  -2   1   46.78    3.07
  -3  -2   1   49.14    3.11
  -3  -2   1   48.53    3.09
  -3  -2   1   49.11    3.08
  -3  -2   1   49.17    3.01
   2   2  -1   27.62    1.81
   2   2  -1   28.92    1.74
  -2  -2   1   28.25    1.80
  -2  -2   1   27.23    1.81
  -2  -2   1   28.81    1.74
  -2  -2   1   28.16    1.83
   1   2  -1   12.13    0.77
   1   2  -1   10.10    0.78
  -1  -2   1   12.00    0.80
  -1  -2   1   11.82    0.77
  -1  -2   1   12.07    0.78
  -1  -2   1   11.77    0.78
   0   2  -1  171.00   10.64
   0   2  -1  173.82   10.71
   0   2  -1  182.15   10.71
   0   2  -1  177.87   10.33
   0   2  -1  164.76   10.64
   0  -2   1  146.64   10.70
   0  -2   1  174.88   10.72
   0  -2   1  174.14   10.64
   0  -2   1  179.49   10.33
  -1   2  -1  376.22   24.47
  -1   2  -1  412.85   23.82
   1  -2   1  417.18   24.62
   1  -2   1  388.44   23.81
   1  -2   1  383.17   24.61
  -2   2  -1  165.48   10.00
  -2   2  -1  161.51    9.69
  -2   2  -1  155.86   10.27
  -2   2  -1  161.54    9.92
  -2   2  -1  160.28   10.08
  -2   2  -1  169.96    9.93
   2  -2   1  152.48   10.29
   2  -2   1  151.41    9.69
   2  -2   1  153.67   10.00
   2  -2   1  166.54   10.09
  -3   2  -1  138.44    8.94
  -3   2  -1  143.98    8.77
  -3   2  -1  137.82    9.01
  -3   2  -1  157.30    8.96
  -3   2  -1  137.76    9.00
   3  -2   1  131.85    9.27
   3  -2   1  151.01    9.01
   3  -2   1  150.57    8.78
   3  -2   1  145.87    9.09
  -4   2  -1   56.02    3.60
  -4   2  -1   62.99    3.64
  -4   2  -1   59.13    3.59
  -4   2  -1   52.07    3.61
  -4   2  -1   53.95    3.58
   4  -2   1   59.94    3.62
   4  -2   1   51.62    3.64
   4  -2   1   58.54    3.71
  -5   2  -1    5.55    0.46
  -5   2  -1    5.71    0.48
  -5   2  -1    5.27    0.47
  -5   2  -1    4.90    0.46
  -5   2  -1    5.96    0.60
   5  -2   1    5.03    0.46
   5  -2   1    4.25    0.45
   5  -2   1    5.46    0.46
  -6   2  -1    2.48    0.43
  -6   2  -1    2.72    0.35
  -6   2  -1    2.46    0.34
  -6   2  -1    3.59    0.39
   6  -2   1    2.78    0.37
   6  -2   1    2.04    0.34
   6  -2   1    2.56    0.35
  -7   2  -1   27.83    2.05
  -7   2  -1   30.44    2.07
  -7   2  -1   34.20    2.22
   7  -2   1   32.86    2.12
   7  -2   1   30.24    2.15
  -8   2  -1   13.73    1.00
  -8   2  -1   11.74    1.01
   8  -2   1   11.60    1.03
   8  -2   1   16.45    1.13
  -9   2  -1    2.53    0.42
  -9   2  -1    1.58    0.56
   9  -2   1    2.63    0.48
   9   1  -1    1.91    0.43
  -9  -1   1    1.42    0.36
  -9  -1   1    1.27    0.39
   8   1  -1    6.54    0.70
  -8  -1   1    6.31    0.65
  -8  -1   1    5.89    0.75
  -8  -1   1    6.70    0.59
   7   1  -1    0.43    0.23
  -7  -1   1    0.61    0.33
  -7  -1   1    0.62    0.23
  -7  -1   1    0.91    0.24
   6   1  -1    0.45    0.18
  -6  -1   1    0.16    0.26
  -6  -1   1    0.62    0.18
  -6  -1   1    0.45    0.19
   5   1  -1   79.29    5.11
   5   1  -1   74.90    4.96
  -5  -1   1   82.36    4.88
  -5  -1   1   76.95    4.93
   4   1  -1   19.56    1.54
   4   1  -1   24.72    1.52
   4   1  -1   22.60    1.52
  -4  -1   1   23.16    1.51
  -4  -1   1   24.94    1.54
  -4  -1   1   23.75    1.53
  -4  -1   1   22.88    1.50
   3   1  -1    5.53    0.42
   3   1  -1    5.70    0.43
   3   1  -1    5.89    0.41
  -3  -1   1    5.20    0.42
  -3  -1   1    4.33    0.42
  -3  -1   1    5.22    0.43
  -3  -1   1    5.60    0.41
   2   1  -1    2.28    0.21
  -2  -1   1    1.85    0.20
  -2  -1   1    2.32    0.23
  -2  -1   1    2.11    0.20
  -2  -1   1    1.38    0.18
   0   1  -1   92.95    6.02
   0   1  -1   95.76    5.81
   0   1  -1  100.90    6.02
   0   1  -1   95.51    6.20
   0   1  -1  100.38    5.98
   0  -1   1   94.76    5.81
   0  -1   1   93.01    6.02
   0  -1   1   98.69    5.98
   0  -1   1   95.52    6.01
  -1   1  -1   14.77    0.93
  -1   1  -1   14.58    0.91
  -1   1  -1   14.49    0.91
  -1   1  -1   12.72    0.92
  -1   1  -1   14.36    0.91
   1  -1   1   13.83    0.93
   1  -1   1   16.36    0.91
   1  -1   1   13.78    0.91
   1  -1   1   13.55    0.93
   1  -1   1   15.38    0.92
   1  -1   1   12.68    0.92
   1  -1   1   14.45    0.93
   2  -1   1  680.85   40.97
  -3   1  -1   96.13    5.61
  -3   1  -1   80.73    5.59
  -3   1  -1   91.26    5.63
   3  -1   1   93.64    5.68
   3  -1   1   86.68    5.52
   3  -1   1   90.50    5.63
  -4   1  -1   41.74    2.61
  -4   1  -1   42.88    2.59
  -4   1  -1   43.05    2.58
  -4   1  -1   35.99    2.56
   4  -1   1   36.54    2.63
   4  -1   1   41.29    2.58
   4  -1   1   42.74    2.60
  -5   1  -1   10.00    0.70
  -5   1  -1    9.51    0.70
  -5   1  -1   10.36    0.70
  -5   1  -1    8.48    0.68
  -5   1  -1   10.57    0.83
   5  -1   1    8.89    0.68
   5  -1   1    9.87    0.70
   5  -1   1    9.31    0.70
  -6   1  -1   -0.09    0.15
  -6   1  -1   -0.09    0.15
  -6   1  -1    0.48    0.29
  -6   1  -1   -0.28    0.14
   6  -1   1    0.11    0.17
   6  -1   1   -0.29    0.14
  -7   1  -1    5.26    0.52
  -7   1  -1    5.19    0.48
  -7   1  -1    6.51    0.75
   7  -1   1    5.44    0.55
   7  -1   1    5.79    0.57
  -8   1  -1   16.38    1.36
  -8   1  -1   14.97    1.12
   8  -1   1   14.98    1.16
   8  -1   1   14.39    1.19
  -9   1  -1    1.30    0.28
  -9   1  -1    1.12    0.48
   9  -1   1    0.88    0.34
   9   0  -1    6.10    0.76
  -9   0   1    5.21    0.63
  -9   0   1    5.89    0.80
   8   0  -1    2.58    0.45
   8   0  -1    3.34    0.45
  -8   0   1    4.07    0.62
  -8   0   1    3.47    0.43
  -8   0   1    3.10    0.44
   7   0  -1   35.90    2.22
   7   0  -1   29.78    2.25
  -7   0   1   35.11    2.19
  -7   0   1   29.98    2.16
  -7   0   1   30.68    2.23
   6   0  -1  133.20    8.08
   6   0  -1  120.68    7.97
   6   0  -1  130.98    8.23
  -6   0   1  127.29    7.92
  -6   0   1  120.77    7.82
  -6   0   1  124.57    7.99
   5   0  -1   36.65    2.40
   5   0  -1   34.23    2.33
  -5   0   1   31.40    2.32
  -5   0   1   36.63    2.31
  -5   0   1   35.91    2.34
  -5   0   1   38.59    2.34
   4   0  -1  191.57   11.55
   4   0  -1  187.49   12.24
   4   0  -1  193.38   11.88
  -4   0   1  188.66   11.88
  -4   0   1  190.88   11.89
  -4   0   1  191.15   11.54
  -4   0   1  186.56   11.80
   3   0  -1  125.68    7.74
   3   0  -1  122.44    7.97
   3   0  -1  127.86    8.21
  -3   0   1  123.76    7.91
  -3   0   1  134.86    7.98
  -3   0   1  130.89    7.97
  -3   0   1  125.24    7.74
   2   0  -1  445.77   26.83
   2   0  -1  424.69   27.66
  -2   0   1  444.00   26.83
  -2   0   1  419.45   26.67
  -2   0   1  413.84   25.97
  -2   0   1  440.09   26.83
   1   0  -1    9.57    0.61
   1   0  -1    8.66    0.63
   1   0  -1    8.48    0.61
   1   0  -1    8.53    0.62
  -1   0   1    8.95    0.62
  -1   0   1    9.46    0.62
  -1   0   1    9.81    0.63
  -1   0   1    9.28    0.61
   0   0  -1   13.27    0.86
   0   0  -1   13.76    0.87
   0   0  -1   13.29    0.86
   0   0  -1   13.04    0.88
   0   0   1   14.44    0.89
   0   0   1   13.08    0.86
   0   0   1   13.44    0.86
   0   0   1   13.59    0.86
   0   0   1   13.40    0.85
   0   0   1   12.28    0.87
  -1   0  -1   24.42    1.56
   1   0   1   25.74    1.56
  -2   0  -1  203.35   12.48
   2   0   1  217.26   12.48
   2   0   1  198.75   12.82
  -3   0  -1    7.28    0.52
  -3   0  -1    8.06    0.62
  -3   0  -1    8.50    0.54
  -3   0  -1    7.04    0.53
  -3   0  -1    8.94    0.54
   3   0   1    7.92    0.53
   3   0   1    8.60    0.62
  -4   0  -1   20.36    1.26
  -4   0  -1   17.94    1.25
  -4   0  -1   17.55    1.24
  -4   0  -1   19.67    1.34
  -4   0  -1   21.20    1.26
   4   0   1   19.68    1.25
  -5   0  -1   59.65    3.72
  -5   0  -1   56.80    3.67
  -5   0  -1   63.10    3.68
  -5   0  -1   55.13    3.66
   5   0   1   56.94    3.67
  -6   0  -1    4.15    0.44
  -6   0  -1    7.19    0.71
   6   0   1    4.68    0.44
  -7   0  -1   13.12    1.03
  -7   0  -1   16.20    1.26
   7   0   1   13.84    1.07
   7   0   1   16.21    1.07
  -8   0  -1   13.27    1.03
  -8   0  -1   15.61    1.27
   8   0   1   14.21    1.11
  -9   0  -1    0.15    0.41
  -9   0  -1   -0.12    0.19
   9   0   1    0.21    0.27
   9  -1  -1    2.85    0.52
  -9   1   1    3.01    0.63
  -9   1   1    2.32    0.44
   8  -1  -1    5.06    0.60
   8  -1  -1    4.63    0.56
  -8   1   1    4.03    0.52
  -8   1   1    4.05    0.53
  -8   1   1    3.96    0.64
   7  -1  -1    9.18    0.83
   7  -1  -1   10.07    0.89
  -7   1   1   10.10    0.84
  -7   1   1    9.83    0.82
  -7   1   1   10.47    0.95
   6  -1  -1  240.19   16.06
   6  -1  -1  261.91   15.75
   6  -1  -1  237.19   15.56
  -6   1   1  255.01   15.58
  -6   1   1  247.76   15.47
  -6   1   1  248.58   15.16
   5  -1  -1   11.15    0.83
   5  -1  -1   11.85    0.85
   5  -1  -1   11.52    0.83
  -5   1   1   11.17    0.83
  -5   1   1   10.79    0.82
  -5   1   1   10.72    0.85
  -5   1   1    9.37    0.79
   4  -1  -1    9.00    0.65
   4  -1  -1    8.58    0.67
   4  -1  -1    8.81    0.67
  -4   1   1    8.38    0.67
  -4   1   1    8.47    0.66
  -4   1   1    8.18    0.65
  -4   1   1    8.77    0.64
   3  -1  -1   29.86    1.86
   3  -1  -1   23.42    1.89
   3  -1  -1   28.16    1.84
  -3   1   1   28.62    1.82
  -3   1   1   28.90    1.85
  -3   1   1   30.28    1.82
  -3   1   1   27.93    1.85
   2  -1  -1   59.32    3.67
   2  -1  -1   59.20    3.70
   2  -1  -1   54.68    3.81
   2  -1  -1   59.58    3.74
  -2   1   1   62.04    3.68
  -2   1   1   53.21    3.59
  -2   1   1   58.03    3.73
  -2   1   1   58.81    3.70
  -2   1   1   61.57    3.80
  -1   1   1  201.07   12.46
   0  -1  -1    7.72    0.47
   0  -1  -1    6.96    0.47
   0  -1  -1    6.63    0.47
   0   1   1    7.94    0.48
   0   1   1    6.27    0.47
   0   1   1    6.86    0.46
  -1  -1  -1  417.29   24.46
   1   1   1  395.41   24.46
  -2  -1  -1  234.36   14.25
   2   1   1  236.98   14.25
  -3  -1  -1    9.78    0.68
  -3  -1  -1   11.03    0.77
   3   1   1   12.33    0.79
  -4  -1  -1    1.64    0.17
  -4  -1  -1    1.99    0.30
  -5  -1  -1   28.65    1.85
  -5  -1  -1   26.01    1.73
  -6  -1  -1  143.48    8.40
  -6  -1  -1  133.92    8.44
   6   1   1  130.56    8.73
  -7  -1  -1    0.15    0.33
  -7  -1  -1    0.04    0.16
   7   1   1    0.30    0.17
  -8  -1  -1    3.03    0.60
  -8  -1  -1    2.38    0.33
   8   1   1    2.70    0.38
   9  -2  -1   -0.01    0.31
  -9   2   1    0.01    0.28
  -9   2   1   -0.46    0.34
   8  -2  -1    1.69    0.39
   8  -2  -1    1.60    0.37
  -8   2   1    2.33    0.51
  -8   2   1    2.14    0.38
  -8   2   1    1.79    0.36
   7  -2  -1    3.40    0.47
   7  -2  -1    4.27    0.51
  -7   2   1    3.95    0.48
  -7   2   1    3.48    0.49
  -7   2   1    5.05    0.64
   6  -2  -1    0.99    0.31
   6  -2  -1    0.88    0.29
   6  -2  -1    1.15    0.31
  -6   2   1    1.05    0.36
  -6   2   1    1.38    0.32
  -6   2   1    1.35    0.30
   5  -2  -1   42.32    2.72
   5  -2  -1   40.25    2.66
   5  -2  -1   44.81    2.65
  -5   2   1   42.82    2.65
  -5   2   1   36.06    2.62
  -5   2   1   38.00    2.60
  -5   2   1   36.43    2.60
   4  -2  -1    2.25    0.27
   4  -2  -1    1.65    0.26
   4  -2  -1    1.97    0.27
  -4   2   1    2.09    0.28
  -4   2   1    1.74    0.25
  -4   2   1    1.99    0.27
  -4   2   1    1.79    0.26
  -4   2   1    2.38    0.32
   3  -2  -1   25.96    1.61
   3  -2  -1   22.08    1.63
   3  -2  -1   23.53    1.59
  -3   2   1   23.29    1.58
  -3   2   1   24.38    1.60
  -3   2   1   23.57    1.57
  -3   2   1   24.96    1.59
  -3   2   1   24.31    1.59
  -3   2   1   23.02    1.56
   2  -2  -1   72.24    4.65
   2  -2  -1   78.63    4.80
   2  -2  -1   77.87    4.62
   2  -2  -1   63.86    4.68
  -2   2   1   68.78    4.65
  -2   2   1   67.46    4.69
  -2   2   1   68.03    4.61
  -2   2   1   82.68    4.79
  -2   2   1   80.03    4.66
  -2   2   1   76.61    4.63
   1  -2  -1  199.32   12.84
   1  -2  -1  207.08   12.62
   1  -2  -1  203.93   12.71
   1  -2  -1  218.51   12.71
  -1   2   1  208.18   12.63
  -1   2   1  199.62   12.71
  -1   2   1  201.23   12.63
  -1   2   1  203.97   12.84
  -1   2   1  190.84   12.70
  -1  -2  -1   11.95    0.75
  -1  -2  -1   10.30    0.73
  -1  -2  -1   11.31    0.74
   1   2   1   11.05    0.75
   1   2   1   11.53    0.74
  -2  -2  -1  225.90   14.72
  -2  -2  -1  242.93   14.32
  -2  -2  -1  227.70   14.73
  -2  -2  -1  262.97   14.65
  -2  -2  -1  224.80   14.64
   2   2   1  237.05   14.31
  -3  -2  -1    0.38    0.07
  -3  -2  -1    0.69    0.11
  -3  -2  -1    0.15    0.16
   3   2   1    0.44    0.16
  -4  -2  -1   10.38    0.76
  -4  -2  -1    9.01    0.63
  -5  -2  -1   21.72    1.48
  -5  -2  -1   25.29    1.62
  -6  -2  -1  121.11    7.14
  -6  -2  -1  109.52    7.13
  -6  -2  -1  113.67    7.16
  -7  -2  -1    6.75    0.78
  -7  -2  -1    6.04    0.52
  -7  -2  -1    7.08    0.60
   7   2   1    5.61    0.54
  -8  -2  -1    3.50    0.39
  -8  -2  -1    3.18    0.42
   8   2   1    3.24    0.42
   9  -3  -1    4.83    0.74
  -9   3   1    6.29    0.88
  -9   3   1    6.02    0.73
   8  -3  -1   13.79    1.09
   8  -3  -1   11.86    1.15
  -8   3   1   12.65    1.06
  -8   3   1   13.36    1.10
  -8   3   1   12.91    1.22
   7  -3  -1    1.33    0.34
   7  -3  -1    1.92    0.36
  -7   3   1    1.71    0.44
  -7   3   1    1.84    0.36
  -7   3   1    1.24    0.30
   6  -3  -1   20.53    1.53
   6  -3  -1   22.25    1.54
  -6   3   1   19.22    1.48
  -6   3   1   22.48    1.56
  -6   3   1   21.07    1.53
   5  -3  -1    5.64    0.55
   5  -3  -1    6.40    0.61
   5  -3  -1    5.28    0.56
  -5   3   1    4.68    0.51
  -5   3   1    4.78    0.55
  -5   3   1    5.82    0.59
  -5   3   1    5.50    0.52
   4  -3  -1    3.99    0.39
   4  -3  -1    4.25    0.42
   4  -3  -1    4.04    0.43
  -4   3   1    4.26    0.47
  -4   3   1    3.22    0.37
  -4   3   1    4.14    0.42
  -4   3   1    3.64    0.40
  -4   3   1    4.40    0.37
   3  -3  -1   17.92    1.25
   3  -3  -1   19.10    1.28
   3  -3  -1   19.49    1.33
   3  -3  -1   19.24    1.30
  -3   3   1   17.83    1.26
  -3   3   1   19.01    1.28
  -3   3   1   18.71    1.29
  -3   3   1   17.24    1.26
  -3   3   1   18.14    1.29
  -3   3   1   19.72    1.29
   2  -3  -1  123.06    8.61
   2  -3  -1  143.82    8.75
   2  -3  -1  123.81    8.66
   2  -3  -1  146.18    8.60
  -2   3   1  146.73    8.75
  -2   3   1  122.23    8.60
  -2   3   1  122.88    8.59
  -2   3   1  153.53    8.93
  -2   3   1  159.09    8.68
   1  -3  -1  435.10   25.52
   1  -3  -1  439.66   25.37
  -1   3   1  422.69   25.80
  -1   3   1  404.35   25.36
  -1   3   1  346.47   25.35
   0  -3  -1  276.37   19.60
   0  -3  -1  311.67   19.60
   0  -3  -1  337.29   19.72
   0  -3  -1  336.10   19.72
   0   3   1  320.89   19.71
  -1  -3  -1  452.29   27.66
  -1  -3  -1  459.25   27.83
   1   3   1  430.23   27.81
  -2  -3  -1   49.82    3.28
  -2  -3  -1   58.57    3.28
  -2  -3  -1   52.72    3.26
  -2  -3  -1   46.98    3.29
   2   3   1   51.97    3.22
   2   3   1   52.04    3.28
  -3  -3  -1    0.54    0.12
  -3  -3  -1    0.68    0.11
   3   3   1    0.72    0.18
   3   3   1    0.49    0.09
  -4  -3  -1    3.42    0.39
  -4  -3  -1    2.40    0.26
  -4  -3  -1    2.02    0.23
  -5  -3  -1    0.63    0.31
  -5  -3  -1    1.18    0.21
  -5  -3  -1    0.84    0.17
  -6  -3  -1    9.36    0.74
  -6  -3  -1    9.61    0.71
  -6  -3  -1   10.22    0.93
  -7  -3  -1    3.71    0.41
  -7  -3  -1    4.18    0.60
  -7  -3  -1    3.39    0.38
   7   3   1    3.08    0.38
  -8  -3  -1    2.95    0.40
  -8  -3  -1    2.72    0.33
   8   3   1    2.73    0.39
   9  -4  -1    0.29    0.37
  -9   4   1    0.31    0.35
  -9   4   1    0.58    0.46
   8  -4  -1   13.85    1.24
   8  -4  -1   12.22    1.11
  -8   4   1   13.49    1.16
  -8   4   1   14.92    1.28
   7  -4  -1   49.27    3.58
   7  -4  -1   53.31    3.48
   7  -4  -1   52.23    3.47
  -7   4   1   54.22    3.43
  -7   4   1   48.98    3.44
  -7   4   1   52.09    3.44
   6  -4  -1   30.77    2.18
   6  -4  -1   30.16    2.09
   6  -4  -1   28.95    2.09
  -6   4   1   31.51    2.11
  -6   4   1   29.58    2.06
  -6   4   1   28.50    2.09
   5  -4  -1   13.78    1.18
   5  -4  -1   16.47    1.25
   5  -4  -1   16.38    1.18
  -5   4   1   16.05    1.18
  -5   4   1   14.72    1.19
  -5   4   1   16.07    1.19
  -5   4   1   16.08    1.16
   4  -4  -1    3.39    0.45
   4  -4  -1    4.38    0.44
   4  -4  -1    3.51    0.44
  -4   4   1    4.85    0.46
  -4   4   1    3.93    0.44
  -4   4   1    4.29    0.42
  -4   4   1    3.85    0.39
  -4   4   1    4.42    0.46
   3  -4  -1    0.23    0.18
   3  -4  -1    0.01    0.18
   3  -4  -1    0.05    0.16
   3  -4  -1    0.08    0.14
  -3   4   1    0.31    0.16
  -3   4   1    0.16    0.12
  -3   4   1    0.33    0.18
  -3   4   1    0.05    0.17
  -3   4   1    0.02    0.04
  -3   4   1    0.26    0.19
   2  -4  -1  163.03   10.15
   2  -4  -1  162.07   10.23
   2  -4  -1  168.11   10.17
  -2   4   1  172.29   10.54
  -2   4   1  147.17   10.14
  -2   4   1  159.88   10.32
  -2   4   1  166.21   10.16
   1  -4  -1  111.13    7.32
   1  -4  -1  124.08    7.28
   1  -4  -1  115.58    7.27
  -1   4   1  113.71    7.39
  -1   4   1  117.12    7.32
  -1   4   1  114.61    7.26
   0  -4  -1  104.03    6.28
   0  -4  -1  100.64    6.28
   0  -4  -1   99.56    6.33
   0  -4  -1   89.99    6.31
   0   4   1  106.81    6.32
  -1  -4  -1    0.64    0.14
  -1  -4  -1    0.29    0.11
  -1  -4  -1    0.38    0.16
  -1  -4  -1    0.39    0.13
   1   4   1    0.46    0.13
  -2  -4  -1   80.40    5.29
  -2  -4  -1   89.42    5.29
  -2  -4  -1   80.97    5.32
   2   4   1   88.27    5.31
   2   4   1   82.33    5.17
  -3  -4  -1   14.01    0.90
  -3  -4  -1   12.45    0.91
  -3  -4  -1   14.51    0.92
  -3  -4  -1   13.63    0.93
   3   4   1   13.17    0.94
   3   4   1   12.34    0.90
  -4  -4  -1  128.10    8.23
  -4  -4  -1  136.22    8.26
  -5  -4  -1    7.90    0.61
  -5  -4  -1    8.17    0.65
  -6  -4  -1    3.36    0.36
  -6  -4  -1    2.67    0.35
  -7  -4  -1    1.97    0.27
   9  -5  -1    5.16    0.82
  -9   5   1    5.24    0.72
  -9   5   1    3.76    0.74
   8  -5  -1    1.31    0.39
   8  -5  -1    1.47    0.44
  -8   5   1    0.87    0.46
  -8   5   1    1.84    0.43
   7  -5  -1   28.10    2.10
   7  -5  -1   28.41    2.09
   7  -5  -1   28.61    2.20
  -7   5   1   30.43    2.11
  -7   5   1   30.92    2.14
   6  -5  -1    4.52    0.64
   6  -5  -1    5.65    0.65
   6  -5  -1    4.10    0.63
  -6   5   1    5.42    0.68
  -6   5   1    3.98    0.56
  -6   5   1    6.21    0.64
  -6   5   1    5.93    0.69
   5  -5  -1    3.14    0.50
   5  -5  -1    2.66    0.46
   5  -5  -1    2.41    0.41
  -5   5   1    3.04    0.44
  -5   5   1    3.04    0.46
  -5   5   1    3.30    0.45
  -5   5   1    2.46    0.42
   4  -5  -1    5.53    0.51
   4  -5  -1    4.06    0.53
   4  -5  -1    4.50    0.48
  -4   5   1    5.30    0.53
  -4   5   1    5.40    0.54
  -4   5   1    5.22    0.54
  -4   5   1    5.31    0.51
  -4   5   1    4.87    0.47
   3  -5  -1    1.70    0.28
   3  -5  -1    1.46    0.33
  -3   5   1    2.47    0.38
  -3   5   1    2.30    0.31
  -3   5   1    2.37    0.32
  -3   5   1    0.92    0.27
  -3   5   1    1.94    0.29
  -3   5   1    2.04    0.28
   2  -5  -1    0.55    0.23
   2  -5  -1   -0.05    0.12
   2  -5  -1    0.41    0.18
  -2   5   1    0.05    0.13
  -2   5   1    0.09    0.13
  -2   5   1    0.01    0.14
  -2   5   1    0.09    0.14
   1  -5  -1   -0.13    0.12
   1  -5  -1    0.08    0.13
   1  -5  -1   -0.23    0.14
  -1   5   1    0.14    0.13
  -1   5   1    0.14    0.14
   0  -5  -1  129.75    8.30
   0  -5  -1  122.89    8.22
   0  -5  -1  134.07    8.23
   0   5   1  138.86    8.28
  -1  -5  -1   -0.01    0.12
  -1  -5  -1   -0.29    0.14
  -1  -5  -1   -0.08    0.09
  -1  -5  -1   -0.18    0.10
   1   5   1   -0.17    0.10
  -2  -5  -1   -0.06    0.11
  -2  -5  -1    0.11    0.10
  -2  -5  -1    0.06    0.12
  -2  -5  -1   -0.03    0.14
   2   5   1   -0.11    0.09
   2   5   1    0.08    0.13
  -3  -5  -1   42.51    2.74
  -3  -5  -1   41.91    2.76
  -3  -5  -1   45.24    2.77
  -3  -5  -1   44.15    2.78
   3   5   1   41.70    2.75
   3   5   1   41.60    2.75
  -4  -5  -1   10.82    0.79
  -4  -5  -1   10.00    0.70
  -4  -5  -1    9.77    0.75
  -5  -5  -1    1.30    0.25
  -5  -5  -1    1.27    0.22
  -6  -5  -1    1.52    0.30
  -6  -5  -1    1.57    0.25
  -7  -5  -1    2.85    0.34
  -7  -5  -1    2.15    0.36
   9  -6  -1    0.28    0.32
  -9   6   1   -0.62    0.42
  -9   6   1    0.04    0.34
   8  -6  -1    3.78    0.59
   8  -6  -1    3.40    0.64
  -8   6   1    4.72    0.66
  -8   6   1    4.34    0.73
   7  -6  -1   10.70    1.09
   7  -6  -1   11.46    1.13
   7  -6  -1   12.55    1.07
  -7   6   1   13.24    1.12
  -7   6   1   13.02    1.16
   6  -6  -1    7.45    0.78
   6  -6  -1    6.41    0.81
   6  -6  -1    6.86    0.80
  -6   6   1    7.42    0.86
  -6   6   1    7.46    0.84
  -6   6   1    8.30    0.78
   5  -6  -1   -0.08    0.22
   5  -6  -1   -0.07    0.28
  -5   6   1   -0.21    0.25
  -5   6   1    0.17    0.23
  -5   6   1    0.07    0.24
  -5   6   1   -0.29    0.20
   4  -6  -1   31.90    2.14
   4  -6  -1   30.63    2.07
  -4   6   1   30.25    2.12
  -4   6   1   30.61    2.06
  -4   6   1   30.15    2.09
  -4   6   1   29.02    2.08
   3  -6  -1  175.59   10.58
   3  -6  -1  151.18   10.66
  -3   6   1  152.20   10.97
  -3   6   1  184.05   10.61
  -3   6   1  181.63   10.68
  -3   6   1  170.41   10.58
  -3   6   1  166.05   10.74
   2  -6  -1   33.29    2.22
   2  -6  -1   31.96    2.24
   2  -6  -1   33.19    2.19
  -2   6   1   34.11    2.19
  -2   6   1   29.88    2.21
  -2   6   1   33.80    2.22
   1  -6  -1    1.94    0.29
   1  -6  -1    3.00    0.37
   1  -6  -1    2.01    0.34
  -1   6   1    1.47    0.27
   0  -6  -1    9.26    0.74
   0  -6  -1    9.60    0.75
   0  -6  -1    8.46    0.77
   0   6   1    9.67    0.75
  -1  -6  -1   27.46    1.81
  -1  -6  -1   24.61    1.76
  -1  -6  -1   28.71    1.78
  -1  -6  -1   24.97    1.77
   1   6   1   25.80    1.77
  -2  -6  -1    2.40    0.33
  -2  -6  -1    2.75    0.33
  -2  -6  -1    2.89    0.38
  -2  -6  -1    2.76    0.35
   2   6   1    2.77    0.34
   2   6   1    2.85    0.33
  -3  -6  -1   37.09    2.32
  -3  -6  -1   32.68    2.30
  -3  -6  -1   35.28    2.30
  -4  -6  -1    5.96    0.53
  -4  -6  -1    5.71    0.53
  -4  -6  -1    6.19    0.58
  -5  -6  -1    0.15    0.19
  -5  -6  -1    0.37    0.18
  -6  -6  -1    0.49    0.21
  -6  -6  -1    0.49    0.23
   9  -7  -1    2.37    0.51
  -9   7   1    1.39    0.57
   8  -7  -1    2.31    0.49
  -8   7   1    1.81    0.52
  -8   7   1    1.42    0.51
   7  -7  -1    6.53    0.78
   7  -7  -1    6.10    0.79
  -7   7   1    7.15    0.84
  -7   7   1    6.16    0.77
  -7   7   1    9.49    0.98
   6  -7  -1    9.07    0.97
  -6   7   1    9.16    0.95
  -6   7   1   10.47    0.94
  -6   7   1    9.98    0.98
   5  -7  -1    0.78    0.35
  -5   7   1    1.39    0.40
  -5   7   1    0.90    0.36
  -5   7   1    2.34    0.46
   4  -7  -1   13.70    1.21
   4  -7  -1   14.71    1.13
  -4   7   1   15.27    1.17
  -4   7   1   14.66    1.14
  -4   7   1   15.04    1.19
  -4   7   1   14.67    1.12
  -4   7   1   14.21    1.15
   3  -7  -1   38.87    2.65
   3  -7  -1   39.31    2.73
  -3   7   1   43.55    2.68
  -3   7   1   37.46    2.75
  -3   7   1   39.51    2.70
  -3   7   1   39.76    2.69
   2  -7  -1   19.91    1.43
   2  -7  -1   18.73    1.36
  -2   7   1   20.09    1.36
  -2   7   1   15.59    1.36
  -2   7   1   19.14    1.36
   1  -7  -1    0.28    0.21
   1  -7  -1   -0.19    0.19
   1  -7  -1    0.10    0.18
  -1   7   1    0.26    0.19
   0  -7  -1    0.16    0.18
   0  -7  -1   -0.14    0.20
   0  -7  -1   -0.25    0.13
   0   7   1    0.40    0.19
  -1  -7  -1   11.51    0.96
  -1  -7  -1   12.57    0.97
  -1  -7  -1   13.07    1.03
   1   7   1   13.11    0.97
  -2  -7  -1    0.72    0.27
  -2  -7  -1    0.86    0.24
  -2  -7  -1    0.72    0.23
   2   7   1    0.69    0.22
  -3  -7  -1    4.58    0.52
  -3  -7  -1    4.93    0.55
  -3  -7  -1    5.37    0.57
  -4  -7  -1    1.28    0.27
  -4  -7  -1    1.02    0.29
  -4  -7  -1    1.27    0.28
  -5  -7  -1    7.25    0.69
  -5  -7  -1    6.46    0.63
  -6  -7  -1    1.14    0.26
  -6  -7  -1    0.71    0.29
  -9   8   1    4.12    0.74
  -9   8   1    3.11    0.81
  -8   8   1    3.26    0.67
  -8   8   1    3.02    0.66
   7  -8  -1   -0.01    0.38
  -7   8   1    0.19    0.38
  -7   8   1    0.22    0.34
   6  -8  -1   30.19    2.32
  -6   8   1   33.38    2.33
  -6   8   1   30.86    2.24
   5  -8  -1    1.57    0.41
  -5   8   1    2.35    0.51
  -5   8   1    1.60    0.44
   4  -8  -1    0.84    0.39
  -4   8   1    0.99    0.26
  -4   8   1    0.82    0.34
  -4   8   1    1.11    0.31
  -4   8   1    0.94    0.34
   3  -8  -1   10.25    0.94
   3  -8  -1    8.00    0.80
  -3   8   1    9.22    0.84
  -3   8   1    7.25    0.78
  -3   8   1    7.23    0.78
  -3   8   1    9.32    0.79
  -3   8   1    9.71    0.85
   2  -8  -1  167.50    9.84
   2  -8  -1  158.70    9.93
  -2   8   1  159.15    9.98
  -2   8   1  137.04    9.88
   1  -8  -1   19.10    1.42
   1  -8  -1   17.64    1.48
   1  -8  -1   18.91    1.43
  -1   8   1   20.03    1.45
   0  -8  -1    7.36    0.89
   0  -8  -1    9.61    0.84
   0  -8  -1    9.17    0.83
   0   8   1    9.87    0.83
  -1  -8  -1    6.26    0.63
  -1  -8  -1    5.97    0.63
  -1  -8  -1    5.03    0.63
   1   8   1    4.90    0.56
  -2  -8  -1   10.87    0.96
  -2  -8  -1   11.40    0.93
  -2  -8  -1   10.32    0.91
  -3  -8  -1    0.48    0.29
  -3  -8  -1    0.74    0.28
  -3  -8  -1    0.84    0.28
  -4  -8  -1    2.56    0.38
  -4  -8  -1    2.21    0.38
  -4  -8  -1    2.15    0.40
  -5  -8  -1    1.35    0.36
  -5  -8  -1    1.17    0.30
  -8   9   1    0.08    0.45
  -8   9   1   -0.14    0.43
   7  -9  -1    2.55    0.59
  -7   9   1    2.45    0.59
  -7   9   1    2.82    0.58
   6  -9  -1   11.93    1.28
  -6   9   1   14.48    1.29
  -6   9   1   13.15    1.22
   5  -9  -1   -0.15    0.35
  -5   9   1   -0.08    0.32
  -5   9   1    0.30    0.35
   4  -9  -1   13.01    1.27
  -4   9   1   13.47    1.22
  -4   9   1   14.33    1.16
   3  -9  -1    6.92    0.77
   3  -9  -1    7.02    0.86
  -3   9   1    8.53    0.84
  -3   9   1    7.46    0.77
   2  -9  -1    1.64    0.36
   2  -9  -1    1.85    0.49
  -2   9   1    1.65    0.40
   1  -9  -1   17.16    1.45
   1  -9  -1   16.63    1.37
  -1   9   1   19.03    1.41
   0  -9  -1    5.19    0.62
   0  -9  -1    4.15    0.62
   0  -9  -1    4.27    0.56
   0   9   1    5.24    0.63
  -1  -9  -1    0.97    0.31
  -1  -9  -1    1.55    0.41
  -1  -9  -1    0.81    0.29
  -2  -9  -1    1.00    0.31
  -2  -9  -1    0.57    0.30
  -2  -9  -1    0.91    0.36
  -3  -9  -1    0.53    0.28
  -3  -9  -1    1.20    0.37
  -3  -9  -1    0.62    0.31
  -4  -9  -1   -0.05    0.26
  -4  -9  -1    0.41    0.27
  -4  -9  -1    0.35    0.28
  -8  10   1    1.34    0.65
  -8  10   1    2.23    0.66
   7 -10  -1    5.25    0.85
  -7  10   1    5.76    0.90
  -7  10   1    5.59    0.85
   6 -10  -1    0.42    0.47
  -6  10   1    1.12    0.46
  -6  10   1    0.75    0.44
   5 -10  -1    0.81    0.46
  -5  10   1    0.62    0.39
  -5  10   1    0.33    0.33
   4 -10  -1    2.42    0.58
  -4  10   1    2.23    0.49
  -4  10   1    3.57    0.65
   3 -10  -1    0.18    0.34
  -3  10   1    0.05    0.29
  -3  10   1    0.60    0.34
   2 -10  -1    6.38    0.83
   2 -10  -1    6.74    0.78
  -2  10   1    7.74    0.83
   1 -10  -1    1.41    0.46
   1 -10  -1    1.01    0.36
  -1  10   1    1.23    0.35
   0 -10  -1    7.49    0.92
   0 -10  -1    9.21    0.92
   0  10   1    9.94    0.91
  -1 -10  -1   -0.30    0.25
  -1 -10  -1   -0.11    0.36
  -2 -10  -1    4.37    0.61
  -2 -10  -1    4.07    0.64
  -3 -10  -1    0.87    0.33
  -3 -10  -1    0.76    0.37
   7 -11  -1    1.01    0.52
  -7  11   1    0.61    0.45
  -7  11   1    1.04    0.52
   6 -11  -1   -0.28    0.44
  -6  11   1    0.38    0.42
  -6  11   1    0.33    0.43
   5 -11  -1    0.06    0.43
  -5  11   1    0.61    0.40
  -5  11   1    0.61    0.38
   4 -11  -1    1.45    0.52
  -4  11   1    1.82    0.52
  -4  11   1    1.77    0.48
   3 -11  -1    0.56    0.46
  -3  11   1    0.75    0.40
  -3  11   1    0.71    0.41
   2 -11  -1    3.98    0.70
  -2  11   1    3.74    0.62
  -2  11   1    4.60    0.64
   1 -11  -1    7.40    0.85
   1 -11  -1    6.03    0.88
  -1  11   1    6.55    0.87
   0 -11  -1    9.53    1.12
   0 -11  -1    9.89    1.03
  -1 -11  -1    0.35    0.43
  -1 -11  -1    0.62    0.38
  -2 -11  -1    0.82    0.41
  -2 -11  -1    1.56    0.47
   6 -12  -1   -0.14    0.55
  -6  12   1    0.48    0.46
  -6  12   1    0.43    0.41
   5 -12  -1    0.30    0.45
  -5  12   1   -0.21    0.35
  -5  12   1   -0.05    0.36
   4 -12  -1    1.58    0.61
  -4  12   1    3.53    0.67
  -4  12   1    3.08    0.61
   3 -12  -1    3.72    0.74
  -3  12   1    2.85    0.62
  -3  12   1    2.84    0.58
   2 -12  -1    1.29    0.54
  -2  12   1    0.84    0.42
  -2  12   1    0.24    0.38
   1 -12  -1    0.06    0.41
   0 -12  -1    0.18    0.45
  -1 -12  -1    0.05    0.37
  -1 -12  -1    0.14    0.43
   5 -13  -1   -0.67    0.45
  -5  13   1    0.21    0.43
  -5  13   1   -0.18    0.44
   4 -13  -1    4.26    0.89
  -4  13   1    5.10    0.77
  -4  13   1    3.64    0.71
   3 -13  -1    0.67    0.60
  -3  13   1    0.14    0.41
  -3  13   1    0.95    0.53
   2 -13  -1    1.58    0.63
   1 -13  -1    0.04    0.51
  -2  14  -2    1.42    0.57
   2 -14   2    1.09    0.64
  -3  14  -2    0.48    0.49
   3 -14   2    0.92    0.73
   4 -14   2    0.33    0.57
  -1 -13   2    0.86    0.64
   0 -13   2    2.68    0.78
  -1  13  -2    0.57    0.42
   1 -13   2    0.16    0.56
  -2  13  -2   -0.29    0.37
   2 -13   2   -0.98    0.50
  -3  13  -2    1.12    0.42
  -3  13  -2    0.61    0.48
   3 -13   2   -0.09    0.56
  -4  13  -2    0.64    0.38
  -4  13  -2    0.28    0.40
   4 -13   2    0.48    0.58
  -5  13  -2    7.05    1.02
  -5  13  -2    4.76    0.78
   5 -13   2    6.64    1.04
  -6  13  -2    0.34    0.51
  -6  13  -2    0.06    0.45
   6 -13   2    1.21    0.55
  -2 -12   2    1.03    0.51
  -2 -12   2    0.52    0.40
  -1 -12   2    2.57    0.68
   0 -12   2   -0.06    0.40
  -1  12  -2    0.18    0.32
   1 -12   2    0.24    0.41
  -2  12  -2   -0.43    0.22
  -2  12  -2   -0.14    0.29
   2 -12   2   -0.67    0.42
  -3  12  -2    6.43    0.86
  -3  12  -2    5.90    0.74
   3 -12   2    6.14    0.97
  -4  12  -2   27.03    1.95
  -4  12  -2   27.01    2.08
   4 -12   2   23.90    2.15
  -5  12  -2    3.97    0.69
  -5  12  -2    4.94    0.72
   5 -12   2    4.18    0.78
  -6  12  -2   -0.17    0.37
  -6  12  -2   -0.48    0.37
   6 -12   2    0.20    0.52
  -7  12  -2    0.59    0.47
  -7  12  -2    0.80    0.47
   7 -12   2    0.41    0.56
  -3 -11   2    1.07    0.42
  -3 -11   2    1.56    0.58
  -2 -11   2    6.22    0.81
  -2 -11   2    6.34    0.91
  -1 -11   2    0.16    0.29
  -1 -11   2   -0.07    0.40
   0  11  -2    1.74    0.41
   0 -11   2    0.91    0.39
   0 -11   2    1.47    0.48
  -1  11  -2    0.60    0.27
  -1  11  -2    0.52    0.34
   1 -11   2    0.16    0.40
  -2  11  -2    2.17    0.41
  -2  11  -2    1.56    0.44
   2 -11   2    1.52    0.54
  -3  11  -2   58.16    3.90
  -3  11  -2   52.99    3.69
   3 -11   2   60.63    4.03
  -4  11  -2   21.59    1.66
  -4  11  -2   21.74    1.76
   4 -11   2   22.69    1.90
  -5  11  -2   10.76    1.16
  -5  11  -2   12.31    1.13
   5 -11   2   12.84    1.31
  -6  11  -2    0.90    0.47
  -6  11  -2    1.61    0.54
   6 -11   2    0.62    0.49
  -7  11  -2    0.87    0.49
  -7  11  -2    0.89    0.48
   7 -11   2    1.37    0.55
  -4 -10   2    0.86    0.42
  -4 -10   2    0.19    0.39
  -3 -10   2   12.87    1.25
  -3 -10   2   11.44    1.14
  -2 -10   2   13.30    1.21
  -2 -10   2   14.68    1.33
   1  10  -2    0.43    0.28
  -1 -10   2    0.39    0.31
  -1 -10   2    0.20    0.32
   0  10  -2    4.66    0.63
   0  10  -2    4.00    0.43
   0 -10   2    3.75    0.63
   0 -10   2    3.84    0.55
  -1  10  -2    0.23    0.21
  -1  10  -2    0.52    0.31
   1 -10   2    0.38    0.32
   1 -10   2    0.62    0.38
  -2  10  -2   35.43    2.55
  -2  10  -2   35.03    2.40
   2 -10   2   38.78    2.70
  -3  10  -2  153.26    9.11
  -3  10  -2  148.95    9.45
   3 -10   2  139.02    9.51
  -4  10  -2    5.42    0.71
  -4  10  -2    6.08    0.74
   4 -10   2    6.16    0.82
  -5  10  -2    8.27    0.87
  -5  10  -2    6.23    0.82
   5 -10   2    9.82    1.03
  -6  10  -2    0.42    0.38
  -6  10  -2    0.17    0.36
   6 -10   2   -0.06    0.40
  -7  10  -2    3.91    0.73
  -7  10  -2    5.15    0.79
  -8  10  -2   -0.21    0.39
  -8  10  -2    0.46    0.45
  -5  -9   2    1.40    0.46
  -5  -9   2    2.31    0.45
  -4  -9   2    3.81    0.60
  -4  -9   2    2.94    0.52
  -3  -9   2   16.47    1.21
  -3  -9   2   13.02    1.25
  -3  -9   2   12.71    1.20
   2   9  -2    0.74    0.27
  -2  -9   2    0.21    0.33
  -2  -9   2    0.28    0.23
  -2  -9   2    0.23    0.28
   1   9  -2   -0.01    0.22
   1   9  -2    0.01    0.11
  -1  -9   2   -0.08    0.24
  -1  -9   2   -0.25    0.18
  -1  -9   2   -0.23    0.25
   0   9  -2    4.69    0.45
   0   9  -2    6.57    0.73
   0  -9   2    4.05    0.62
   0  -9   2    5.77    0.63
   0  -9   2    4.81    0.61
  -1   9  -2    5.01    0.63
  -1   9  -2    5.51    0.53
   1  -9   2    5.55    0.66
   1  -9   2    4.34    0.66
  -2   9  -2   11.47    0.92
  -2   9  -2   11.37    1.01
   2  -9   2   10.37    1.13
   2  -9   2   12.72    1.02
  -3   9  -2   53.95    3.64
  -3   9  -2   58.33    3.81
  -3   9  -2   57.81    3.79
  -3   9  -2   55.33    3.81
   3  -9   2   58.40    3.89
  -4   9  -2    2.82    0.54
  -4   9  -2    4.38    0.58
  -4   9  -2    2.85    0.48
   4  -9   2    4.61    0.68
  -5   9  -2    0.47    0.32
  -5   9  -2    0.70    0.32
  -5   9  -2    0.69    0.35
   5  -9   2    0.41    0.35
  -6   9  -2    0.55    0.31
  -6   9  -2    0.38    0.38
  -6   9  -2    0.45    0.34
   6  -9   2    0.11    0.36
  -7   9  -2   14.88    1.36
  -7   9  -2   13.82    1.33
  -8   9  -2    1.27    0.48
  -8   9  -2    0.26    0.43
   6   8  -2   -0.08    0.30
  -6  -8   2   -0.46    0.32
  -5  -8   2   -0.27    0.30
  -5  -8   2    0.49    0.31
  -5  -8   2    0.05    0.24
  -4  -8   2    0.88    0.34
  -4  -8   2    0.64    0.29
  -4  -8   2    0.98    0.37
  -3  -8   2    4.52    0.59
  -3  -8   2    4.79    0.64
  -3  -8   2    3.64    0.49
   2   8  -2    5.61    0.64
  -2  -8   2    7.30    0.77
  -2  -8   2    7.10    0.65
  -2  -8   2    5.95    0.68
   1   8  -2   10.90    0.89
   1   8  -2    9.84    0.69
  -1  -8   2   10.00    0.89
  -1  -8   2   10.99    0.87
  -1  -8   2    9.66    0.95
   0   8  -2    3.99    0.37
   0   8  -2    3.74    0.50
   0  -8   2    3.56    0.48
   0  -8   2    4.44    0.59
   0  -8   2    3.47    0.44
  -1   8  -2   71.82    4.36
  -1   8  -2   68.11    4.12
   1  -8   2   61.05    4.36
   1  -8   2   63.11    4.27
  -2   8  -2    0.13    0.19
  -2   8  -2    0.29    0.20
  -2   8  -2    0.29    0.22
   2  -8   2    0.32    0.15
   2  -8   2    0.45    0.29
   2  -8   2   -0.05    0.20
  -3   8  -2    5.61    0.65
  -3   8  -2    7.14    0.68
  -3   8  -2    7.96    0.72
  -3   8  -2    6.66    0.64
  -3   8  -2    7.38    0.68
   3  -8   2    6.01    0.66
   3  -8   2    6.11    0.74
  -4   8  -2   32.50    2.24
  -4   8  -2   31.09    2.18
  -4   8  -2   30.53    2.23
   4  -8   2   33.76    2.32
  -5   8  -2    6.12    0.71
  -5   8  -2    6.36    0.69
  -5   8  -2    5.56    0.69
   5  -8   2    5.61    0.69
  -6   8  -2    4.53    0.61
  -6   8  -2    4.53    0.65
  -6   8  -2    4.41    0.66
   6  -8   2    4.23    0.62
  -7   8  -2   22.21    1.77
  -7   8  -2   24.44    1.83
  -7   8  -2   23.72    1.86
  -8   8  -2    6.44    0.92
  -8   8  -2    5.29    0.76
  -8   8  -2    5.96    0.80
   6   7  -2   -0.14    0.24
  -6  -7   2   -0.43    0.26
  -6  -7   2   -0.04    0.26
  -6  -7   2    0.04    0.18
  -5  -7   2    6.30    0.67
  -5  -7   2    5.32    0.64
  -5  -7   2    4.47    0.55
  -4  -7   2    0.30    0.20
  -4  -7   2    0.30    0.27
  -4  -7   2    0.61    0.27
   3   7  -2    6.68    0.66
  -3  -7   2    6.79    0.70
  -3  -7   2    7.51    0.78
  -3  -7   2    7.85    0.67
   2   7  -2    9.33    0.75
  -2  -7   2    8.56    0.71
  -2  -7   2    9.22    0.83
  -2  -7   2    6.60    0.72
   1   7  -2    7.76    0.51
   1   7  -2    7.00    0.66
  -1  -7   2    8.39    0.66
  -1  -7   2    6.21    0.66
  -1  -7   2    7.30    0.74
   0   7  -2   20.82    1.44
   0   7  -2   23.76    1.61
   0  -7   2   22.23    1.58
   0  -7   2   22.79    1.65
   0  -7   2   23.80    1.58
  -1   7  -2  236.42   13.60
  -1   7  -2  198.06   13.68
  -1   7  -2  216.85   13.18
   1  -7   2  223.05   13.59
   1  -7   2  212.35   13.72
  -2   7  -2    4.20    0.49
  -2   7  -2    4.43    0.47
  -2   7  -2    3.63    0.46
  -2   7  -2    2.90    0.39
   2  -7   2    2.87    0.39
   2  -7   2    3.40    0.52
  -3   7  -2    1.20    0.26
  -3   7  -2    1.59    0.28
  -3   7  -2    1.67    0.32
  -3   7  -2    1.55    0.32
  -3   7  -2    2.77    0.40
   3  -7   2    1.41    0.36
   3  -7   2    2.08    0.34
  -4   7  -2   14.64    1.07
  -4   7  -2   10.27    1.02
  -4   7  -2   13.70    1.05
  -4   7  -2   13.74    1.05
   4  -7   2   12.91    1.11
  -5   7  -2    0.93    0.29
  -5   7  -2    0.91    0.34
  -5   7  -2    1.26    0.31
  -5   7  -2    1.04    0.28
   5  -7   2    0.99    0.33
  -6   7  -2   20.98    1.51
  -6   7  -2   20.01    1.48
  -6   7  -2   21.21    1.55
   6  -7   2   14.64    1.45
  -7   7  -2   -0.08    0.23
  -7   7  -2   -0.04    0.35
  -7   7  -2    0.50    0.32
  -8   7  -2    6.39    0.79
  -8   7  -2    5.33    0.83
  -8   7  -2    7.49    0.84
  -9   7  -2    3.17    0.60
  -9   7  -2    3.28    0.57
  -9   7  -2    3.26    0.74
   7   6  -2    0.81    0.33
  -7  -6   2    0.79    0.28
  -7  -6   2    0.86    0.39
   6   6  -2    3.02    0.47
  -6  -6   2    2.70    0.47
  -6  -6   2    2.76    0.43
  -6  -6   2    3.37    0.46
  -5  -6   2   12.82    1.09
  -5  -6   2   13.65    1.04
  -5  -6   2   13.96    1.10
  -4  -6   2   22.56    1.66
  -4  -6   2   25.27    1.73
  -4  -6   2   25.20    1.75
   3   6  -2    5.84    0.56
  -3  -6   2    5.63    0.56
  -3  -6   2    7.00    0.63
  -3  -6   2    6.86    0.59
  -3  -6   2    5.54    0.64
   2   6  -2    8.00    0.66
  -2  -6   2    7.62    0.67
  -2  -6   2    8.37    0.74
  -2  -6   2    6.94    0.63
   1   6  -2   22.11    1.50
   1   6  -2   20.44    1.32
  -1  -6   2   22.69    1.48
  -1  -6   2   20.83    1.54
   0   6  -2   82.35    5.22
   0   6  -2   79.28    5.27
   0   6  -2   80.11    5.02
   0  -6   2   84.18    5.23
   0  -6   2   86.04    5.32
  -1   6  -2   33.51    2.69
  -1   6  -2   40.56    2.58
  -1   6  -2   44.97    2.70
   1  -6   2   41.28    2.69
   1  -6   2   44.38    2.70
   1  -6   2   41.83    2.76
  -2   6  -2   77.20    4.71
  -2   6  -2   68.98    4.85
  -2   6  -2   75.63    4.90
  -2   6  -2   77.91    4.86
   2  -6   2   77.16    4.84
   2  -6   2   79.30    4.94
  -3   6  -2    0.30    0.14
  -3   6  -2   -0.07    0.12
  -3   6  -2    0.42    0.21
  -3   6  -2    0.30    0.18
   3  -6   2   -0.12    0.19
   3  -6   2    0.24    0.17
  -4   6  -2   49.30    3.09
  -4   6  -2   45.09    3.09
  -4   6  -2   46.13    3.11
  -4   6  -2   45.60    3.04
   4  -6   2   48.95    3.16
  -5   6  -2    4.90    0.55
  -5   6  -2    5.17    0.60
  -5   6  -2    3.65    0.50
  -5   6  -2    4.02    0.60
   5  -6   2    4.92    0.57
  -6   6  -2   16.66    1.32
  -6   6  -2   18.44    1.37
  -6   6  -2   18.18    1.44
  -6   6  -2   16.77    1.37
   6  -6   2   17.50    1.38
  -7   6  -2    5.04    0.74
  -7   6  -2    4.92    0.62
  -7   6  -2    6.54    0.69
  -7   6  -2    5.37    0.65
  -8   6  -2    6.73    0.90
  -8   6  -2    5.51    0.68
  -8   6  -2    5.07    0.68
   8  -6   2    4.17    0.68
  -9   6  -2    1.12    0.49
  -9   6  -2   -0.15    0.28
  -9   6  -2    0.08    0.30
   9  -6   2   -0.01    0.36
   7   5  -2    0.19    0.24
  -7  -5   2    0.01    0.26
  -7  -5   2   -0.11    0.21
   6   5  -2    0.61    0.28
  -6  -5   2    0.66    0.29
  -6  -5   2    1.15    0.27
  -6  -5   2    1.26    0.32
  -5  -5   2   55.52    3.67
  -5  -5   2   55.57    3.63
  -5  -5   2   57.31    3.67
   4   5  -2   38.74    2.57
  -4  -5   2   39.96    2.61
  -4  -5   2   38.54    2.55
  -4  -5   2   38.76    2.61
   3   5  -2    3.46    0.39
  -3  -5   2    3.56    0.39
  -3  -5   2    3.55    0.42
  -3  -5   2    3.31    0.44
  -3  -5   2    4.12    0.41
   2   5  -2   57.00    3.84
  -2  -5   2   59.68    3.89
  -2  -5   2   60.66    3.88
  -2  -5   2   62.71    3.86
  -2  -5   2   59.85    3.83
   1   5  -2  387.91   24.84
  -1  -5   2  386.57   24.70
  -1  -5   2  423.15   24.89
  -1  -5   2  395.66   24.69
   0   5  -2  193.39   13.07
   0   5  -2  210.57   13.16
   0   5  -2  221.76   12.67
   0  -5   2  225.23   13.08
   0  -5   2  190.39   13.18
   0  -5   2  217.45   13.09
  -1   5  -2    0.03    0.13
  -1   5  -2    0.59    0.18
  -1   5  -2    0.23    0.13
  -1   5  -2    0.07    0.12
   1  -5   2   -0.08    0.16
   1  -5   2    0.22    0.14
   1  -5   2    0.27    0.14
  -2   5  -2   15.79    1.05
  -2   5  -2   15.66    1.08
  -2   5  -2   13.37    1.09
   2  -5   2   15.06    1.13
   2  -5   2   15.81    1.07
   2  -5   2   14.93    1.05
  -3   5  -2   19.07    1.31
  -3   5  -2   19.06    1.31
  -3   5  -2   17.58    1.28
  -3   5  -2   20.50    1.31
  -3   5  -2   20.79    1.32
   3  -5   2   15.16    1.32
  -4   5  -2   18.05    1.31
  -4   5  -2   19.27    1.36
  -4   5  -2   21.12    1.40
  -4   5  -2   17.02    1.34
  -4   5  -2   20.46    1.35
   4  -5   2   19.98    1.40
  -5   5  -2   29.85    1.91
  -5   5  -2   28.23    1.92
  -5   5  -2   28.09    1.94
  -5   5  -2   23.26    1.89
   5  -5   2   30.24    1.95
  -6   5  -2    9.97    0.78
  -6   5  -2    8.04    0.78
  -6   5  -2    8.60    0.78
  -6   5  -2    8.85    0.89
   6  -5   2    9.03    0.80
   6  -5   2    8.20    0.78
   6  -5   2    7.74    0.80
  -7   5  -2   14.22    1.14
  -7   5  -2   13.57    1.14
  -7   5  -2   13.48    1.29
  -7   5  -2   15.03    1.14
   7  -5   2   14.85    1.17
   7  -5   2   15.07    1.22
  -8   5  -2    6.22    0.68
  -8   5  -2    7.34    0.90
  -8   5  -2    6.93    0.72
  -8   5  -2    6.74    0.68
   8  -5   2    4.53    0.65
   8  -5   2    5.58    0.72
  -9   5  -2    4.08    0.76
  -9   5  -2    3.27    0.52
   9  -5   2    3.05    0.59
   8   4  -2    1.74    0.40
  -8  -4   2    2.33    0.46
  -8  -4   2    1.72    0.36
   7   4  -2    4.21    0.54
  -7  -4   2    4.56    0.52
  -7  -4   2    4.33    0.56
  -7  -4   2    3.96    0.49
   6   4  -2    0.87    0.28
  -6  -4   2    0.72    0.25
  -6  -4   2    1.00    0.29
  -6  -4   2    0.86    0.30
   5   4  -2   10.28    0.81
  -5  -4   2    9.79    0.82
  -5  -4   2    9.14    0.78
  -5  -4   2    9.00    0.82
  -5  -4   2   10.06    0.75
   4   4  -2    0.10    0.16
  -4  -4   2    0.23    0.18
  -4  -4   2    0.16    0.19
  -4  -4   2    0.09    0.14
  -4  -4   2    0.20    0.16
  -4  -4   2   -0.05    0.14
   3   4  -2    2.19    0.30
  -3  -4   2    2.19    0.30
  -3  -4   2    2.68    0.34
  -3  -4   2    2.43    0.30
  -3  -4   2    2.55    0.35
   2   4  -2    7.07    0.59
  -2  -4   2    6.99    0.62
  -2  -4   2    8.19    0.60
  -2  -4   2    7.11    0.57
  -2  -4   2    7.75    0.61
   1   4  -2  120.28    8.04
  -1  -4   2  128.65    7.99
  -1  -4   2  135.04    8.08
   0   4  -2    6.93    0.52
   0   4  -2    6.56    0.44
   0   4  -2    6.40    0.51
   0  -4   2    6.21    0.52
   0  -4   2    6.10    0.56
  -1   4  -2  114.22    6.77
  -1   4  -2  108.41    6.52
  -1   4  -2  104.33    6.71
  -1   4  -2  117.27    6.73
   1  -4   2  105.58    6.71
   1  -4   2  107.51    6.51
   1  -4   2  105.20    6.70
   1  -4   2   94.33    6.77
  -2   4  -2   45.26    2.82
  -2   4  -2   43.44    2.89
  -2   4  -2   49.72    2.93
  -2   4  -2   47.30    2.89
   2  -4   2   45.99    2.82
   2  -4   2   40.56    2.92
   2  -4   2   42.53    2.87
  -3   4  -2   42.05    2.70
  -3   4  -2   44.08    2.69
  -3   4  -2   38.18    2.65
  -3   4  -2   42.15    2.69
  -3   4  -2   40.68    2.68
  -4   4  -2    0.56    0.17
  -4   4  -2    0.67    0.17
  -4   4  -2    0.69    0.13
  -4   4  -2    0.36    0.15
  -4   4  -2    0.27    0.19
   4  -4   2    0.45    0.17
   4  -4   2    0.56    0.17
  -5   4  -2   15.32    1.05
  -5   4  -2   10.66    0.97
  -5   4  -2   15.28    1.12
  -5   4  -2   14.20    1.02
  -5   4  -2   11.96    1.00
   5  -4   2   14.54    1.06
   5  -4   2   14.66    1.02
   5  -4   2   13.86    1.03
  -6   4  -2   17.45    1.40
  -6   4  -2   20.14    1.34
  -6   4  -2   17.59    1.31
  -6   4  -2   17.84    1.30
   6  -4   2   18.64    1.38
   6  -4   2   20.29    1.34
   6  -4   2   16.02    1.30
  -7   4  -2    0.19    0.21
  -7   4  -2   -0.06    0.19
  -7   4  -2    0.18    0.20
  -7   4  -2    0.04    0.35
   7  -4   2   -0.51    0.22
   7  -4   2    0.46    0.23
  -8   4  -2    7.39    0.73
  -8   4  -2    7.06    0.68
  -8   4  -2    6.82    0.68
  -8   4  -2    6.77    0.86
   8  -4   2    6.11    0.75
   8  -4   2    7.40    0.72
  -9   4  -2    1.11    0.33
  -9   4  -2    0.85    0.50
  -9   4  -2    0.78    0.28
   9  -4   2    0.38    0.34
   8   3  -2    3.60    0.54
  -8  -3   2    4.43    0.53
  -8  -3   2    4.32    0.59
   7   3  -2    3.32    0.46
  -7  -3   2    2.85    0.40
  -7  -3   2    2.92    0.46
  -7  -3   2    2.79    0.41
   6   3  -2    0.52    0.22
  -6  -3   2    0.94    0.24
  -6  -3   2    0.94    0.27
  -6  -3   2    0.27    0.30
  -6  -3   2    0.76    0.29
   5   3  -2    8.06    0.70
   5   3  -2    9.09    0.73
  -5  -3   2    9.64    0.72
  -5  -3   2    8.79    0.77
  -5  -3   2    8.57    0.70
   4   3  -2   15.36    1.09
   4   3  -2   16.73    1.13
  -4  -3   2   15.47    1.05
  -4  -3   2   14.62    1.09
  -4  -3   2   15.44    1.12
  -4  -3   2   15.73    1.10
   3   3  -2   12.00    0.85
  -3  -3   2   11.81    0.78
  -3  -3   2   12.38    0.86
  -3  -3   2   10.52    0.86
  -3  -3   2   11.74    0.87
  -3  -3   2   11.73    0.84
   2   3  -2   65.31    3.96
  -2  -3   2   52.57    3.96
  -2  -3   2   54.82    3.94
  -2  -3   2   67.69    3.95
  -2  -3   2   65.11    3.76
  -2  -3   2   67.17    3.93
   1   3  -2  442.06   24.77
   1   3  -2  407.69   24.60
  -1  -3   2  395.02   24.75
  -1  -3   2  388.31   24.77
  -1  -3   2  354.06   24.60
   0   3  -2    3.78    0.27
   0   3  -2    3.67    0.33
   0   3  -2    3.67    0.33
   0   3  -2    3.32    0.31
   0  -3   2    2.63    0.35
   0  -3   2    4.10    0.34
   0  -3   2    3.58    0.27
  -1   3  -2   75.12    5.56
  -1   3  -2   82.29    5.38
  -1   3  -2   89.40    5.53
  -1   3  -2   90.62    5.59
   1  -3   2   94.23    5.54
   1  -3   2   91.62    5.38
   1  -3   2   88.46    5.53
   1  -3   2   95.17    5.60
  -2   3  -2    0.07    0.07
  -2   3  -2    0.05    0.08
  -2   3  -2    0.08    0.09
  -2   3  -2    0.01    0.07
  -2   3  -2    0.06    0.06
  -2   3  -2    0.09    0.09
  -2   3  -2    0.06    0.10
  -2   3  -2    0.12    0.12
   2  -3   2    0.06    0.11
   2  -3   2    0.07    0.12
  -3   3  -2  469.21   29.93
  -3   3  -2  483.00   29.19
  -3   3  -2  505.76   30.41
  -3   3  -2  495.77   30.10
  -3   3  -2  470.58   29.92
   3  -3   2  510.09   30.12
   3  -3   2  449.43   31.03
  -4   3  -2    2.90    0.32
  -4   3  -2    2.81    0.30
  -4   3  -2    2.64    0.34
  -4   3  -2    3.21    0.33
  -4   3  -2    2.83    0.41
   4  -3   2    3.24    0.33
   4  -3   2    3.45    0.35
   4  -3   2    2.90    0.30
  -5   3  -2   36.76    2.40
  -5   3  -2   35.63    2.45
  -5   3  -2   34.57    2.42
  -5   3  -2   39.75    2.42
  -5   3  -2   35.11    2.42
   5  -3   2   36.44    2.43
   5  -3   2   39.03    2.42
  -6   3  -2    1.66    0.28
  -6   3  -2    1.77    0.28
  -6   3  -2    2.01    0.31
  -6   3  -2    1.62    0.37
   6  -3   2    1.62    0.29
   6  -3   2    2.15    0.30
  -7   3  -2    8.60    0.74
  -7   3  -2    8.83    0.76
  -7   3  -2    9.50    0.96
  -7   3  -2    9.08    0.78
   7  -3   2    9.43    0.78
   7  -3   2    8.50    0.82
  -8   3  -2    6.92    0.59
  -8   3  -2    7.28    0.65
  -8   3  -2    7.49    0.89
   8  -3   2    4.40    0.58
   8  -3   2    4.97    0.65
  -9   3  -2    2.41    0.40
  -9   3  -2    2.35    0.62
   9  -3   2    3.14    0.53
   8   2  -2    0.89    0.32
  -8  -2   2    1.61    0.33
  -8  -2   2    1.46    0.40
  -8  -2   2    1.51    0.33
   7   2  -2   11.32    1.02
  -7  -2   2   12.49    0.95
  -7  -2   2   12.26    1.02
  -7  -2   2   12.33    0.97
  -7  -2   2   12.32    1.03
   6   2  -2    0.74    0.23
  -6  -2   2    0.30    0.30
  -6  -2   2    0.52    0.21
  -6  -2   2    1.01    0.26
  -6  -2   2    0.45    0.25
   5   2  -2    0.48    0.18
   5   2  -2    0.59    0.17
  -5  -2   2    0.51    0.18
  -5  -2   2    0.45    0.18
   4   2  -2   43.13    3.35
   4   2  -2   51.25    3.27
  -4  -2   2   55.16    3.29
  -4  -2   2   53.66    3.25
  -4  -2   2   53.33    3.27
  -4  -2   2   54.22    3.18
  -4  -2   2   46.03    3.27
   3   2  -2  338.27   21.20
   3   2  -2  338.67   20.57
  -3  -2   2  331.90   20.56
  -3  -2   2  319.16   19.88
  -3  -2   2  332.08   20.57
  -3  -2   2  340.20   20.46
  -3  -2   2  308.66   20.45
   2   2  -2   18.26    1.24
   2   2  -2   16.41    1.21
  -2  -2   2   19.40    1.23
  -2  -2   2   19.50    1.24
  -2  -2   2   18.28    1.20
  -2  -2   2   17.33    1.13
  -2  -2   2   18.80    1.22
   1   2  -2  109.88    7.30
   1   2  -2  125.24    7.25
   1   2  -2  120.26    7.52
  -1  -2   2  121.77    7.26
  -1  -2   2  103.18    7.29
  -1  -2   2  116.80    7.31
  -1  -2   2  117.47    7.27
  -1   2  -2  113.10    7.06
  -1   2  -2  117.33    6.90
  -1   2  -2  118.76    7.07
  -1   2  -2  115.59    7.12
  -1   2  -2  118.62    7.31
  -1   2  -2  116.33    7.11
   1  -2   2  102.51    7.12
   1  -2   2  103.12    6.89
   1  -2   2  120.86    7.07
   1  -2   2  108.89    7.32
  -2   2  -2    0.04    0.08
  -2   2  -2    0.06    0.05
  -2   2  -2    0.14    0.08
  -2   2  -2    0.11    0.11
  -2   2  -2    0.22    0.09
  -2   2  -2    0.15    0.08
   2  -2   2   -0.14    0.13
   2  -2   2    0.08    0.09
   2  -2   2   -0.02    0.08
   2  -2   2    0.20    0.08
  -3   2  -2  655.53   38.79
   3  -2   2  631.73   41.24
  -4   2  -2    1.99    0.23
  -4   2  -2    1.30    0.28
  -4   2  -2    1.17    0.19
  -4   2  -2    1.72    0.21
  -4   2  -2    2.03    0.23
   4  -2   2    1.38    0.19
   4  -2   2    1.81    0.20
   4  -2   2    1.83    0.23
  -5   2  -2   59.25    3.64
  -5   2  -2   46.09    3.59
  -5   2  -2   57.11    3.58
  -5   2  -2   60.65    3.60
   5  -2   2   55.96    3.59
   5  -2   2   60.00    3.64
  -6   2  -2   10.79    0.79
  -6   2  -2   11.62    0.83
  -6   2  -2   11.51    0.98
  -6   2  -2   10.33    0.81
   6  -2   2   11.93    0.82
   6  -2   2    9.48    0.82
  -7   2  -2    8.33    0.72
  -7   2  -2    9.79    0.95
  -7   2  -2    8.43    0.73
  -7   2  -2    9.32    0.68
   7  -2   2    8.76    0.73
   7  -2   2    8.30    0.74
  -8   2  -2   10.52    0.85
  -8   2  -2   10.97    1.08
   8  -2   2    9.45    0.89
  -9   2  -2    0.45    0.23
  -9   2  -2   -0.57    0.39
   9  -2   2    0.32    0.29
   9   1  -2    0.81    0.39
  -9  -1   2    1.64    0.43
  -9  -1   2    0.74    0.32
   8   1  -2    1.49    0.37
   8   1  -2    1.88    0.37
  -8  -1   2    1.78    0.35
  -8  -1   2    1.44    0.33
  -8  -1   2    1.60    0.44
   7   1  -2   17.20    1.33
   7   1  -2   18.96    1.30
  -7  -1   2   17.36    1.27
  -7  -1   2   14.75    1.28
  -7  -1   2   16.89    1.25
   6   1  -2    1.23    0.28
  -6  -1   2    1.39    0.36
  -6  -1   2    1.65    0.33
  -6  -1   2    1.64    0.28
   5   1  -2   36.49    2.46
   5   1  -2   36.53    2.53
  -5  -1   2   39.38    2.43
  -5  -1   2   37.11    2.44
  -5  -1   2   37.08    2.45
  -5  -1   2   38.18    2.48
   4   1  -2   11.82    0.85
   4   1  -2   11.89    0.84
  -4  -1   2   11.47    0.82
  -4  -1   2   11.59    0.86
  -4  -1   2   11.24    0.81
  -4  -1   2   10.37    0.83
   3   1  -2  124.88    7.43
   3   1  -2  123.62    7.64
  -3  -1   2  103.48    7.36
  -3  -1   2  124.49    7.18
  -3  -1   2  108.76    7.42
  -3  -1   2  123.46    7.44
   2   1  -2   89.46    5.73
   2   1  -2   86.57    5.52
   2   1  -2   89.25    5.56
  -2  -1   2   86.43    5.71
  -2  -1   2   92.17    5.52
  -2  -1   2   91.40    5.58
  -2  -1   2   89.71    5.37
  -2  -1   2   82.41    5.56
  -1  -1   2  576.34   36.94
   0   1  -2    0.33    0.11
   0   1  -2    0.44    0.13
   0   1  -2    0.52    0.11
   0  -1   2    0.79    0.12
   0  -1   2    0.70    0.13
   0  -1   2    0.70    0.13
   0  -1   2    0.42    0.10
   0  -1   2    0.36    0.11
   0  -1   2    0.63    0.13
  -2   1  -2  280.85   17.54
  -2   1  -2  299.61   17.95
  -2   1  -2  269.51   17.95
   2  -1   2  273.77   18.06
   2  -1   2  301.21   17.55
   2  -1   2  316.66   18.25
  -3   1  -2  220.00   14.01
  -3   1  -2  234.48   14.09
  -3   1  -2  241.76   14.02
  -3   1  -2  227.38   13.74
   3  -1   2  207.37   14.09
   3  -1   2  212.09   13.73
   3  -1   2  240.26   14.24
  -4   1  -2    0.22    0.09
  -4   1  -2    0.18    0.08
  -4   1  -2    0.27    0.20
  -4   1  -2    0.08    0.08
  -4   1  -2    0.35    0.10
   4  -1   2    0.21    0.10
   4  -1   2    0.17    0.08
  -5   1  -2   50.05    3.16
  -5   1  -2   49.94    3.14
  -5   1  -2   52.33    3.23
  -5   1  -2   54.45    3.15
  -5   1  -2   47.02    3.14
   5  -1   2   44.70    3.15
   5  -1   2   49.88    3.19
  -6   1  -2   16.90    1.24
  -6   1  -2   15.82    1.07
  -6   1  -2   14.53    1.06
   6  -1   2   13.66    1.06
   6  -1   2   17.29    1.09
  -7   1  -2    0.71    0.38
  -7   1  -2    0.41    0.18
   7  -1   2    0.30    0.17
   7  -1   2    0.16    0.18
  -8   1  -2    0.00    0.20
  -8   1  -2    0.44    0.41
   8  -1   2   -0.03    0.21
  -9   1  -2    0.51    0.24
  -9   1  -2    0.45    0.45
   9  -1   2    0.28    0.27
   9   0  -2    6.49    0.81
  -9   0   2    6.49    0.84
  -9   0   2    5.17    0.62
   8   0  -2    1.05    0.33
   8   0  -2    1.10    0.32
  -8   0   2    0.35    0.34
  -8   0   2    0.59    0.29
   7   0  -2    0.50    0.25
   7   0  -2    0.28    0.23
  -7   0   2    0.61    0.34
  -7   0   2    0.57    0.24
  -7   0   2    0.39    0.24
   6   0  -2    0.67    0.24
   6   0  -2    0.56    0.24
   6   0  -2    0.23    0.22
  -6   0   2    0.54    0.26
  -6   0   2    0.35    0.21
  -6   0   2   -0.68    0.25
   5   0  -2    2.65    0.34
   5   0  -2    2.92    0.37
   5   0  -2    3.08    0.36
  -5   0   2    2.53    0.38
  -5   0   2    3.13    0.39
  -5   0   2    3.30    0.38
  -5   0   2    2.99    0.34
   4   0  -2   80.40    4.95
   4   0  -2   76.60    5.09
  -4   0   2   78.30    4.81
  -4   0   2   76.57    4.95
  -4   0   2   79.69    4.91
  -4   0   2   75.29    4.94
   3   0  -2  284.43   18.67
   3   0  -2  299.12   19.26
  -3   0   2  310.80   18.09
  -3   0   2  300.27   18.68
  -3   0   2  302.60   18.56
   2   0  -2  119.49    7.09
   2   0  -2   95.95    7.03
   2   0  -2  120.81    7.31
  -2   0   2  106.12    7.09
  -2   0   2  117.42    7.04
  -2   0   2  118.03    7.10
   1   0  -2  140.94    9.17
   1   0  -2  151.43    9.01
   1   0  -2  147.31    9.07
   1   0  -2  146.88    9.07
   1   0  -2  128.87    9.35
  -1   0   2  147.86    9.07
  -1   0   2  137.10    9.07
  -1   0   2  160.63    9.35
   0   0  -2  142.39    8.62
   0   0  -2  140.01    8.56
   0   0  -2  123.55    8.61
   0   0  -2  145.28    8.87
   0   0   2  144.85    8.88
   0   0   2  141.39    8.57
   0   0   2  136.16    8.56
   0   0   2  138.41    8.71
   0   0   2  137.12    8.61
   0   0   2  131.77    8.61
  -2   0  -2   33.98    2.13
   2   0   2   33.28    2.13
  -3   0  -2   19.81    1.20
  -3   0  -2   18.21    1.29
   3   0   2   18.70    1.30
  -4   0  -2   -0.01    0.20
  -4   0  -2    0.29    0.08
  -4   0  -2    0.07    0.06
  -5   0  -2    7.86    0.69
  -5   0  -2    5.66    0.47
  -5   0  -2    7.35    0.50
  -6   0  -2   11.44    0.92
  -6   0  -2   14.32    1.13
   6   0   2   15.31    0.94
  -7   0  -2   10.86    0.82
  -7   0  -2   14.21    1.12
   7   0   2   12.02    0.84
   7   0   2   10.09    0.82
  -8   0  -2    2.70    0.34
  -8   0  -2    2.94    0.63
   8   0   2    2.72    0.37
   9  -1  -2    5.98    0.78
  -9   1   2    5.96    0.73
  -9   1   2    5.11    0.77
   8  -1  -2   -0.39    0.22
   8  -1  -2    0.15    0.26
  -8   1   2    0.07    0.23
  -8   1   2    0.05    0.26
  -8   1   2    0.00    0.35
   7  -1  -2    1.32    0.31
   7  -1  -2    1.21    0.32
  -7   1   2    0.88    0.38
  -7   1   2    1.81    0.33
  -7   1   2    1.22    0.33
   6  -1  -2    0.85    0.27
   6  -1  -2    0.60    0.25
   6  -1  -2    0.93    0.28
  -6   1   2    0.85    0.27
  -6   1   2    0.69    0.23
   5  -1  -2   71.64    4.53
   5  -1  -2   72.44    4.57
   5  -1  -2   63.59    4.66
  -5   1   2   76.24    4.49
  -5   1   2   72.67    4.42
  -5   1   2   65.80    4.52
   4  -1  -2   70.61    4.64
   4  -1  -2   71.63    4.76
   4  -1  -2   76.28    4.62
  -4   1   2   69.84    4.61
  -4   1   2   71.97    4.56
  -4   1   2   72.63    4.49
   3  -1  -2  103.60    6.28
   3  -1  -2   94.10    6.09
   3  -1  -2   89.10    6.13
  -3   1   2   96.48    6.08
  -3   1   2   93.06    6.25
  -3   1   2   95.02    6.03
  -3   1   2  102.65    5.91
   2  -1  -2  267.00   17.31
   2  -1  -2  281.79   16.80
   2  -1  -2  265.32   16.68
   2  -1  -2  276.65   16.99
  -2   1   2  242.19   16.97
  -2   1   2  288.44   17.32
  -2   1   2  262.90   16.79
   1  -1  -2  210.51   13.37
   1  -1  -2  221.55   13.38
   1  -1  -2  218.23   13.29
   1  -1  -2  215.76   13.79
   1  -1  -2  212.91   13.53
  -1   1   2  198.57   13.29
  -1   1   2  215.24   13.53
  -1   1   2  220.26   13.38
  -1   1   2  217.34   13.38
   1   1   2  551.78   33.22
  -2  -1  -2   94.14    5.68
   2   1   2   91.07    5.67
  -3  -1  -2   82.74    5.12
  -4  -1  -2    8.23    0.70
  -5  -1  -2    0.54    0.27
  -5  -1  -2    0.54    0.10
  -6  -1  -2   20.64    1.45
  -6  -1  -2   26.48    1.71
  -7  -1  -2    0.87    0.38
  -8  -1  -2    0.91    0.20
  -8  -1  -2    0.43    0.43
   8   1   2    0.50    0.21
   9  -2  -2    6.58    0.86
  -9   2   2    8.51    0.88
  -9   2   2    7.71    0.95
   8  -2  -2   -0.56    0.24
   8  -2  -2    0.08    0.24
  -8   2   2    0.10    0.27
  -8   2   2   -0.19    0.32
  -8   2   2   -0.35    0.22
   7  -2  -2    9.87    0.87
   7  -2  -2    8.76    0.88
  -7   2   2    9.37    0.94
  -7   2   2    9.58    0.83
  -7   2   2   10.07    0.88
   6  -2  -2  100.81    6.96
   6  -2  -2  107.51    7.11
   6  -2  -2  114.56    6.91
  -6   2   2  105.92    6.84
  -6   2   2  107.63    6.74
  -6   2   2  112.01    6.91
   5  -2  -2  128.02    8.31
   5  -2  -2  136.22    8.49
   5  -2  -2  115.66    8.23
  -5   2   2  133.78    8.17
  -5   2   2  136.18    8.24
  -5   2   2  129.40    8.00
   4  -2  -2   21.96    1.42
   4  -2  -2   20.44    1.45
   4  -2  -2   20.01    1.41
  -4   2   2   19.72    1.38
  -4   2   2   19.32    1.40
  -4   2   2   19.80    1.38
   3  -2  -2   10.50    0.82
   3  -2  -2   11.77    0.79
   3  -2  -2   10.15    0.85
   3  -2  -2   11.73    0.83
  -3   2   2   11.59    0.83
  -3   2   2    9.89    0.82
  -3   2   2   12.40    0.81
  -3   2   2   10.84    0.80
   2  -2  -2  126.72    8.54
   2  -2  -2  136.69    8.54
   2  -2  -2  137.37    8.61
   2  -2  -2  136.82    8.87
   2  -2  -2  139.75    8.69
  -2   2   2  140.93    8.70
  -2   2   2  141.22    8.87
  -2   2   2  137.08    8.61
   1  -2  -2   15.34    1.06
   1  -2  -2   15.18    1.04
   1  -2  -2   16.05    1.07
  -1   2   2   14.99    1.04
  -1   2   2   16.11    1.06
  -1   2   2   16.41    1.07
  -1  -2  -2    3.96    0.33
  -1  -2  -2    3.93    0.32
   1   2   2    4.09    0.36
   1   2   2    4.53    0.32
  -2  -2  -2   20.36    1.21
   2   2   2   18.53    1.26
   2   2   2   17.93    1.20
  -3  -2  -2   37.60    2.42
  -4  -2  -2   85.56    5.34
  -5  -2  -2    1.11    0.35
  -5  -2  -2    1.20    0.17
  -5  -2  -2    1.03    0.14
  -6  -2  -2    4.40    0.37
  -6  -2  -2    4.54    0.65
  -7  -2  -2    5.18    0.43
  -8  -2  -2    2.08    0.27
  -8  -2  -2    3.49    0.74
  -8  -2  -2    2.93    0.34
   8   2   2    2.33    0.32
   9  -3  -2    3.16    0.63
  -9   3   2    3.67    0.67
  -9   3   2    4.59    0.65
   8  -3  -2    0.95    0.34
   8  -3  -2    1.07    0.40
  -8   3   2    0.82    0.44
  -8   3   2    0.65    0.35
   7  -3  -2    2.01    0.44
   7  -3  -2    1.39    0.34
   7  -3  -2    2.28    0.46
  -7   3   2    1.91    0.41
  -7   3   2    1.52    0.44
  -7   3   2    2.10    0.36
   6  -3  -2   48.49    3.34
   6  -3  -2   48.60    3.43
   6  -3  -2   49.03    3.33
  -6   3   2   50.96    3.32
  -6   3   2   50.06    3.26
  -6   3   2   51.51    3.28
   5  -3  -2   52.11    3.46
   5  -3  -2   46.64    3.35
   5  -3  -2   51.82    3.35
  -5   3   2   51.21    3.28
  -5   3   2   52.34    3.30
  -5   3   2   50.54    3.34
   4  -3  -2   15.76    1.11
   4  -3  -2   14.99    1.15
   4  -3  -2   14.94    1.12
  -4   3   2   15.09    1.12
  -4   3   2   15.83    1.08
  -4   3   2   14.93    1.08
  -4   3   2   14.44    1.10
   3  -3  -2  240.82   15.18
   3  -3  -2  250.23   15.07
   3  -3  -2  243.69   15.33
   3  -3  -2  231.02   15.65
  -3   3   2  230.54   15.33
  -3   3   2  258.52   15.19
  -3   3   2  241.76   15.63
   2  -3  -2    5.50    0.44
   2  -3  -2    5.46    0.44
   2  -3  -2    5.41    0.46
   2  -3  -2    5.70    0.46
   2  -3  -2    4.90    0.47
  -2   3   2    4.95    0.46
  -2   3   2    5.15    0.47
  -2   3   2    5.35    0.44
  -2   3   2    4.79    0.43
   1  -3  -2   27.34    1.78
   1  -3  -2   27.00    1.75
   1  -3  -2   27.32    1.75
  -1   3   2   26.03    1.81
  -1   3   2   26.22    1.77
   0  -3  -2  607.40   37.78
  -1  -3  -2  341.58   19.91
  -1  -3  -2  316.88   19.91
  -1  -3  -2  313.08   19.80
  -1  -3  -2  309.09   19.79
   1   3   2  317.93   19.91
  -2  -3  -2   39.68    2.43
  -2  -3  -2   38.94    2.43
  -2  -3  -2   37.39    2.42
   2   3   2   37.69    2.42
   2   3   2   37.60    2.43
  -3  -3  -2   22.34    1.43
  -3  -3  -2   22.44    1.44
  -4  -3  -2   21.79    1.33
  -4  -3  -2   19.21    1.31
  -5  -3  -2   52.49    3.60
  -5  -3  -2   61.16    3.63
  -5  -3  -2   59.88    3.72
  -6  -3  -2   36.65    2.41
  -6  -3  -2   36.39    2.38
  -6  -3  -2   41.01    2.58
  -7  -3  -2    0.82    0.21
  -7  -3  -2    0.64    0.15
  -7  -3  -2    0.60    0.39
   9  -4  -2    3.65    0.58
   9  -4  -2    2.95    0.66
  -9   4   2    4.19    0.66
  -9   4   2    2.01    0.59
   8  -4  -2    1.25    0.37
   8  -4  -2    0.64    0.38
  -8   4   2    1.70    0.51
  -8   4   2    1.71    0.43
   7  -4  -2    0.28    0.30
   7  -4  -2    0.22    0.26
   7  -4  -2    0.14    0.28
  -7   4   2    0.12    0.34
  -7   4   2    0.26    0.29
   6  -4  -2    4.90    0.65
   6  -4  -2    6.91    0.68
   6  -4  -2    4.96    0.67
  -6   4   2    5.49    0.66
  -6   4   2    3.61    0.54
   5  -4  -2  276.52   17.17
   5  -4  -2  264.06   16.63
   5  -4  -2  260.95   16.80
  -5   4   2  267.35   16.64
  -5   4   2  273.63   16.52
  -5   4   2  245.94   16.13
   4  -4  -2    5.21    0.48
   4  -4  -2    4.58    0.54
   4  -4  -2    5.04    0.50
   4  -4  -2    5.38    0.55
  -4   4   2    5.53    0.50
  -4   4   2    5.44    0.53
  -4   4   2    4.95    0.53
  -4   4   2    5.14    0.48
   3  -4  -2   14.02    1.01
   3  -4  -2   14.17    0.98
   3  -4  -2   11.32    0.94
   3  -4  -2   13.12    1.02
  -3   4   2   10.37    0.95
  -3   4   2   13.03    0.96
  -3   4   2   15.89    1.03
  -3   4   2   13.79    1.00
  -3   4   2   13.95    0.99
   2  -4  -2    4.94    0.51
   2  -4  -2    5.06    0.48
   2  -4  -2    5.93    0.49
   2  -4  -2    4.71    0.53
  -2   4   2    5.38    0.47
  -2   4   2    5.37    0.52
  -2   4   2    6.57    0.51
  -2   4   2    5.24    0.51
   1  -4  -2    1.18    0.24
   1  -4  -2    1.79    0.27
  -1   4   2    1.02    0.19
  -1   4   2    1.45    0.22
   0  -4  -2   47.71    3.39
   0  -4  -2   52.98    3.39
   0  -4  -2   55.10    3.37
   0  -4  -2   55.21    3.38
   0   4   2   53.15    3.39
  -1  -4  -2   88.58    5.29
  -1  -4  -2   94.29    5.26
  -1  -4  -2   76.42    5.25
  -1  -4  -2   76.25    5.27
   1   4   2   82.07    5.27
  -2  -4  -2    7.17    0.49
  -2  -4  -2    6.95    0.51
  -2  -4  -2    5.32    0.49
  -2  -4  -2    6.86    0.52
   2   4   2    6.06    0.49
  -3  -4  -2   -0.02    0.09
  -3  -4  -2    0.07    0.11
   3   4   2    0.00    0.08
  -4  -4  -2   13.75    0.88
  -4  -4  -2   11.38    0.84
  -5  -4  -2   14.19    1.00
  -5  -4  -2   15.86    1.03
  -6  -4  -2   27.54    1.74
  -6  -4  -2   25.45    1.71
  -7  -4  -2   -0.24    0.12
  -7  -4  -2    0.04    0.16
   9  -5  -2    0.37    0.36
  -9   5   2    0.08    0.38
  -9   5   2    0.70    0.49
   8  -5  -2    3.38    0.55
   8  -5  -2    4.27    0.66
  -8   5   2    5.52    0.77
  -8   5   2    4.85    0.66
   7  -5  -2    0.66    0.36
   7  -5  -2    0.17    0.25
   7  -5  -2    0.95    0.35
  -7   5   2    0.39    0.37
  -7   5   2    0.84    0.32
   6  -5  -2   34.92    2.51
   6  -5  -2   35.57    2.51
   6  -5  -2   33.84    2.60
  -6   5   2   42.23    2.53
  -6   5   2   40.44    2.56
  -6   5   2   29.80    2.48
   5  -5  -2   35.65    2.62
   5  -5  -2   36.47    2.55
   5  -5  -2   38.31    2.55
  -5   5   2   35.42    2.53
  -5   5   2   37.86    2.50
  -5   5   2   37.93    2.50
   4  -5  -2    1.58    0.29
   4  -5  -2    3.34    0.39
   4  -5  -2    1.85    0.33
  -4   5   2    2.33    0.36
  -4   5   2    2.55    0.38
  -4   5   2    2.89    0.42
  -4   5   2    1.86    0.29
   3  -5  -2   17.59    1.36
   3  -5  -2   19.61    1.35
   3  -5  -2   19.18    1.39
   3  -5  -2   18.09    1.32
  -3   5   2   18.44    1.34
  -3   5   2   19.28    1.33
  -3   5   2   19.53    1.38
  -3   5   2   18.34    1.38
  -3   5   2   19.46    1.35
   2  -5  -2  321.37   23.22
   2  -5  -2  368.10   23.08
  -2   5   2  381.29   23.10
  -2   5   2  396.65   23.49
  -2   5   2  391.48   23.97
   1  -5  -2   27.38    1.86
   1  -5  -2   25.53    1.87
   1  -5  -2   26.87    1.90
  -1   5   2   29.35    1.89
  -1   5   2   30.01    1.90
   0  -5  -2    4.27    0.44
   0  -5  -2    3.94    0.47
   0  -5  -2    3.76    0.42
   0   5   2    4.13    0.44
  -1  -5  -2    7.46    0.58
  -1  -5  -2    7.25    0.59
  -1  -5  -2    6.99    0.63
  -1  -5  -2    7.21    0.59
   1   5   2    6.65    0.58
  -2  -5  -2    0.01    0.12
  -2  -5  -2    0.00    0.14
  -2  -5  -2    0.22    0.12
   2   5   2   -0.04    0.09
  -3  -5  -2    5.89    0.49
  -3  -5  -2    5.61    0.43
  -3  -5  -2    5.11    0.47
  -3  -5  -2    5.46    0.47
  -4  -5  -2   13.81    0.99
  -4  -5  -2   14.79    1.02
  -5  -5  -2   10.50    0.85
  -5  -5  -2   13.90    0.90
  -6  -5  -2    0.50    0.21
  -6  -5  -2    0.43    0.16
  -7  -5  -2   -0.02    0.18
  -7  -5  -2   -0.15    0.14
   9  -6  -2    0.53    0.41
  -9   6   2    1.12    0.48
  -9   6   2   -0.06    0.43
   8  -6  -2    7.77    0.89
  -8   6   2    7.81    0.92
  -8   6   2    8.22    0.99
   7  -6  -2   10.06    0.90
   7  -6  -2    7.34    0.89
   7  -6  -2    8.96    0.97
  -7   6   2    8.53    0.92
  -7   6   2    7.39    0.93
   6  -6  -2    3.93    0.64
   6  -6  -2    2.82    0.53
   6  -6  -2    2.39    0.46
  -6   6   2    3.69    0.59
  -6   6   2    3.43    0.60
   5  -6  -2   49.13    3.26
   5  -6  -2   46.30    3.25
  -5   6   2   46.00    3.25
  -5   6   2   51.17    3.19
   4  -6  -2    1.93    0.40
   4  -6  -2    3.81    0.45
  -4   6   2    2.69    0.44
  -4   6   2    2.63    0.44
  -4   6   2    3.03    0.40
  -4   6   2    3.92    0.50
  -4   6   2    3.48    0.45
   3  -6  -2   65.91    4.14
   3  -6  -2   66.78    4.17
   3  -6  -2   62.09    4.20
  -3   6   2   62.41    4.30
  -3   6   2   64.53    4.15
  -3   6   2   62.42    4.19
   2  -6  -2   76.11    4.85
   2  -6  -2   79.48    4.79
  -2   6   2   69.75    4.85
  -2   6   2   75.55    4.84
  -2   6   2   72.92    4.78
   1  -6  -2   53.05    3.42
   1  -6  -2   53.69    3.41
   1  -6  -2   51.55    3.45
  -1   6   2   50.73    3.43
  -1   6   2   53.11    3.45
   0  -6  -2    3.26    0.41
   0  -6  -2    4.46    0.49
   0  -6  -2    4.61    0.46
   0   6   2    3.98    0.44
  -1  -6  -2    0.44    0.18
  -1  -6  -2    0.65    0.21
  -1  -6  -2    0.37    0.23
  -1  -6  -2    0.60    0.21
   1   6   2    0.57    0.19
  -2  -6  -2    5.54    0.52
  -2  -6  -2    5.31    0.55
  -2  -6  -2    5.65    0.48
  -2  -6  -2    5.42    0.51
   2   6   2    5.10    0.48
  -3  -6  -2   10.57    0.77
  -3  -6  -2    8.61    0.74
  -3  -6  -2    9.41    0.74
  -4  -6  -2    2.86    0.35
  -4  -6  -2    2.31    0.34
  -5  -6  -2    3.83    0.42
  -5  -6  -2    3.08    0.38
  -6  -6  -2    0.00    0.17
  -6  -6  -2    0.04    0.20
  -9   7   2    8.08    1.03
  -9   7   2    6.70    0.90
   8  -7  -2    3.64    0.66
  -8   7   2    2.97    0.66
  -8   7   2    3.95    0.68
   7  -7  -2    5.06    0.70
   7  -7  -2    5.30    0.73
  -7   7   2    6.20    0.79
   6  -7  -2    8.81    0.94
   6  -7  -2    7.12    0.81
  -6   7   2    8.07    0.87
  -6   7   2    6.84    0.88
   5  -7  -2   21.29    1.65
  -5   7   2   22.19    1.61
  -5   7   2   18.08    1.60
  -5   7   2   23.28    1.61
   4  -7  -2    1.63    0.33
   4  -7  -2    1.83    0.42
  -4   7   2    1.70    0.38
  -4   7   2    1.58    0.37
  -4   7   2    1.75    0.32
  -4   7   2    1.61    0.37
   3  -7  -2   48.61    3.14
   3  -7  -2   47.13    3.16
   3  -7  -2   45.84    3.21
  -3   7   2   48.80    3.21
  -3   7   2   46.80    3.17
  -3   7   2   46.04    3.27
  -3   7   2   49.03    3.16
   2  -7  -2   15.81    1.20
   2  -7  -2   14.69    1.25
  -2   7   2   16.64    1.24
  -2   7   2   15.73    1.19
   1  -7  -2    0.03    0.23
   1  -7  -2    0.28    0.20
   1  -7  -2    0.25    0.21
  -1   7   2    0.20    0.17
  -1   7   2    0.16    0.19
   0  -7  -2    3.59    0.45
   0  -7  -2    2.77    0.44
   0  -7  -2    3.01    0.40
   0   7   2    2.59    0.38
  -1  -7  -2    8.28    0.87
  -1  -7  -2   11.89    0.87
  -1  -7  -2   10.44    0.85
   1   7   2   10.37    0.84
  -2  -7  -2    0.60    0.23
  -2  -7  -2    0.33    0.20
  -2  -7  -2    0.29    0.25
  -3  -7  -2    1.49    0.30
  -3  -7  -2    2.28    0.34
  -3  -7  -2    1.58    0.31
  -4  -7  -2    1.28    0.28
  -4  -7  -2    1.33    0.30
  -5  -7  -2    1.88    0.34
  -5  -7  -2    1.69    0.32
  -8   8   2    2.19    0.57
  -8   8   2    3.13    0.66
   7  -8  -2    2.64    0.57
  -7   8   2    2.88    0.63
  -7   8   2    3.84    0.68
   6  -8  -2    1.72    0.49
  -6   8   2    2.15    0.53
  -6   8   2    1.93    0.54
   5  -8  -2   34.79    2.53
  -5   8   2   35.34    2.51
  -5   8   2   34.27    2.42
   4  -8  -2    2.04    0.48
  -4   8   2    1.66    0.33
  -4   8   2    2.35    0.49
  -4   8   2    2.01    0.43
   3  -8  -2    2.47    0.48
   3  -8  -2    2.10    0.41
  -3   8   2    2.14    0.37
  -3   8   2    1.46    0.34
   2  -8  -2   27.29    1.84
   2  -8  -2   24.34    1.80
   2  -8  -2   24.65    1.87
  -2   8   2   24.87    1.82
  -2   8   2   23.21    1.78
   1  -8  -2  118.89    8.63
   1  -8  -2  137.09    8.65
   1  -8  -2  145.06    8.75
  -1   8   2  136.83    8.77
  -1   8   2  144.51    8.71
   0  -8  -2    0.64    0.30
   0  -8  -2    1.12    0.34
   0  -8  -2    0.49    0.35
   0   8   2    0.71    0.31
  -1  -8  -2    0.13    0.30
  -1  -8  -2    0.47    0.27
  -1  -8  -2    0.23    0.25
   1   8   2    0.40    0.23
  -2  -8  -2    2.40    0.42
  -2  -8  -2    1.75    0.35
  -2  -8  -2    1.24    0.33
  -3  -8  -2   18.97    1.56
  -3  -8  -2   22.41    1.59
  -3  -8  -2   24.71    1.58
  -4  -8  -2    0.25    0.21
  -4  -8  -2    0.03    0.21
  -5  -8  -2    0.78    0.27
  -5  -8  -2    0.27    0.25
  -8   9   2    5.16    0.86
  -8   9   2    6.27    0.95
   7  -9  -2    0.85    0.46
  -7   9   2    1.07    0.47
  -7   9   2    1.40    0.49
   6  -9  -2    0.46    0.44
  -6   9   2    0.40    0.35
  -6   9   2    0.12    0.41
   5  -9  -2    0.48    0.41
  -5   9   2    1.26    0.43
  -5   9   2    0.80    0.41
   4  -9  -2    2.63    0.57
  -4   9   2    1.78    0.44
  -4   9   2    1.92    0.45
   3  -9  -2   -0.03    0.31
  -3   9   2    0.26    0.30
   2  -9  -2    0.36    0.32
   2  -9  -2    0.57    0.32
  -2   9   2    0.89    0.36
   1  -9  -2    3.13    0.55
   1  -9  -2    4.18    0.56
  -1   9   2    3.75    0.58
   0  -9  -2    1.76    0.39
   0  -9  -2    1.08    0.41
   0   9   2    1.95    0.41
  -1  -9  -2    0.60    0.36
  -1  -9  -2    0.86    0.34
  -1  -9  -2    1.60    0.38
  -2  -9  -2    4.75    0.62
  -2  -9  -2    4.82    0.61
  -2  -9  -2    5.39    0.64
  -3  -9  -2    2.28    0.42
  -3  -9  -2    2.30    0.42
  -3  -9  -2    2.59    0.45
  -4  -9  -2   -0.20    0.26
  -4  -9  -2    0.18    0.26
   8 -10  -2   -0.48    0.52
  -8  10   2   -0.12    0.49
   7 -10  -2   -0.16    0.44
  -7  10   2    0.03    0.42
  -7  10   2   -0.05    0.39
   6 -10  -2   13.30    1.33
  -6  10   2   11.83    1.26
  -6  10   2   11.42    1.20
   5 -10  -2    0.13    0.42
  -5  10   2    0.36    0.37
  -5  10   2   -0.09    0.34
   4 -10  -2    2.40    0.58
  -4  10   2    2.85    0.53
  -4  10   2    1.52    0.44
   3 -10  -2    0.36    0.35
  -3  10   2    0.17    0.29
   2 -10  -2    2.99    0.51
   2 -10  -2    3.19    0.58
  -2  10   2    3.38    0.55
   1 -10  -2    1.10    0.41
   1 -10  -2    1.37    0.39
  -1  10   2    0.98    0.36
   0 -10  -2   14.36    1.36
   0 -10  -2   17.03    1.34
  -1 -10  -2    2.77    0.56
  -1 -10  -2    3.23    0.55
  -2 -10  -2   -0.03    0.32
  -2 -10  -2    0.78    0.38
  -3 -10  -2    0.51    0.33
  -3 -10  -2    0.78    0.36
   7 -11  -2    0.02    0.51
  -7  11   2    0.53    0.49
  -7  11   2    0.90    0.54
   6 -11  -2    9.84    1.22
  -6  11   2   12.70    1.21
  -6  11   2   11.03    1.30
   5 -11  -2   -0.51    0.41
  -5  11   2    0.30    0.38
  -5  11   2    0.41    0.42
   4 -11  -2    0.55    0.47
  -4  11   2    0.39    0.37
  -4  11   2    0.66    0.45
   3 -11  -2    6.08    0.89
  -3  11   2    6.07    0.87
  -3  11   2    4.52    0.71
   2 -11  -2    0.81    0.42
  -2  11   2    0.30    0.31
   1 -11  -2    1.51    0.53
   1 -11  -2    2.26    0.53
   0 -11  -2    2.13    0.55
   0 -11  -2    3.09    0.59
  -1 -11  -2    1.08    0.50
  -1 -11  -2    1.02    0.42
  -2 -11  -2   -0.41    0.32
  -2 -11  -2   -0.35    0.36
   6 -12  -2    4.55    0.84
  -6  12   2    3.63    0.75
  -6  12   2    4.12    0.74
   5 -12  -2    2.55    0.70
  -5  12   2    2.01    0.59
  -5  12   2    2.35    0.62
   4 -12  -2   -0.49    0.45
  -4  12   2    0.05    0.42
  -4  12   2   -0.43    0.34
   3 -12  -2    0.33    0.44
  -3  12   2    0.45    0.40
  -3  12   2   -0.09    0.39
   2 -12  -2    3.01    0.67
   1 -12  -2   12.61    1.39
   0 -12  -2    0.42    0.47
  -1 -12  -2    1.54    0.48
   4 -13  -2    3.58    0.88
  -4  13   2    2.95    0.67
  -4  13   2    3.15    0.77
   3 -13  -2   -0.14    0.57
  -3  13   2    0.25    0.46
  -3  13   2    0.40    0.48
   2 -13  -2    1.71    0.66
   1 -14   3    0.83    0.59
  -2  14  -3    2.91    0.72
   2 -14   3    2.25    0.88
  -3  14  -3   -0.10    0.41
   3 -14   3   -0.47    0.62
  -4  14  -3   -0.25    0.42
   4 -14   3   -1.05    0.41
  -1 -13   3   -0.22    0.53
   0 -13   3   -0.40    0.51
  -1  13  -3    0.23    0.35
   1 -13   3    0.31    0.58
  -2  13  -3   -0.07    0.35
   2 -13   3    0.89    0.51
  -3  13  -3    0.91    0.50
   3 -13   3    1.48    0.74
  -4  13  -3    0.33    0.43
  -4  13  -3    0.51    0.37
   4 -13   3   -0.50    0.50
  -5  13  -3    1.92    0.57
  -5  13  -3    2.95    0.73
   5 -13   3    1.85    0.71
  -6  13  -3    1.30    0.54
  -6  13  -3    1.69    0.60
   6 -13   3    1.11    0.66
  -1 -12   3    0.09    0.42
   0  12  -3    0.16    0.29
   0 -12   3   -0.06    0.38
  -1  12  -3   -0.24    0.30
   1 -12   3   -0.14    0.43
  -2  12  -3   -0.14    0.32
  -2  12  -3   -0.04    0.26
   2 -12   3   -1.08    0.40
  -3  12  -3    1.80    0.47
  -3  12  -3    1.37    0.49
   3 -12   3    1.42    0.57
  -4  12  -3    3.89    0.63
  -4  12  -3    3.46    0.67
   4 -12   3    3.86    0.80
  -5  12  -3    4.36    0.71
  -5  12  -3    4.00    0.70
   5 -12   3    3.58    0.78
  -6  12  -3    3.79    0.71
  -6  12  -3    4.85    0.83
   6 -12   3    3.78    0.80
  -7  12  -3    2.23    0.67
  -7  12  -3    1.98    0.55
  -4 -11   3   -0.53    0.34
  -4 -11   3   -0.67    0.44
  -3 -11   3    1.62    0.61
  -3 -11   3    2.15    0.55
  -2 -11   3   23.12    1.81
  -2 -11   3   18.22    1.62
   1  11  -3    4.13    0.64
  -1 -11   3    2.98    0.56
  -1 -11   3    1.64    0.52
   0  11  -3    0.10    0.28
   0 -11   3   -0.29    0.35
   0 -11   3   -0.01    0.29
  -1  11  -3   16.40    1.37
  -1  11  -3   15.71    1.18
   1 -11   3   17.05    1.54
  -2  11  -3    0.29    0.32
  -2  11  -3   -0.13    0.24
   2 -11   3   -0.01    0.40
  -3  11  -3   28.66    2.19
  -3  11  -3   28.72    2.04
   3 -11   3   30.16    2.37
  -4  11  -3    0.27    0.34
  -4  11  -3    0.32    0.35
  -5  11  -3    6.55    0.88
  -5  11  -3    8.57    0.94
   5 -11   3    6.84    0.93
  -6  11  -3    0.04    0.37
  -6  11  -3   -0.20    0.35
   6 -11   3   -0.10    0.37
  -7  11  -3    4.36    0.83
  -7  11  -3    3.67    0.71
  -4 -10   3    0.06    0.39
  -4 -10   3    0.34    0.33
  -3 -10   3   18.27    1.51
  -3 -10   3   16.51    1.57
  -2 -10   3    0.30    0.32
  -2 -10   3    1.14    0.48
   1  10  -3    7.40    0.78
  -1 -10   3    6.14    0.75
  -1 -10   3    5.07    0.78
   0  10  -3    0.08    0.27
   0 -10   3    0.12    0.38
   0 -10   3    0.08    0.27
  -1  10  -3    0.72    0.34
  -1  10  -3    1.25    0.26
   1 -10   3    0.13    0.36
   1 -10   3    0.31    0.27
  -2  10  -3   46.62    2.88
  -2  10  -3   37.33    3.02
   2 -10   3   49.75    3.20
  -3  10  -3    2.70    0.52
  -3  10  -3    2.49    0.47
  -3  10  -3    2.16    0.44
   3 -10   3    1.77    0.57
  -4  10  -3   36.93    2.39
  -4  10  -3   32.25    2.45
   4 -10   3   33.19    2.55
  -5  10  -3    4.80    0.70
  -5  10  -3    5.34    0.75
   5 -10   3    4.71    0.73
  -6  10  -3    1.03    0.42
  -6  10  -3    0.92    0.44
   6 -10   3    1.05    0.45
  -7  10  -3    1.05    0.50
  -7  10  -3    0.40    0.41
  -8  10  -3    0.85    0.44
  -8  10  -3    1.12    0.50
  -5  -9   3    0.39    0.41
  -5  -9   3    0.33    0.35
  -4  -9   3    3.47    0.57
  -4  -9   3    5.49    0.75
  -3  -9   3   16.37    1.38
  -3  -9   3   16.49    1.44
   2   9  -3    0.71    0.31
  -2  -9   3    1.48    0.34
  -2  -9   3    0.63    0.39
   1   9  -3    0.49    0.29
  -1  -9   3    1.32    0.36
  -1  -9   3    1.11    0.41
   0   9  -3    0.33    0.15
   0   9  -3    0.19    0.25
   0  -9   3    0.09    0.33
   0  -9   3    0.50    0.31
  -1   9  -3    6.91    0.75
  -1   9  -3    6.79    0.58
   1  -9   3    6.13    0.80
   1  -9   3    6.21    0.69
  -2   9  -3    7.28    0.64
  -2   9  -3    7.30    0.82
   2  -9   3    7.53    0.87
   2  -9   3    5.66    0.68
  -3   9  -3   44.12    2.67
  -3   9  -3   30.36    2.57
  -3   9  -3   40.34    2.63
  -3   9  -3   42.98    2.56
   3  -9   3   32.54    2.70
  -4   9  -3   48.13    3.07
  -4   9  -3   49.49    3.14
  -4   9  -3   37.63    3.10
   4  -9   3   49.77    3.25
  -5   9  -3   16.50    1.36
  -5   9  -3   16.23    1.36
  -5   9  -3   16.26    1.35
   5  -9   3   18.02    1.46
  -6   9  -3    2.81    0.57
  -6   9  -3    2.64    0.50
  -6   9  -3    1.89    0.38
   6  -9   3    1.56    0.47
  -7   9  -3    0.19    0.43
  -7   9  -3    0.86    0.37
  -7   9  -3    0.18    0.35
  -8   9  -3    1.74    0.55
  -8   9  -3    1.95    0.52
   6   8  -3    0.08    0.30
  -6  -8   3    0.17    0.37
  -6  -8   3   -0.02    0.33
  -5  -8   3    2.01    0.48
  -5  -8   3    1.03    0.39
  -4  -8   3    1.02    0.41
  -4  -8   3    0.63    0.34
  -4  -8   3    0.59    0.26
   3   8  -3    8.06    0.79
  -3  -8   3    7.91    0.90
  -3  -8   3    8.44    0.78
  -3  -8   3    8.10    0.85
   2   8  -3   20.34    1.55
  -2  -8   3   20.74    1.53
  -2  -8   3   22.56    1.66
  -2  -8   3   21.20    1.57
   1   8  -3    0.07    0.21
  -1  -8   3    0.70    0.27
  -1  -8   3   -0.10    0.18
  -1  -8   3   -0.04    0.28
   0   8  -3    3.62    0.33
   0   8  -3    2.99    0.46
   0  -8   3    2.64    0.49
   0  -8   3    3.14    0.44
   0  -8   3    3.30    0.45
  -1   8  -3    6.68    0.70
  -1   8  -3    7.93    0.60
  -1   8  -3    6.98    0.65
   1  -8   3    6.78    0.69
   1  -8   3    7.25    0.81
   1  -8   3    6.69    0.66
  -2   8  -3   13.53    1.11
  -2   8  -3   14.28    1.07
  -2   8  -3   13.34    1.00
   2  -8   3   12.72    1.04
   2  -8   3   13.46    1.17
  -3   8  -3   97.58    6.35
  -3   8  -3   95.75    6.17
  -3   8  -3  101.73    6.40
  -3   8  -3   94.69    6.41
  -3   8  -3  103.58    6.36
   3  -8   3  103.38    6.47
   3  -8   3   98.16    6.33
  -4   8  -3    2.39    0.41
  -4   8  -3    2.03    0.44
  -4   8  -3    1.65    0.34
  -5   8  -3   11.41    0.97
  -5   8  -3   10.87    1.02
  -5   8  -3   10.37    0.97
   5  -8   3   11.31    1.07
  -6   8  -3    5.91    0.76
  -6   8  -3    6.98    0.87
  -6   8  -3    8.03    0.80
   6  -8   3    5.87    0.77
  -7   8  -3    0.55    0.33
  -7   8  -3    0.25    0.42
  -7   8  -3    0.49    0.35
  -8   8  -3    0.11    0.30
  -8   8  -3    0.29    0.37
  -8   8  -3    0.30    0.32
   6   7  -3    1.12    0.35
  -6  -7   3    0.98    0.37
  -6  -7   3    0.87    0.28
  -6  -7   3    1.29    0.37
   5   7  -3   22.47    1.78
  -5  -7   3   24.22    1.80
  -5  -7   3   24.15    1.72
  -5  -7   3   25.43    1.80
  -4  -7   3    0.46    0.33
  -4  -7   3    0.02    0.25
  -4  -7   3    0.28    0.22
   3   7  -3    2.68    0.41
  -3  -7   3    2.81    0.50
  -3  -7   3    2.49    0.38
  -3  -7   3    2.30    0.40
   2   7  -3   10.56    0.88
  -2  -7   3   11.16    0.92
  -2  -7   3    9.66    0.96
  -2  -7   3   11.27    0.87
   1   7  -3   15.75    1.36
  -1  -7   3   20.85    1.47
  -1  -7   3   18.35    1.38
  -1  -7   3   21.73    1.38
   0   7  -3    5.22    0.54
   0   7  -3    4.19    0.48
   0   7  -3    4.52    0.38
   0  -7   3    4.51    0.59
   0  -7   3    4.82    0.54
  -1   7  -3    3.36    0.42
  -1   7  -3    3.26    0.46
  -1   7  -3    3.54    0.37
   1  -7   3    2.74    0.48
   1  -7   3    3.30    0.40
   1  -7   3    2.87    0.42
  -2   7  -3   64.11    3.91
  -2   7  -3   51.86    4.05
  -2   7  -3   65.69    4.04
  -2   7  -3   63.14    4.04
   2  -7   3   63.36    4.12
   2  -7   3   65.36    4.03
  -3   7  -3    2.90    0.44
  -3   7  -3    3.99    0.41
  -3   7  -3    3.14    0.44
  -3   7  -3    2.60    0.40
   3  -7   3    4.17    0.46
   3  -7   3    4.12    0.53
  -4   7  -3    8.70    0.89
  -4   7  -3   10.57    0.88
  -4   7  -3    9.69    0.86
  -4   7  -3   10.41    0.88
   4  -7   3   11.17    1.01
  -5   7  -3   19.63    1.44
  -5   7  -3   19.74    1.44
  -5   7  -3   19.26    1.43
  -5   7  -3   18.71    1.47
   5  -7   3   17.74    1.47
  -6   7  -3   23.43    1.70
  -6   7  -3   21.18    1.66
  -6   7  -3   23.95    1.75
   6  -7   3   21.40    1.69
  -7   7  -3    0.54    0.30
  -7   7  -3    0.33    0.31
  -7   7  -3   -0.22    0.40
  -8   7  -3    0.40    0.45
  -8   7  -3    0.32    0.32
  -8   7  -3    0.20    0.28
  -9   7  -3    1.80    0.47
  -9   7  -3    2.09    0.50
   7   6  -3    5.56    0.71
  -7  -6   3    7.23    0.76
  -7  -6   3    6.12    0.76
  -7  -6   3    5.69    0.67
   6   6  -3   -0.32    0.22
  -6  -6   3    0.24    0.24
  -6  -6   3    0.17    0.31
  -6  -6   3   -0.10    0.27
   5   6  -3    0.70    0.27
  -5  -6   3    0.63    0.33
  -5  -6   3    0.80    0.27
  -5  -6   3    0.41    0.30
   4   6  -3    3.01    0.42
  -4  -6   3    2.66    0.44
  -4  -6   3    3.05    0.42
  -4  -6   3    3.63    0.52
   3   6  -3   25.07    1.74
  -3  -6   3   25.33    1.73
  -3  -6   3   26.41    1.78
  -3  -6   3   23.39    1.79
   2   6  -3    6.59    0.61
  -2  -6   3    6.55    0.68
  -2  -6   3    7.09    0.64
  -2  -6   3    7.15    0.60
   1   6  -3    1.09    0.25
  -1  -6   3    1.03    0.26
  -1  -6   3    1.06    0.30
  -1  -6   3    0.97    0.21
   0   6  -3   80.73    5.09
   0   6  -3   78.74    4.88
   0   6  -3   88.46    5.15
   0  -6   3   66.82    5.15
   0  -6   3   85.21    5.12
  -1   6  -3  153.98   10.13
  -1   6  -3  161.74   10.20
  -1   6  -3  165.30    9.82
  -1   6  -3  163.32   10.14
   1  -6   3  165.92   10.12
   1  -6   3  168.72   10.14
   1  -6   3  151.36   10.23
  -2   6  -3    3.30    0.40
  -2   6  -3    3.89    0.43
  -2   6  -3    2.89    0.35
  -2   6  -3    2.67    0.40
   2  -6   3    3.29    0.38
   2  -6   3    2.87    0.42
  -3   6  -3   36.41    2.48
  -3   6  -3   36.63    2.45
  -3   6  -3   38.41    2.46
  -3   6  -3   38.21    2.43
  -3   6  -3   37.20    2.47
   3  -6   3   34.58    2.51
  -4   6  -3   47.36    3.00
  -4   6  -3   47.73    2.98
  -4   6  -3   42.85    2.97
   4  -6   3   42.26    3.03
  -5   6  -3    0.15    0.29
  -5   6  -3    0.40    0.21
  -5   6  -3    0.37    0.21
  -5   6  -3    0.04    0.18
   5  -6   3    0.27    0.25
  -6   6  -3    0.06    0.24
  -6   6  -3    0.32    0.26
  -6   6  -3    0.12    0.21
  -6   6  -3    0.31    0.32
   6  -6   3    0.38    0.29
  -7   6  -3   45.69    3.08
  -7   6  -3   42.64    3.10
  -7   6  -3   46.66    3.07
  -7   6  -3   46.88    3.09
  -8   6  -3    0.03    0.41
  -8   6  -3    0.16    0.27
  -8   6  -3    0.35    0.27
  -9   6  -3    1.05    0.47
  -9   6  -3    0.56    0.34
  -9   6  -3    0.65    0.34
   7   5  -3    3.60    0.52
  -7  -5   3    3.15    0.45
  -7  -5   3    3.58    0.52
  -7  -5   3    2.21    0.47
   6   5  -3    1.36    0.34
  -6  -5   3    1.94    0.38
  -6  -5   3    1.55    0.33
  -6  -5   3    1.66    0.39
   5   5  -3   11.57    0.97
  -5  -5   3   13.36    1.02
  -5  -5   3   10.52    0.92
  -5  -5   3   10.90    0.98
   4   5  -3  102.32    6.82
   4   5  -3  103.67    7.03
  -4  -5   3  113.20    6.83
  -4  -5   3  107.26    6.78
  -4  -5   3  110.06    6.86
   3   5  -3   37.72    2.46
  -3  -5   3   36.01    2.47
  -3  -5   3   36.71    2.49
  -3  -5   3   36.99    2.43
   2   5  -3    4.15    0.43
  -2  -5   3    4.21    0.46
  -2  -5   3    3.70    0.46
  -2  -5   3    3.41    0.39
   1   5  -3   12.64    1.03
  -1  -5   3   14.90    1.05
  -1  -5   3   16.24    1.03
  -1  -5   3   13.10    1.08
   0   5  -3  128.44    7.68
   0   5  -3  117.05    7.95
   0   5  -3  127.61    8.01
   0  -5   3  128.03    7.68
   0  -5   3  129.41    7.97
   0  -5   3  130.52    8.05
  -1   5  -3  361.63   20.97
  -1   5  -3  334.69   21.56
  -1   5  -3  353.99   21.57
  -1   5  -3  332.99   21.69
   1  -5   3  352.56   21.57
   1  -5   3  322.34   21.55
   1  -5   3  363.65   20.96
   1  -5   3  356.33   21.73
  -2   5  -3    5.48    0.50
  -2   5  -3    4.91    0.49
  -2   5  -3    4.63    0.47
  -2   5  -3    5.99    0.50
   2  -5   3    5.51    0.47
   2  -5   3    4.32    0.47
   2  -5   3    5.39    0.54
  -3   5  -3  138.54    8.47
  -3   5  -3  143.54    8.72
  -3   5  -3  132.60    8.76
  -3   5  -3  141.50    8.67
   3  -5   3  133.18    8.73
  -4   5  -3    0.92    0.30
  -4   5  -3    0.64    0.21
  -4   5  -3    0.80    0.21
  -4   5  -3    0.95    0.22
   4  -5   3    0.84    0.26
  -5   5  -3    0.37    0.19
  -5   5  -3   -0.07    0.15
  -5   5  -3   -0.25    0.25
  -5   5  -3    0.28    0.18
   5  -5   3    0.18    0.20
  -6   5  -3   51.75    3.43
  -6   5  -3   53.90    3.49
  -6   5  -3   52.52    3.46
   6  -5   3   52.08    3.49
   6  -5   3   52.35    3.57
  -7   5  -3   46.24    2.98
  -7   5  -3   43.11    2.85
  -7   5  -3   42.04    2.87
  -7   5  -3   42.06    2.85
   7  -5   3   40.79    2.98
  -8   5  -3    0.39    0.40
  -8   5  -3    0.57    0.29
  -8   5  -3    0.13    0.26
  -8   5  -3    0.34    0.27
   8  -5   3   -0.17    0.27
  -9   5  -3    1.03    0.52
  -9   5  -3    0.87    0.30
  -9   5  -3    0.99    0.34
   9  -5   3    0.71    0.37
   8   4  -3    0.16    0.30
  -8  -4   3    0.05    0.31
  -8  -4   3   -0.32    0.25
   7   4  -3    2.91    0.46
  -7  -4   3    3.48    0.46
  -7  -4   3    2.57    0.47
  -7  -4   3    3.16    0.47
   6   4  -3    1.40    0.32
  -6  -4   3    1.32    0.31
  -6  -4   3    1.10    0.33
  -6  -4   3    1.18    0.35
   5   4  -3    2.06    0.33
  -5  -4   3    2.23    0.38
  -5  -4   3    2.62    0.31
  -5  -4   3    2.91    0.42
  -5  -4   3    2.31    0.34
   4   4  -3    6.06    0.57
   4   4  -3    6.57    0.59
  -4  -4   3    6.43    0.63
  -4  -4   3    6.81    0.58
  -4  -4   3    5.71    0.60
  -4  -4   3    5.58    0.46
  -4  -4   3    7.18    0.59
   3   4  -3   17.01    1.18
   3   4  -3   14.39    1.14
  -3  -4   3   16.69    1.14
  -3  -4   3   15.42    1.16
  -3  -4   3   16.76    1.20
   2   4  -3    1.70    0.27
  -2  -4   3    1.97    0.30
  -2  -4   3    1.62    0.25
  -2  -4   3    1.98    0.30
   1   4  -3    0.89    0.18
   1   4  -3    0.68    0.18
  -1  -4   3    1.02    0.22
  -1  -4   3    1.06    0.24
  -1  -4   3    1.46    0.22
   0   4  -3  289.99   17.72
   0   4  -3  275.14   17.19
   0   4  -3  299.85   17.74
   0   4  -3  285.77   17.83
   0  -4   3  295.55   17.72
   0  -4   3  282.78   17.19
   0  -4   3  271.81   17.72
   0  -4   3  282.41   17.85
  -1   4  -3   47.61    3.33
  -1   4  -3   56.38    3.47
  -1   4  -3   54.38    3.55
  -1   4  -3   58.56    3.45
   1  -4   3   53.51    3.33
   1  -4   3   52.05    3.44
   1  -4   3   55.43    3.49
  -2   4  -3   18.76    1.19
  -2   4  -3   17.17    1.18
  -2   4  -3   17.79    1.18
  -2   4  -3   15.68    1.19
  -2   4  -3   16.45    1.17
   2  -4   3   16.65    1.22
   2  -4   3   16.35    1.17
   2  -4   3   17.57    1.17
  -3   4  -3    9.64    0.72
  -3   4  -3    9.85    0.76
  -3   4  -3    9.55    0.71
  -3   4  -3    8.81    0.66
  -3   4  -3    8.51    0.70
   3  -4   3    9.67    0.74
  -4   4  -3   55.17    3.50
  -4   4  -3   56.54    3.50
  -4   4  -3   51.22    3.53
  -4   4  -3   56.33    3.50
  -4   4  -3   53.37    3.51
   4  -4   3   54.26    3.54
  -5   4  -3    1.54    0.36
  -5   4  -3    2.24    0.31
  -5   4  -3    2.05    0.31
  -5   4  -3    1.99    0.32
  -5   4  -3    2.18    0.31
   5  -4   3    1.95    0.31
   5  -4   3    2.24    0.34
  -6   4  -3   21.63    1.46
  -6   4  -3   20.38    1.49
  -6   4  -3   19.80    1.45
  -6   4  -3   22.27    1.60
   6  -4   3   20.79    1.49
   6  -4   3   20.43    1.52
  -7   4  -3    1.48    0.32
  -7   4  -3    1.65    0.30
  -7   4  -3    1.89    0.32
  -7   4  -3    1.69    0.48
   7  -4   3    1.64    0.35
   7  -4   3    1.93    0.34
  -8   4  -3   -0.37    0.35
  -8   4  -3   -0.21    0.19
  -8   4  -3   -0.07    0.22
  -8   4  -3    0.13    0.22
   8  -4   3   -0.12    0.27
  -9   4  -3    0.54    0.30
  -9   4  -3    1.05    0.51
   9  -4   3    0.33    0.32
   8   3  -3    1.42    0.39
  -8  -3   3    2.13    0.42
  -8  -3   3    1.75    0.35
  -8  -3   3    1.69    0.44
   7   3  -3    7.78    0.84
  -7  -3   3   10.29    0.89
  -7  -3   3    8.74    0.78
  -7  -3   3    8.33    0.81
   6   3  -3    9.14    0.79
  -6  -3   3    7.78    0.79
  -6  -3   3    8.69    0.75
  -6  -3   3    9.05    0.85
  -6  -3   3    8.18    0.76
   5   3  -3    4.69    0.50
   5   3  -3    4.40    0.48
  -5  -3   3    4.44    0.45
  -5  -3   3    4.82    0.49
  -5  -3   3    4.48    0.53
  -5  -3   3    4.03    0.52
   4   3  -3    0.85    0.22
   4   3  -3    0.86    0.23
  -4  -3   3    0.99    0.22
  -4  -3   3    1.26    0.25
  -4  -3   3    0.78    0.23
  -4  -3   3    0.67    0.22
  -4  -3   3    1.04    0.19
   3   3  -3   43.29    2.79
   3   3  -3   42.95    2.87
  -3  -3   3   41.45    2.63
  -3  -3   3   47.12    2.78
  -3  -3   3   39.08    2.80
  -3  -3   3   45.14    2.80
  -3  -3   3   41.35    2.83
   2   3  -3    8.92    0.68
   2   3  -3    8.48    0.69
  -2  -3   3    9.90    0.70
  -2  -3   3    9.68    0.72
  -2  -3   3    7.93    0.66
  -2  -3   3    9.09    0.57
   1   3  -3   22.96    1.47
   1   3  -3   21.80    1.49
   1   3  -3   22.89    1.44
  -1  -3   3   21.94    1.48
  -1  -3   3   22.24    1.34
  -1  -3   3   21.15    1.44
  -1  -3   3   18.83    1.45
   0   3  -3  143.96    9.09
   0   3  -3  154.38    9.04
   0   3  -3  143.17    8.76
   0   3  -3  132.74    9.04
   0   3  -3  149.43    9.36
   0  -3   3  153.47    9.11
   0  -3   3  149.20    8.76
   0  -3   3  127.35    9.02
   0  -3   3  150.95    9.05
  -1   3  -3  115.23    7.02
  -1   3  -3  111.99    6.79
  -1   3  -3  117.15    7.21
  -1   3  -3  113.52    6.97
  -1   3  -3  103.30    6.97
   1  -3   3  102.24    6.79
   1  -3   3  109.28    7.03
   1  -3   3  119.29    6.98
  -2   3  -3   61.12    3.98
  -2   3  -3   65.26    3.97
  -2   3  -3   59.14    3.97
  -2   3  -3   63.86    3.94
  -2   3  -3   65.17    3.95
  -2   3  -3   62.19    4.04
  -2   3  -3   61.98    3.88
   2  -3   3   60.56    3.87
   2  -3   3   61.45    3.99
  -3   3  -3   25.60    1.76
  -3   3  -3   24.61    1.73
  -3   3  -3   24.90    1.75
  -3   3  -3   29.61    1.76
  -3   3  -3   26.97    1.70
  -3   3  -3   26.42    1.74
   3  -3   3   27.02    1.77
  -4   3  -3   40.31    2.40
  -4   3  -3   36.50    2.42
  -4   3  -3   35.39    2.37
  -4   3  -3   38.37    2.39
   4  -3   3   34.01    2.40
   4  -3   3   35.94    2.45
  -5   3  -3   14.33    0.97
  -5   3  -3   13.99    0.96
  -5   3  -3   12.39    0.94
  -5   3  -3   13.42    1.09
   5  -3   3   13.25    0.96
   5  -3   3   14.30    0.97
   5  -3   3   11.52    0.97
  -6   3  -3    5.90    0.57
  -6   3  -3    7.16    0.57
  -6   3  -3    6.54    0.60
  -6   3  -3    7.33    0.78
   6  -3   3    6.35    0.60
   6  -3   3    7.72    0.60
  -7   3  -3    0.55    0.22
  -7   3  -3    0.36    0.18
  -7   3  -3    0.50    0.21
  -7   3  -3    0.53    0.38
   7  -3   3    0.07    0.22
   7  -3   3    0.46    0.21
  -8   3  -3    4.17    0.50
  -8   3  -3    4.62    0.73
  -8   3  -3    4.80    0.54
   8  -3   3    3.50    0.53
  -9   3  -3   -0.06    0.43
  -9   3  -3    1.02    0.30
   9  -3   3    0.68    0.35
   8   2  -3    1.26    0.36
  -8  -2   3    1.50    0.37
  -8  -2   3    1.18    0.41
  -8  -2   3    0.95    0.31
   7   2  -3    0.85    0.28
  -7  -2   3    1.20    0.29
  -7  -2   3    0.60    0.32
  -7  -2   3    0.51    0.29
  -7  -2   3    1.20    0.37
   6   2  -3   13.28    1.11
  -6  -2   3   14.46    1.11
  -6  -2   3   15.17    1.10
  -6  -2   3   14.64    1.06
  -6  -2   3   11.72    1.07
   5   2  -3    5.32    0.51
   5   2  -3    4.62    0.51
  -5  -2   3    5.69    0.52
  -5  -2   3    4.94    0.48
  -5  -2   3    5.76    0.53
  -5  -2   3    4.05    0.50
   4   2  -3   20.15    1.38
   4   2  -3   19.73    1.40
  -4  -2   3   19.61    1.38
  -4  -2   3   20.45    1.39
  -4  -2   3   20.14    1.36
  -4  -2   3   18.91    1.30
   3   2  -3  760.36   47.00
   3   2  -3  736.47   48.46
  -3  -2   3  764.84   46.73
  -3  -2   3  760.44   46.75
   2   2  -3   56.12    3.46
   2   2  -3   53.42    3.49
   2   2  -3   53.32    3.59
  -2  -2   3   55.53    3.48
   1   2  -3   75.72    4.72
   1   2  -3   65.37    4.67
   1   2  -3   74.07    4.69
   1   2  -3   75.44    4.85
  -1  -2   3   78.04    4.69
  -1  -2   3   77.91    4.85
  -2   2  -3   53.54    3.11
  -2   2  -3   41.45    3.11
  -2   2  -3   41.19    3.06
  -2   2  -3   50.71    3.13
  -2   2  -3   50.96    3.11
  -2   2  -3   51.39    3.10
   2  -2   3   51.01    3.19
   2  -2   3   51.11    3.14
  -3   2  -3   30.62    2.00
  -3   2  -3   33.43    2.04
  -3   2  -3   28.87    1.98
  -3   2  -3   29.70    1.99
  -3   2  -3   30.29    1.98
   3  -2   3   30.96    2.02
   3  -2   3   34.95    2.02
   3  -2   3   27.83    2.00
  -4   2  -3   62.70    4.27
  -4   2  -3   60.80    4.28
  -4   2  -3   63.98    4.28
  -4   2  -3   73.74    4.30
  -4   2  -3   64.11    4.27
   4  -2   3   73.54    4.39
   4  -2   3   69.48    4.30
   4  -2   3   76.26    4.34
   4  -2   3   65.37    4.39
  -5   2  -3   73.15    4.52
  -5   2  -3   74.73    4.53
  -5   2  -3   74.49    4.57
  -5   2  -3   69.95    4.52
  -5   2  -3   68.31    4.51
   5  -2   3   63.33    4.64
   5  -2   3   78.93    4.59
   5  -2   3   71.40    4.53
  -6   2  -3    1.46    0.39
  -6   2  -3    1.56    0.26
  -6   2  -3    1.43    0.20
  -6   2  -3    1.07    0.20
   6  -2   3    1.44    0.23
   6  -2   3    1.19    0.20
  -7   2  -3    4.83    0.50
  -7   2  -3    5.27    0.50
  -7   2  -3    5.08    0.70
   7  -2   3    5.52    0.51
   7  -2   3    4.53    0.51
  -8   2  -3   10.65    1.10
  -8   2  -3   10.64    0.85
   8  -2   3   10.57    0.91
   9   1  -3    9.73    1.08
  -9  -1   3   10.14    1.09
  -9  -1   3   11.76    1.01
   8   1  -3    5.55    0.70
   8   1  -3    5.99    0.68
  -8  -1   3    7.42    0.71
  -8  -1   3    4.81    0.67
  -8  -1   3    5.02    0.62
   7   1  -3    2.34    0.43
   7   1  -3    3.50    0.46
  -7  -1   3    3.06    0.52
  -7  -1   3    3.51    0.43
   6   1  -3   41.99    2.85
   6   1  -3   41.74    2.95
  -6  -1   3   44.53    2.81
  -6  -1   3   42.40    2.82
  -6  -1   3   44.14    2.88
   5   1  -3    0.67    0.22
   5   1  -3    0.83    0.22
  -5  -1   3    0.23    0.20
  -5  -1   3    0.54    0.18
  -5  -1   3    0.50    0.22
   4   1  -3   23.78    1.60
   4   1  -3   23.80    1.64
  -4  -1   3   22.65    1.53
  -4  -1   3   24.55    1.57
  -4  -1   3   22.04    1.61
   3   1  -3  271.92   17.16
   3   1  -3  283.45   16.65
  -3  -1   3  257.53   16.65
  -3  -1   3  254.44   16.08
  -3  -1   3  263.97   16.53
   2   1  -3    7.44    0.58
   2   1  -3    8.16    0.61
   2   1  -3    8.01    0.61
  -2  -1   3    7.48    0.59
  -2  -1   3    8.43    0.60
  -2  -1   3    8.59    0.63
   1   1  -3   12.54    0.86
   1   1  -3   13.19    0.87
   1   1  -3   11.03    0.83
  -1  -1   3   11.83    0.83
  -1  -1   3   12.60    0.86
  -1   1  -3  613.79   37.54
   1  -1   3  633.21   37.54
  -2   1  -3    3.91    0.30
  -2   1  -3    4.10    0.31
  -2   1  -3    3.80    0.37
  -2   1  -3    3.92    0.30
   2  -1   3    3.43    0.32
   2  -1   3    4.48    0.40
  -3   1  -3   88.09    5.61
  -3   1  -3   89.30    5.67
  -3   1  -3   82.93    5.64
  -3   1  -3   91.67    5.65
   3  -1   3  101.14    5.72
   3  -1   3   90.26    5.68
  -4   1  -3    1.11    0.30
  -4   1  -3    1.38    0.16
  -4   1  -3    1.09    0.16
   4  -1   3    1.17    0.15
   4  -1   3    1.12    0.13
  -5   1  -3   87.65    5.41
  -5   1  -3   89.84    5.38
  -5   1  -3   80.38    5.36
   5  -1   3   85.95    5.45
  -6   1  -3    0.17    0.13
  -6   1  -3    0.21    0.14
  -6   1  -3    0.28    0.31
   6  -1   3    0.16    0.13
  -7   1  -3    7.32    0.63
  -7   1  -3    8.35    0.90
   7  -1   3    9.52    0.67
   7  -1   3    7.84    0.65
  -8   1  -3    1.02    0.24
  -8   1  -3    1.45    0.51
   8  -1   3    1.06    0.26
   9   0  -3    2.07    0.48
   8   0  -3   13.73    1.18
   8   0  -3   11.59    1.07
  -8   0   3   10.35    1.04
  -8   0   3   15.24    1.14
  -8   0   3   12.31    1.15
   7   0  -3    0.44    0.26
   7   0  -3    0.13    0.26
  -7   0   3    0.48    0.24
  -7   0   3   -0.05    0.23
  -7   0   3   -0.34    0.26
   6   0  -3    1.76    0.34
  -6   0   3    1.46    0.35
  -6   0   3    1.02    0.33
  -6   0   3    0.71    0.25
   5   0  -3   13.50    1.07
   5   0  -3   15.47    1.11
   5   0  -3   14.14    1.07
  -5   0   3   13.76    1.06
  -5   0   3   15.47    1.10
  -5   0   3   13.90    1.03
   4   0  -3   19.00    1.33
   4   0  -3   18.13    1.29
   4   0  -3   19.32    1.30
  -4   0   3   18.00    1.30
  -4   0   3   17.57    1.25
  -4   0   3   18.48    1.26
   3   0  -3   96.04    6.20
   3   0  -3   95.96    6.33
   3   0  -3   96.61    6.14
  -3   0   3   98.96    6.09
  -3   0   3   97.34    6.15
   2   0  -3   70.08    4.33
   2   0  -3   56.49    4.41
   2   0  -3   59.76    4.24
   2   0  -3   75.52    4.30
  -2   0   3   78.74    4.42
  -2   0   3   64.65    4.29
   1   0  -3   26.27    1.82
   1   0  -3   27.85    1.82
   1   0  -3   28.74    1.80
   1   0  -3   29.09    1.87
  -1   0   3   27.10    1.79
  -1   0   3   28.42    1.82
   0   0  -3    9.81    0.68
   0   0  -3    8.93    0.67
   0   0  -3   10.15    0.67
   0   0  -3   10.11    0.68
   0   0  -3    8.01    0.68
   0   0   3   10.13    0.69
   0   0   3   10.57    0.68
   0   0   3   10.27    0.68
   0   0   3   10.36    0.69
  -1   0  -3   12.31    0.85
  -1   0  -3   12.85    0.86
  -1   0  -3   13.16    0.85
  -1   0  -3   12.30    0.86
   1   0   3   13.93    0.85
   1   0   3   12.27    0.88
   1   0   3   13.63    0.87
  -2   0  -3   57.80    3.67
  -2   0  -3   49.99    3.66
  -2   0  -3   63.89    3.68
  -2   0  -3   59.75    3.68
  -2   0  -3   62.46    3.66
   2   0   3   58.56    3.68
   2   0   3   60.38    3.66
  -3   0  -3   83.77    5.01
  -3   0  -3   89.07    5.00
  -3   0  -3   69.40    4.99
  -4   0  -3    1.22    0.30
  -4   0  -3    1.51    0.15
  -5   0  -3   24.70    1.55
  -5   0  -3   25.87    1.73
  -5   0  -3   22.46    1.52
  -6   0  -3    8.67    0.67
  -6   0  -3    9.32    0.93
   6   0   3   10.65    0.68
  -7   0  -3    7.79    0.89
  -7   0  -3    6.68    0.56
   7   0   3    7.90    0.59
  -8   0  -3    2.37    0.29
  -8   0  -3    2.49    0.60
   8   0   3    2.23    0.31
   9  -1  -3    0.50    0.39
  -9   1   3    0.17    0.37
  -9   1   3    1.24    0.45
   8  -1  -3   17.90    1.48
   8  -1  -3   21.63    1.60
  -8   1   3   15.51    1.46
  -8   1   3   21.60    1.54
   7  -1  -3    2.63    0.42
   7  -1  -3    1.17    0.35
  -7   1   3    2.36    0.38
  -7   1   3    2.12    0.42
  -7   1   3    1.30    0.42
   6  -1  -3    1.09    0.33
   6  -1  -3    0.67    0.30
   6  -1  -3    0.56    0.28
  -6   1   3    0.89    0.30
  -6   1   3    0.31    0.33
  -6   1   3    0.85    0.25
   5  -1  -3  150.62    9.17
   5  -1  -3  129.94    9.44
   5  -1  -3  140.23    9.25
  -5   1   3  147.82    9.18
  -5   1   3  148.73    9.09
  -5   1   3  152.37    8.91
   4  -1  -3   21.52    1.42
   4  -1  -3   18.04    1.39
   4  -1  -3   21.95    1.46
  -4   1   3   20.25    1.41
  -4   1   3   19.64    1.37
  -4   1   3   19.51    1.37
   3  -1  -3   13.88    1.04
   3  -1  -3   14.00    1.01
   3  -1  -3   13.54    1.03
   3  -1  -3   13.70    0.98
  -3   1   3   14.68    0.99
  -3   1   3   14.66    1.02
  -3   1   3   14.63    1.03
   2  -1  -3    7.84    0.60
   2  -1  -3    8.37    0.56
   2  -1  -3    6.82    0.58
   2  -1  -3    7.31    0.57
  -2   1   3    6.16    0.57
  -2   1   3    7.43    0.59
  -2   1   3    8.29    0.56
   1  -1  -3   71.76    4.57
   1  -1  -3   81.43    4.75
   1  -1  -3   77.25    4.63
  -1   1   3   71.07    4.75
  -1   1   3   70.60    4.61
  -1   1   3   63.18    4.57
  -1   1   3   75.37    4.66
   0  -1  -3   16.26    1.07
   0  -1  -3   14.66    1.05
   0  -1  -3   15.85    1.05
   0  -1  -3   15.98    1.08
   0   1   3   15.76    1.09
   0   1   3   16.19    1.07
   0   1   3   17.76    1.07
  -1  -1  -3  134.60    8.33
  -1  -1  -3  122.56    8.27
   1   1   3  139.70    8.13
   1   1   3  137.24    8.32
   1   1   3  132.91    8.40
  -2  -1  -3   98.38    5.91
  -2  -1  -3   98.38    5.87
   2   1   3   91.42    5.94
   2   1   3   93.16    5.85
  -3  -1  -3   24.93    1.69
  -4  -1  -3    6.46    0.65
  -5  -1  -3    8.61    0.85
  -6  -1  -3   10.40    1.00
  -7  -1  -3    0.34    0.41
  -8  -1  -3    4.33    0.70
   8   1   3    3.60    0.41
   9  -2  -3    0.55    0.37
  -9   2   3    0.43    0.44
  -9   2   3    0.63    0.41
   8  -2  -3   19.69    1.59
   8  -2  -3   20.94    1.68
  -8   2   3   21.16    1.64
  -8   2   3   20.74    1.60
   7  -2  -3   21.65    1.65
   7  -2  -3   22.53    1.61
   7  -2  -3   22.80    1.61
  -7   2   3   21.00    1.60
  -7   2   3   16.91    1.56
  -7   2   3   22.30    1.56
   6  -2  -3   39.86    2.92
   6  -2  -3   45.05    2.87
   6  -2  -3   41.35    2.86
  -6   2   3   41.17    2.85
  -6   2   3   43.12    2.81
  -6   2   3   42.31    2.80
   5  -2  -3   37.62    2.54
   5  -2  -3   37.75    2.48
   5  -2  -3   35.17    2.47
  -5   2   3   36.84    2.42
  -5   2   3   38.38    2.48
  -5   2   3   33.10    2.40
   4  -2  -3  103.51    6.34
   4  -2  -3   83.79    6.26
   4  -2  -3   94.64    6.46
  -4   2   3  108.27    6.22
  -4   2   3  101.38    6.27
   3  -2  -3   16.97    1.17
   3  -2  -3   18.20    1.23
   3  -2  -3   17.62    1.19
   3  -2  -3   17.63    1.14
  -3   2   3   13.44    1.17
  -3   2   3   15.83    1.17
  -3   2   3   16.07    1.15
   2  -2  -3    5.04    0.43
   2  -2  -3    4.83    0.46
   2  -2  -3    5.23    0.45
   2  -2  -3    5.14    0.43
  -2   2   3    5.19    0.43
  -2   2   3    4.96    0.43
  -2   2   3    5.26    0.45
  -2   2   3    5.33    0.46
   1  -2  -3    8.39    0.62
   1  -2  -3    8.37    0.62
   1  -2  -3    7.52    0.64
  -1   2   3    8.79    0.65
  -1   2   3    9.21    0.64
  -1   2   3    8.97    0.64
   0  -2  -3  134.36    8.58
   0  -2  -3  131.82    8.63
   0  -2  -3  142.52    8.65
   0   2   3  137.30    8.72
   0   2   3  143.46    8.64
  -1  -2  -3   17.42    1.12
  -1  -2  -3   16.65    1.14
   1   2   3   17.12    1.12
   1   2   3   17.04    1.16
  -2  -2  -3  116.52    7.07
  -2  -2  -3  113.63    7.04
   2   2   3  109.86    7.07
  -4  -2  -3   37.51    2.49
  -5  -2  -3   54.86    3.59
  -6  -2  -3   15.60    1.30
  -7  -2  -3   11.71    1.16
  -8  -2  -3    0.65    0.46
   9  -3  -3   -0.16    0.31
  -9   3   3   -0.33    0.36
  -9   3   3    0.15    0.41
   8  -3  -3    1.04    0.37
   8  -3  -3    0.79    0.40
  -8   3   3    1.41    0.47
  -8   3   3    1.64    0.45
   7  -3  -3    9.36    1.08
   7  -3  -3   11.83    1.08
   7  -3  -3   13.43    1.06
  -7   3   3   12.59    1.10
  -7   3   3   13.46    1.09
   6  -3  -3  373.75   23.02
   6  -3  -3  361.04   22.78
   6  -3  -3  375.97   23.51
  -6   3   3  369.85   22.62
  -6   3   3  348.64   22.76
  -6   3   3  349.40   22.07
   5  -3  -3    4.27    0.53
   5  -3  -3    3.96    0.52
   5  -3  -3    4.59    0.56
  -5   3   3    5.36    0.52
  -5   3   3    5.08    0.58
  -5   3   3    4.64    0.55
   4  -3  -3   52.98    3.48
   4  -3  -3   50.46    3.30
   4  -3  -3   49.27    3.38
   4  -3  -3   49.94    3.37
  -4   3   3   52.30    3.33
  -4   3   3   51.48    3.36
  -4   3   3   53.13    3.38
   3  -3  -3  135.81    8.43
   3  -3  -3  131.15    8.36
   3  -3  -3  138.32    8.28
   3  -3  -3  124.37    8.61
  -3   3   3  135.11    8.60
  -3   3   3  130.82    8.36
  -3   3   3  128.76    8.28
   2  -3  -3  182.54   12.66
   2  -3  -3  196.54   12.45
   2  -3  -3  201.45   12.92
   2  -3  -3  202.03   12.54
   2  -3  -3  187.87   12.45
  -2   3   3  198.99   12.54
  -2   3   3  220.28   12.95
  -2   3   3  209.59   12.68
   1  -3  -3   42.39    2.86
   1  -3  -3   42.47    2.83
   1  -3  -3   43.68    2.82
  -1   3   3   45.04    2.86
  -1   3   3   44.65    2.87
  -1   3   3   46.07    2.94
   0  -3  -3  113.72    7.25
   0  -3  -3  110.33    7.29
   0  -3  -3  117.45    7.25
   0  -3  -3  118.09    7.30
   0   3   3  113.89    7.30
   0   3   3  122.24    7.37
  -1  -3  -3   81.92    5.12
  -1  -3  -3   78.90    5.09
  -1  -3  -3   80.50    5.13
  -1  -3  -3   80.89    5.10
   1   3   3   84.06    5.12
  -2  -3  -3    6.24    0.48
  -2  -3  -3    7.06    0.51
  -2  -3  -3    6.28    0.49
  -2  -3  -3    7.30    0.50
   2   3   3    7.08    0.49
  -3  -3  -3   11.20    0.75
  -3  -3  -3   11.03    0.75
  -4  -3  -3    1.10    0.14
  -4  -3  -3    1.46    0.16
   9  -4  -3    3.60    0.61
  -9   4   3    5.38    0.77
  -9   4   3    4.32    0.76
   8  -4  -3    0.40    0.32
   8  -4  -3    0.48    0.36
  -8   4   3    1.05    0.42
  -8   4   3    0.85    0.44
   7  -4  -3    2.24    0.42
   7  -4  -3    2.09    0.49
   7  -4  -3    1.94    0.43
  -7   4   3    2.15    0.45
  -7   4   3    1.11    0.48
   6  -4  -3   -0.36    0.33
   6  -4  -3    0.51    0.39
   6  -4  -3   -0.13    0.33
  -6   4   3    0.50    0.38
  -6   4   3   -0.27    0.26
   5  -4  -3   58.97    4.02
   5  -4  -3   60.11    3.90
   5  -4  -3   61.46    3.90
  -5   4   3   57.45    3.89
  -5   4   3   58.65    3.83
  -5   4   3   56.57    3.78
   4  -4  -3    6.77    0.62
   4  -4  -3    7.50    0.68
   4  -4  -3    6.26    0.66
   4  -4  -3    7.10    0.61
  -4   4   3    6.31    0.64
  -4   4   3    7.61    0.62
   3  -4  -3   13.85    1.15
   3  -4  -3   18.04    1.24
   3  -4  -3   16.78    1.21
   3  -4  -3   16.93    1.19
   3  -4  -3   17.42    1.19
  -3   4   3   16.38    1.17
  -3   4   3   16.08    1.22
  -3   4   3   17.03    1.21
  -3   4   3   15.13    1.18
   2  -4  -3   23.14    1.66
   2  -4  -3   25.75    1.63
  -2   4   3   20.90    1.64
  -2   4   3   25.56    1.65
   1  -4  -3   74.67    4.73
   1  -4  -3   66.79    4.72
   1  -4  -3   77.48    4.78
  -1   4   3   77.64    4.81
  -1   4   3   73.91    4.91
  -1   4   3   77.05    4.77
   0  -4  -3  794.23   50.12
   0  -4  -3  779.12   50.39
   0  -4  -3  829.45   50.41
   0   4   3  838.58   50.41
  -1  -4  -3   69.12    4.50
  -1  -4  -3   77.02    4.53
  -1  -4  -3   60.32    4.49
  -1  -4  -3   74.08    4.53
   1   4   3   75.70    4.53
  -2  -4  -3   17.44    1.13
  -2  -4  -3   15.91    1.14
  -2  -4  -3   17.54    1.14
  -2  -4  -3   17.39    1.15
   2   4   3   16.20    1.13
  -3  -4  -3    5.17    0.42
  -3  -4  -3    5.46    0.43
   3   4   3    4.96    0.38
  -4  -4  -3    3.73    0.34
  -4  -4  -3    3.63    0.33
  -5  -4  -3    0.41    0.13
  -5  -4  -3    0.27    0.11
   9  -5  -3    3.53    0.58
  -9   5   3    3.45    0.69
  -9   5   3    4.20    0.75
   8  -5  -3    8.74    0.94
  -8   5   3    9.57    1.00
  -8   5   3    8.33    1.01
   7  -5  -3    1.10    0.35
   7  -5  -3    0.48    0.37
   7  -5  -3    0.80    0.38
  -7   5   3    0.55    0.41
  -7   5   3    0.54    0.35
   6  -5  -3   28.57    2.18
   6  -5  -3   30.06    2.12
  -6   5   3   27.16    2.07
  -6   5   3   29.15    2.10
   5  -5  -3    0.49    0.32
   5  -5  -3    0.11    0.26
   5  -5  -3    0.18    0.27
  -5   5   3    0.63    0.32
  -5   5   3    0.65    0.34
   4  -5  -3    0.37    0.23
   4  -5  -3    0.80    0.23
   4  -5  -3    0.83    0.23
  -4   5   3    0.76    0.23
  -4   5   3    0.67    0.20
  -4   5   3    0.48    0.23
   3  -5  -3   54.58    3.27
   3  -5  -3   45.42    3.18
   3  -5  -3   48.09    3.24
   3  -5  -3   54.92    3.23
  -3   5   3   44.21    3.22
  -3   5   3   41.30    3.30
  -3   5   3   54.63    3.26
   2  -5  -3   29.29    2.27
   2  -5  -3   33.49    2.33
  -2   5   3   36.05    2.33
  -2   5   3   39.43    2.34
   1  -5  -3   48.49    3.12
   1  -5  -3   49.11    3.08
   1  -5  -3   50.04    3.09
  -1   5   3   48.51    3.12
  -1   5   3   40.79    3.09
   0  -5  -3  119.63    7.91
   0  -5  -3  130.50    7.93
   0  -5  -3  125.78    7.98
   0   5   3  127.34    8.05
   0   5   3  127.05    7.97
  -1  -5  -3   20.38    1.52
  -1  -5  -3   18.49    1.51
  -1  -5  -3   27.32    1.57
  -1  -5  -3   25.45    1.56
   1   5   3   22.02    1.53
  -2  -5  -3   10.39    0.79
  -2  -5  -3   10.57    0.79
  -2  -5  -3   10.61    0.79
   2   5   3   10.25    0.77
  -3  -5  -3   11.92    0.82
  -3  -5  -3   13.23    0.90
  -3  -5  -3   11.87    0.88
  -4  -5  -3    5.91    0.51
  -4  -5  -3    6.68    0.53
  -5  -5  -3    2.64    0.30
  -5  -5  -3    2.52    0.29
  -6  -5  -3    0.73    0.17
  -6  -5  -3    1.21    0.22
  -9   6   3    1.62    0.56
  -9   6   3    1.86    0.59
   8  -6  -3    9.28    1.00
  -8   6   3   11.62    1.13
  -8   6   3    8.67    1.02
   7  -6  -3    3.90    0.58
   7  -6  -3    3.27    0.59
  -7   6   3    5.41    0.71
  -7   6   3    5.03    0.74
   6  -6  -3    3.51    0.60
   6  -6  -3    3.92    0.57
  -6   6   3    4.41    0.65
  -6   6   3    2.73    0.54
   5  -6  -3    8.16    0.92
   5  -6  -3    9.80    0.85
  -5   6   3    8.94    0.87
  -5   6   3    7.76    0.86
   4  -6  -3    8.08    0.85
   4  -6  -3    8.07    0.78
   4  -6  -3    8.50    0.79
  -4   6   3    9.64    0.86
  -4   6   3    9.53    0.85
  -4   6   3    9.17    0.79
   3  -6  -3    0.33    0.25
   3  -6  -3    0.78    0.28
   3  -6  -3    0.79    0.24
  -3   6   3    0.70    0.27
  -3   6   3    0.85    0.23
  -3   6   3    0.63    0.23
   2  -6  -3   37.50    2.72
   2  -6  -3   41.92    2.71
   2  -6  -3   36.72    2.74
  -2   6   3   37.39    2.73
  -2   6   3   44.83    2.75
  -2   6   3   45.79    2.84
   1  -6  -3   28.95    1.99
   1  -6  -3   30.17    1.98
   1  -6  -3   27.32    1.93
  -1   6   3   28.38    1.97
  -1   6   3   27.72    1.95
   0  -6  -3    0.83    0.25
   0  -6  -3    0.88    0.26
   0  -6  -3    1.01    0.30
   0   6   3    0.62    0.23
   0   6   3    0.91    0.22
  -1  -6  -3   30.43    1.98
  -1  -6  -3   26.38    1.98
  -1  -6  -3   30.10    2.01
  -1  -6  -3   29.98    1.99
   1   6   3   30.28    2.00
  -2  -6  -3    0.26    0.18
  -2  -6  -3    0.48    0.23
  -2  -6  -3    0.18    0.18
  -3  -6  -3   10.30    0.80
  -3  -6  -3    9.75    0.79
  -3  -6  -3   10.08    0.74
  -4  -6  -3   14.49    1.06
  -4  -6  -3   14.99    1.08
  -5  -6  -3    0.35    0.19
  -5  -6  -3    0.18    0.20
  -6  -6  -3    0.73    0.24
  -6  -6  -3    0.32    0.19
  -9   7   3    0.27    0.47
  -9   7   3   -0.17    0.39
  -8   7   3    0.10    0.41
  -8   7   3    0.28    0.39
   7  -7  -3    2.33    0.54
  -7   7   3    2.42    0.54
  -7   7   3    1.22    0.51
   6  -7  -3    1.13    0.46
   6  -7  -3    1.13    0.42
  -6   7   3    2.28    0.50
  -6   7   3    2.18    0.52
   5  -7  -3    6.44    0.83
  -5   7   3    6.74    0.78
  -5   7   3    8.02    0.84
   4  -7  -3    7.80    0.85
   4  -7  -3    5.90    0.71
  -4   7   3    7.08    0.76
  -4   7   3    7.66    0.72
   3  -7  -3    1.40    0.33
   3  -7  -3    1.14    0.33
  -3   7   3    1.20    0.29
  -3   7   3    2.14    0.39
  -3   7   3    1.70    0.39
   2  -7  -3    0.13    0.25
   2  -7  -3    0.40    0.25
   2  -7  -3    0.33    0.28
  -2   7   3   -0.03    0.17
  -2   7   3    0.59    0.24
  -2   7   3    0.03    0.22
   1  -7  -3    7.70    0.75
   1  -7  -3    6.31    0.73
   1  -7  -3    8.82    0.76
  -1   7   3    6.26    0.66
  -1   7   3    7.72    0.75
   0  -7  -3    1.75    0.37
   0  -7  -3    1.88    0.38
   0  -7  -3    1.61    0.40
   0   7   3    2.05    0.35
   0   7   3    2.18    0.39
  -1  -7  -3   14.27    1.13
  -1  -7  -3   15.58    1.14
  -1  -7  -3   12.83    1.16
   1   7   3   15.37    1.13
  -2  -7  -3    2.79    0.40
  -2  -7  -3    2.00    0.35
  -2  -7  -3    1.99    0.35
  -3  -7  -3   18.60    1.30
  -3  -7  -3   17.87    1.35
  -3  -7  -3   19.63    1.36
  -4  -7  -3    6.78    0.64
  -4  -7  -3    5.93    0.62
  -5  -7  -3    0.25    0.23
  -5  -7  -3    0.49    0.23
   8  -8  -3    5.15    0.82
  -8   8   3    6.40    0.92
  -8   8   3    5.23    0.86
   7  -8  -3    0.12    0.41
  -7   8   3    0.13    0.42
  -7   8   3    0.94    0.45
   6  -8  -3    1.33    0.52
  -6   8   3    1.39    0.49
  -6   8   3    1.68    0.50
   5  -8  -3   17.16    1.44
  -5   8   3   15.06    1.31
  -5   8   3   16.30    1.40
   4  -8  -3    2.34    0.51
  -4   8   3    5.27    0.70
   3  -8  -3   45.38    3.39
   3  -8  -3   53.83    3.36
  -3   8   3   50.13    3.40
   2  -8  -3    6.94    0.74
   2  -8  -3    5.54    0.71
  -2   8   3    6.28    0.72
   1  -8  -3   67.05    4.38
   1  -8  -3   65.32    4.44
   1  -8  -3   69.70    4.40
  -1   8   3   66.48    4.42
  -1   8   3   65.96    4.47
   0  -8  -3    1.25    0.37
   0  -8  -3    1.21    0.34
   0  -8  -3    0.83    0.38
   0   8   3    1.06    0.34
  -1  -8  -3    1.99    0.42
  -1  -8  -3    1.89    0.37
  -1  -8  -3    2.16    0.40
  -2  -8  -3   -0.14    0.23
  -2  -8  -3   -0.15    0.21
  -2  -8  -3   -0.03    0.21
  -3  -8  -3    3.83    0.46
  -3  -8  -3    4.08    0.52
  -3  -8  -3    3.77    0.51
  -4  -8  -3    0.70    0.27
  -4  -8  -3    0.34    0.26
   8  -9  -3    4.97    0.88
  -8   9   3    6.40    0.96
  -8   9   3    4.89    0.87
   7  -9  -3    1.57    0.54
  -7   9   3    1.62    0.57
   6  -9  -3    0.18    0.44
  -6   9   3    1.67    0.51
  -6   9   3    0.11    0.39
   5  -9  -3    4.59    0.75
  -5   9   3    5.25    0.74
  -5   9   3    3.95    0.70
   4  -9  -3    2.07    0.51
  -4   9   3    2.14    0.46
   3  -9  -3   29.95    2.14
  -3   9   3   25.91    2.06
   2  -9  -3    2.84    0.50
   2  -9  -3    3.25    0.56
  -2   9   3    4.44    0.65
   1  -9  -3    0.46    0.32
   1  -9  -3   -0.14    0.29
  -1   9   3   -0.05    0.23
   0  -9  -3   -0.35    0.25
   0  -9  -3   -0.15    0.30
  -1  -9  -3   11.53    1.06
  -1  -9  -3   12.54    1.13
  -1  -9  -3   11.76    1.10
  -2  -9  -3    0.16    0.27
  -2  -9  -3    0.37    0.28
  -2  -9  -3    0.29    0.31
  -3  -9  -3    1.23    0.36
  -3  -9  -3    1.21    0.33
  -3  -9  -3    0.89    0.29
  -4  -9  -3    0.32    0.28
  -4  -9  -3   -0.26    0.23
   7 -10  -3    0.17    0.50
  -7  10   3    0.14    0.47
  -7  10   3    1.60    0.58
   6 -10  -3    5.68    0.90
  -6  10   3    3.20    0.67
  -6  10   3    3.61    0.73
   5 -10  -3    1.54    0.58
  -5  10   3    1.59    0.49
  -5  10   3    1.45    0.51
   4 -10  -3    0.47    0.42
  -4  10   3    0.28    0.37
   3 -10  -3    0.60    0.40
  -3  10   3    1.34    0.40
   2 -10  -3    1.58    0.49
  -2  10   3    0.99    0.40
   1 -10  -3    0.58    0.42
   1 -10  -3    1.05    0.38
  -1  10   3    0.63    0.40
   0 -10  -3    1.12    0.37
   0 -10  -3    0.61    0.41
  -1 -10  -3    2.48    0.54
  -1 -10  -3    2.63    0.51
  -2 -10  -3    0.34    0.37
  -2 -10  -3    1.01    0.38
  -3 -10  -3    0.23    0.31
  -3 -10  -3   -0.19    0.29
   6 -11  -3    6.32    0.96
  -6  11   3    6.06    0.88
  -6  11   3    4.90    0.84
   5 -11  -3    0.14    0.52
  -5  11   3    0.96    0.45
  -5  11   3    0.49    0.41
   4 -11  -3   -0.26    0.43
  -4  11   3   -0.35    0.36
  -4  11   3    0.20    0.37
   3 -11  -3   -0.39    0.39
  -3  11   3    0.47    0.39
   2 -11  -3    0.64    0.45
  -2  11   3    0.19    0.32
   1 -11  -3    0.52    0.47
   0 -11  -3    7.35    0.93
   0 -11  -3    6.37    0.83
  -1 -11  -3   -0.33    0.31
  -1 -11  -3   -0.39    0.36
   5 -12  -3    0.42    0.53
  -5  12   3    0.42    0.46
  -5  12   3    0.94    0.49
   4 -12  -3    0.31    0.56
  -4  12   3    0.77    0.47
  -4  12   3    0.63    0.50
   3 -12  -3    1.38    0.59
  -3  12   3    1.14    0.46
   2 -12  -3   -0.12    0.46
   1 -12  -3    2.37    0.66
   0 -12  -3    5.77    0.85
  -1  14  -4    0.02    0.42
   1 -14   4    0.31    0.64
  -2  14  -4    3.15    0.71
   2 -14   4    2.47    0.87
  -3  14  -4    0.06    0.39
   3 -14   4    1.45    0.56
  -4  14  -4    1.93    0.60
   4 -14   4    2.46    0.82
  -1 -13   4    0.11    0.58
   0 -13   4    0.77    0.62
  -1  13  -4    3.15    0.63
   1 -13   4    2.50    0.70
  -2  13  -4    3.05    0.65
   2 -13   4    2.79    0.78
  -3  13  -4    0.08    0.39
   3 -13   4    0.94    0.56
  -4  13  -4    2.91    0.58
  -4  13  -4    1.69    0.58
   4 -13   4    2.03    0.73
  -5  13  -4    0.67    0.47
  -5  13  -4    0.44    0.45
   5 -13   4    0.66    0.61
  -3 -12   4    0.17    0.54
  -2 -12   4    0.46    0.54
  -1 -12   4    1.02    0.52
   0  12  -4   13.67    1.31
   0 -12   4   15.31    1.55
  -1  12  -4    0.06    0.30
   1 -12   4   -0.17    0.45
  -2  12  -4    2.51    0.54
   2 -12   4    1.72    0.64
  -3  12  -4    5.26    0.77
  -3  12  -4    5.39    0.69
   3 -12   4    5.11    0.89
  -4  12  -4    3.64    0.64
  -4  12  -4    3.45    0.61
   4 -12   4    3.76    0.71
  -5  12  -4    1.27    0.46
  -5  12  -4    1.06    0.48
   5 -12   4    1.65    0.64
  -6  12  -4    3.56    0.73
  -6  12  -4    3.64    0.73
   6 -12   4    3.21    0.70
  -4 -11   4    1.39    0.49
  -4 -11   4    1.67    0.63
  -3 -11   4   -0.39    0.49
  -3 -11   4    0.40    0.38
  -2 -11   4    4.51    0.81
  -2 -11   4    3.73    0.66
   1  11  -4    6.68    0.83
  -1 -11   4    3.67    0.70
  -1 -11   4    6.02    0.92
   0  11  -4    5.82    0.78
   0 -11   4    5.76    0.81
  -1  11  -4    9.32    0.98
   1 -11   4    7.77    1.00
  -2  11  -4    7.93    0.97
  -2  11  -4    8.93    0.81
  -3  11  -4   21.84    1.71
  -3  11  -4   27.29    1.89
   3 -11   4   21.72    1.99
  -4  11  -4    0.13    0.33
  -4  11  -4    0.46    0.35
   4 -11   4    0.43    0.51
  -5  11  -4    1.18    0.42
  -5  11  -4    1.50    0.48
   5 -11   4    1.17    0.57
  -6  11  -4   -0.16    0.36
  -6  11  -4    0.12    0.39
   6 -11   4   -0.07    0.36
  -7  11  -4    0.28    0.43
  -7  11  -4    1.33    0.53
  -4 -10   4   -0.21    0.44
  -4 -10   4   -0.25    0.35
  -3 -10   4    2.76    0.65
  -3 -10   4    3.41    0.62
   2  10  -4    3.03    0.56
  -2 -10   4    2.61    0.52
  -2 -10   4    3.70    0.69
   1  10  -4    0.18    0.28
  -1 -10   4   -0.19    0.29
  -1 -10   4   -0.11    0.38
   0  10  -4    4.74    0.67
   0 -10   4    3.25    0.63
   0 -10   4    2.92    0.53
  -1  10  -4    0.01    0.29
  -1  10  -4    0.48    0.21
   1 -10   4   -0.07    0.38
  -2  10  -4   11.99    0.89
  -2  10  -4   10.38    1.04
   2 -10   4    7.88    1.05
  -3  10  -4   -0.01    0.25
  -3  10  -4    0.24    0.27
   3 -10   4    0.04    0.45
  -4  10  -4   44.42    3.09
  -4  10  -4   42.83    2.99
   4 -10   4   46.82    3.24
  -5  10  -4    5.43    0.72
  -5  10  -4    4.02    0.64
   5 -10   4    4.08    0.69
  -6  10  -4    0.08    0.32
  -6  10  -4    0.26    0.37
   6 -10   4   -0.04    0.36
  -7  10  -4    3.86    0.69
  -7  10  -4    2.89    0.67
  -8  10  -4    1.02    0.61
  -8  10  -4    0.83    0.48
   5   9  -4    0.11    0.29
  -5  -9   4    0.58    0.42
  -5  -9   4   -0.37    0.41
   4   9  -4    1.73    0.44
  -4  -9   4    2.32    0.52
  -4  -9   4    2.53    0.62
  -3  -9   4   -0.08    0.33
  -3  -9   4    0.29    0.41
   2   9  -4   57.24    3.64
  -2  -9   4   50.78    3.70
  -2  -9   4   53.22    3.62
   1   9  -4    4.36    0.58
  -1  -9   4    3.52    0.61
  -1  -9   4    2.87    0.52
   0   9  -4    8.70    0.90
   0   9  -4   10.37    0.71
   0  -9   4   10.07    0.92
   0  -9   4   10.06    1.03
  -1   9  -4   11.59    0.88
  -1   9  -4   12.07    1.05
   1  -9   4   10.90    0.99
   1  -9   4   12.18    1.14
  -2   9  -4    0.02    0.22
  -2   9  -4    0.16    0.26
  -2   9  -4    0.04    0.23
   2  -9   4    0.42    0.40
  -3   9  -4   95.86    6.01
  -3   9  -4   94.43    6.17
  -3   9  -4   93.09    6.23
   3  -9   4   99.93    6.31
  -4   9  -4   43.99    2.78
  -4   9  -4   41.03    2.80
  -4   9  -4   41.98    2.83
   4  -9   4   35.55    2.90
  -5   9  -4    2.08    0.50
  -5   9  -4    1.73    0.41
  -5   9  -4    1.92    0.45
   5  -9   4    2.57    0.55
  -6   9  -4    2.26    0.48
  -6   9  -4    1.57    0.49
  -6   9  -4    1.82    0.45
   6  -9   4    1.21    0.46
  -7   9  -4    2.92    0.62
  -7   9  -4    2.49    0.48
  -7   9  -4    3.91    0.66
  -8   9  -4    1.59    0.57
  -8   9  -4    0.89    0.42
  -8   9  -4    1.40    0.44
   6   8  -4    5.63    0.80
  -6  -8   4    6.00    0.80
  -6  -8   4    5.40    0.77
   5   8  -4   -0.02    0.28
  -5  -8   4    0.14    0.38
  -5  -8   4    0.05    0.32
   4   8  -4    2.88    0.49
  -4  -8   4    2.08    0.47
  -4  -8   4    3.39    0.61
   3   8  -4   23.58    1.75
  -3  -8   4   24.32    1.80
  -3  -8   4   24.05    1.87
  -3  -8   4   23.72    1.74
   2   8  -4   34.59    2.40
  -2  -8   4   34.66    2.41
  -2  -8   4   36.91    2.51
  -2  -8   4   32.50    2.36
   1   8  -4    0.43    0.23
  -1  -8   4   -0.01    0.31
  -1  -8   4   -0.06    0.17
  -1  -8   4    0.30    0.24
   0   8  -4    7.87    0.74
   0   8  -4    6.93    0.54
   0   8  -4    7.07    0.68
   0  -8   4    7.23    0.82
   0  -8   4    7.45    0.73
  -1   8  -4    2.67    0.42
  -1   8  -4    3.73    0.40
  -1   8  -4    2.86    0.39
   1  -8   4    2.90    0.41
   1  -8   4    2.88    0.42
   1  -8   4    3.36    0.54
  -2   8  -4    0.64    0.27
  -2   8  -4    0.47    0.24
  -2   8  -4    0.93    0.27
  -2   8  -4    0.67    0.24
   2  -8   4    0.59    0.23
   2  -8   4    0.83    0.34
  -3   8  -4  170.52   11.49
  -3   8  -4  183.54   11.42
  -3   8  -4  183.98   11.12
   3  -8   4  186.93   11.56
  -4   8  -4    7.93    0.88
  -4   8  -4    9.57    0.85
  -4   8  -4    8.63    0.84
   4  -8   4    9.84    1.02
  -5   8  -4    0.39    0.27
  -5   8  -4    0.43    0.27
  -5   8  -4   -0.31    0.27
   5  -8   4    0.12    0.31
  -6   8  -4    0.48    0.30
  -6   8  -4    0.28    0.38
  -6   8  -4    0.61    0.29
   6  -8   4    0.52    0.36
  -7   8  -4    8.42    1.00
  -7   8  -4    7.89    0.89
  -7   8  -4    7.54    0.84
  -8   8  -4    0.39    0.48
  -8   8  -4    0.56    0.33
  -8   8  -4    0.24    0.34
   6   7  -4    0.31    0.24
  -6  -7   4   -0.01    0.36
  -6  -7   4   -0.07    0.33
   5   7  -4    6.34    0.73
  -5  -7   4    5.14    0.71
  -5  -7   4    7.68    0.84
   4   7  -4   12.06    1.01
  -4  -7   4   11.07    0.96
  -4  -7   4   10.78    1.07
  -4  -7   4   10.89    1.01
   3   7  -4   39.41    2.63
  -3  -7   4   39.08    2.70
  -3  -7   4   35.24    2.64
  -3  -7   4   41.20    2.62
   2   7  -4   27.45    1.94
  -2  -7   4   27.91    1.96
  -2  -7   4   26.62    2.00
  -2  -7   4   29.39    1.94
   1   7  -4   30.07    2.12
  -1  -7   4   30.44    2.19
  -1  -7   4   28.96    2.12
  -1  -7   4   34.26    2.12
   0   7  -4   62.01    3.83
   0   7  -4   56.45    3.61
   0   7  -4   60.58    3.86
   0  -7   4   59.46    3.84
   0  -7   4   55.60    3.90
  -2   7  -4    7.55    0.67
  -2   7  -4    5.59    0.64
  -2   7  -4    7.18    0.70
  -2   7  -4    7.89    0.70
   2  -7   4    9.57    0.70
   2  -7   4    7.30    0.77
  -3   7  -4   90.99    5.81
  -3   7  -4   96.49    6.00
  -3   7  -4   84.67    5.93
  -3   7  -4   96.74    5.95
   3  -7   4   95.56    6.04
  -4   7  -4    3.56    0.59
  -4   7  -4    4.29    0.55
  -4   7  -4    4.22    0.55
  -4   7  -4    5.02    0.59
   4  -7   4    5.24    0.69
  -5   7  -4    6.06    0.76
  -5   7  -4    6.41    0.74
  -5   7  -4    7.20    0.71
  -5   7  -4    6.98    0.71
   5  -7   4    6.93    0.80
  -6   7  -4    1.07    0.33
  -6   7  -4    0.67    0.32
  -6   7  -4    0.67    0.40
  -7   7  -4   45.63    3.32
  -7   7  -4   49.25    3.37
  -7   7  -4   53.45    3.39
  -8   7  -4    0.23    0.46
  -8   7  -4   -0.17    0.25
  -8   7  -4    0.08    0.26
   7   6  -4    0.71    0.34
  -7  -6   4    0.92    0.42
  -7  -6   4    0.44    0.39
   6   6  -4    0.06    0.23
  -6  -6   4    0.80    0.34
  -6  -6   4    0.16    0.31
   5   6  -4   -0.06    0.22
  -5  -6   4    0.06    0.28
  -5  -6   4    0.07    0.32
  -5  -6   4    0.23    0.22
   4   6  -4    3.81    0.50
   4   6  -4    3.88    0.50
  -4  -6   4    3.48    0.56
  -4  -6   4    2.66    0.47
  -4  -6   4    3.89    0.48
   3   6  -4   26.04    1.95
   3   6  -4   28.52    1.93
  -3  -6   4   28.07    1.94
  -3  -6   4   26.32    1.88
  -3  -6   4   28.23    1.97
   2   6  -4   89.90    5.69
  -2  -6   4  100.94    5.66
  -2  -6   4   75.65    5.64
  -2  -6   4   87.79    5.73
   1   6  -4    0.08    0.15
   1   6  -4    0.08    0.15
  -1  -6   4    0.13    0.16
  -1  -6   4   -0.18    0.20
  -1  -6   4    0.10    0.14
   0   6  -4   91.96    5.82
   0   6  -4   91.99    5.54
   0  -6   4   91.74    5.86
   0  -6   4   86.06    5.76
   0  -6   4   89.83    5.53
   0  -6   4   94.04    5.79
  -1   6  -4   39.65    2.64
  -1   6  -4   39.50    2.58
  -1   6  -4   37.11    2.58
  -1   6  -4   43.65    2.62
   1  -6   4   35.45    2.45
  -2   6  -4   16.81    1.32
  -2   6  -4   18.30    1.27
  -2   6  -4   17.61    1.30
  -2   6  -4   18.44    1.30
   2  -6   4   18.62    1.38
   2  -6   4   19.38    1.30
  -3   6  -4   77.62    5.07
  -3   6  -4   76.47    4.92
  -3   6  -4   80.51    5.05
   3  -6   4   79.89    5.10
  -4   6  -4   22.33    1.51
  -4   6  -4   19.91    1.45
  -4   6  -4   21.48    1.47
  -4   6  -4   17.83    1.44
   4  -6   4   20.47    1.54
  -5   6  -4    0.33    0.33
  -5   6  -4    0.45    0.23
  -5   6  -4    0.69    0.24
  -5   6  -4    0.48    0.23
   5  -6   4    0.41    0.26
  -6   6  -4    5.05    0.62
  -6   6  -4    5.78    0.76
  -6   6  -4    6.41    0.69
  -6   6  -4    6.03    0.65
  -7   6  -4    8.11    0.80
  -7   6  -4    6.42    0.88
  -7   6  -4    6.80    0.75
  -7   6  -4    7.43    0.76
  -8   6  -4    0.50    0.44
  -8   6  -4    0.24    0.27
  -8   6  -4    0.00    0.25
   7   5  -4    0.36    0.28
  -7  -5   4   -0.30    0.33
  -7  -5   4    0.38    0.34
   6   5  -4   -0.29    0.21
  -6  -5   4   -0.25    0.20
  -6  -5   4    0.13    0.29
  -6  -5   4    0.30    0.30
   5   5  -4   23.49    1.83
  -5  -5   4   23.86    1.82
  -5  -5   4   25.71    1.77
  -5  -5   4   26.68    1.83
   4   5  -4   43.58    2.96
   4   5  -4   38.42    2.87
  -4  -5   4   43.18    2.90
  -4  -5   4   43.14    2.92
  -4  -5   4   47.76    2.88
   3   5  -4   16.60    1.16
   3   5  -4   12.58    1.11
  -3  -5   4   17.16    1.17
  -3  -5   4   15.17    1.17
  -3  -5   4   14.09    1.09
   2   5  -4   41.01    2.72
   2   5  -4   39.84    2.78
  -2  -5   4   40.95    2.72
  -2  -5   4   38.14    2.73
  -2  -5   4   44.78    2.70
   1   5  -4   94.75    5.67
   1   5  -4   89.92    5.73
   1   5  -4   93.36    5.88
  -1  -5   4   76.08    5.65
  -1  -5   4   96.61    5.76
  -1  -5   4   87.77    5.41
  -1  -5   4   89.42    5.70
   0   5  -4    7.37    0.65
   0   5  -4    7.80    0.66
   0   5  -4    7.81    0.63
   0   5  -4    7.33    0.61
   0   5  -4    7.62    0.54
   0  -5   4    8.89    0.66
   0  -5   4    7.21    0.54
   0  -5   4    6.53    0.60
  -1   5  -4  292.26   18.15
  -1   5  -4  288.28   17.63
  -1   5  -4  275.14   17.53
  -1   5  -4  278.86   17.52
  -1   5  -4  283.29   17.03
   1  -5   4  289.77   17.66
   1  -5   4  280.31   17.02
   1  -5   4  264.88   17.52
  -2   5  -4    8.86    0.71
  -2   5  -4    9.08    0.68
  -2   5  -4    8.73    0.70
  -2   5  -4    8.54    0.71
  -2   5  -4    8.36    0.70
   2  -5   4    8.78    0.72
   2  -5   4    9.51    0.78
  -3   5  -4    7.35    0.67
  -3   5  -4    7.84    0.65
  -3   5  -4    6.33    0.61
  -3   5  -4    7.07    0.56
  -3   5  -4    7.99    0.63
   3  -5   4    7.59    0.69
  -4   5  -4   42.46    2.92
  -4   5  -4   42.64    2.92
  -4   5  -4   46.10    2.93
  -4   5  -4   45.68    2.93
   4  -5   4   45.92    2.97
  -5   5  -4    3.09    0.41
  -5   5  -4    2.54    0.51
  -5   5  -4    2.85    0.39
  -5   5  -4    2.57    0.38
   5  -5   4    2.66    0.42
  -6   5  -4    0.07    0.19
  -6   5  -4    0.09    0.20
  -6   5  -4    0.02    0.19
  -6   5  -4    0.37    0.32
  -7   5  -4    0.45    0.23
  -7   5  -4    0.81    0.43
  -7   5  -4    0.47    0.24
  -7   5  -4    0.33    0.24
  -8   5  -4    4.22    0.56
  -8   5  -4    4.08    0.75
  -8   5  -4    4.60    0.58
  -8   5  -4    4.18    0.51
   8   4  -4    0.74    0.38
  -8  -4   4    1.50    0.43
  -8  -4   4    1.24    0.45
   7   4  -4    4.18    0.60
  -7  -4   4    3.80    0.58
  -7  -4   4    4.12    0.54
  -7  -4   4    3.90    0.59
   6   4  -4    3.87    0.51
  -6  -4   4    3.87    0.54
  -6  -4   4    4.41    0.53
  -6  -4   4    3.30    0.52
   5   4  -4   15.82    1.20
   5   4  -4   15.04    1.23
  -5  -4   4   15.86    1.07
  -5  -4   4   15.78    1.25
  -5  -4   4   15.23    1.24
  -5  -4   4   16.71    1.19
   4   4  -4   13.38    1.02
   4   4  -4   14.17    1.05
  -4  -4   4   13.56    1.05
  -4  -4   4   12.55    0.87
  -4  -4   4   11.90    1.04
  -4  -4   4   14.72    1.02
   3   4  -4    1.21    0.25
   3   4  -4    1.03    0.23
  -3  -4   4    1.73    0.32
  -3  -4   4    1.93    0.28
  -3  -4   4    1.11    0.24
  -3  -4   4    1.32    0.14
   2   4  -4   91.26    5.56
   2   4  -4   88.98    5.71
  -2  -4   4   87.47    5.58
  -2  -4   4   88.70    5.53
  -2  -4   4   78.93    5.49
   1   4  -4   24.42    1.66
   1   4  -4   24.73    1.62
   1   4  -4   25.34    1.68
  -1  -4   4   23.69    1.67
  -1  -4   4   23.51    1.50
  -1  -4   4   23.60    1.65
   0   4  -4  117.49    7.02
   0   4  -4  116.40    7.00
   0   4  -4  104.37    7.05
   0   4  -4  108.52    6.77
   0  -4   4  101.10    6.77
   0  -4   4  123.12    7.02
   0  -4   4  115.11    7.08
   0  -4   4  106.04    6.99
  -1   4  -4    4.01    0.43
  -1   4  -4    5.27    0.46
  -1   4  -4    4.56    0.41
  -1   4  -4    4.57    0.42
  -1   4  -4    4.80    0.45
   1  -4   4    4.54    0.45
  -2   4  -4   25.77    1.71
  -2   4  -4   25.66    1.70
  -2   4  -4   25.32    1.69
  -2   4  -4   24.34    1.68
   2  -4   4   25.67    1.74
  -3   4  -4   18.60    1.46
  -3   4  -4   20.82    1.49
  -3   4  -4   22.66    1.47
  -3   4  -4   22.55    1.47
  -3   4  -4   22.49    1.49
  -3   4  -4   20.88    1.41
   3  -4   4   22.29    1.50
  -4   4  -4   14.37    1.05
  -4   4  -4   14.04    1.04
  -4   4  -4   13.90    1.04
  -4   4  -4   14.65    1.05
  -4   4  -4   14.32    1.13
   4  -4   4   15.46    1.09
  -5   4  -4   12.38    0.90
  -5   4  -4   12.39    0.91
  -5   4  -4   10.10    1.00
  -5   4  -4   12.30    0.91
   5  -4   4   11.70    0.92
  -6   4  -4    0.15    0.20
  -6   4  -4    0.24    0.20
  -6   4  -4    0.30    0.31
  -6   4  -4    0.36    0.20
   6  -4   4    0.02    0.19
  -7   4  -4   18.96    1.49
  -7   4  -4   16.70    1.28
  -7   4  -4   16.59    1.30
  -7   4  -4   17.99    1.24
   7  -4   4   17.43    1.34
  -8   4  -4    6.27    0.64
  -8   4  -4    5.49    0.63
  -8   4  -4    6.08    0.85
   8  -4   4    5.73    0.67
   8   3  -4    3.20    0.57
  -8  -3   4    4.65    0.64
  -8  -3   4    3.97    0.59
   7   3  -4   11.05    0.97
  -7  -3   4   10.28    0.96
  -7  -3   4    8.99    0.86
   6   3  -4    3.85    0.54
  -6  -3   4    3.49    0.53
  -6  -3   4    4.53    0.51
  -6  -3   4    5.71    0.63
  -6  -3   4    3.99    0.47
   5   3  -4    3.98    0.47
   5   3  -4    3.14    0.43
  -5  -3   4    3.76    0.51
  -5  -3   4    4.23    0.47
  -5  -3   4    3.90    0.41
  -5  -3   4    3.58    0.49
   4   3  -4    4.19    0.45
   4   3  -4    4.10    0.45
  -4  -3   4    4.06    0.43
  -4  -3   4    3.93    0.36
  -4  -3   4    4.00    0.48
   3   3  -4    3.48    0.38
   3   3  -4    3.62    0.40
  -3  -3   4    3.64    0.43
  -3  -3   4    3.23    0.29
  -3  -3   4    2.92    0.40
  -3  -3   4    3.38    0.37
   2   3  -4  182.79   11.04
   2   3  -4  175.36   11.37
   2   3  -4  174.77   10.96
  -2  -3   4  170.24   10.97
  -2  -3   4  171.60   11.05
  -2  -3   4  179.36   10.99
   1   3  -4  186.29   11.76
   1   3  -4  177.73   12.10
   1   3  -4  192.99   11.68
   1   3  -4  193.64   11.70
  -1  -3   4  184.61   11.78
  -1  -3   4  191.07   11.68
  -1  -3   4  187.72   11.70
  -1  -3   4  186.06   11.32
   0   3  -4  144.31    8.97
   0   3  -4  151.92    9.23
   0   3  -4  151.47    8.91
   0   3  -4  118.01    8.91
   0   3  -4  127.29    8.64
   0  -3   4  154.08    8.91
   0  -3   4  149.54    8.92
   0  -3   4  143.05    8.65
   0  -3   4  144.28    8.98
  -1   3  -4    3.13    0.34
  -1   3  -4    3.65    0.35
  -1   3  -4    3.69    0.33
  -1   3  -4    2.80    0.29
  -1   3  -4    2.41    0.32
   1  -3   4    3.01    0.33
  -2   3  -4   93.67    5.59
  -2   3  -4   89.98    5.46
  -2   3  -4   86.43    5.55
  -2   3  -4   78.36    5.58
  -2   3  -4   95.40    5.57
   2  -3   4   86.13    5.74
   2  -3   4   87.99    5.61
  -3   3  -4  124.51    7.49
  -3   3  -4  113.28    7.53
  -3   3  -4  102.76    7.36
  -3   3  -4  115.74    7.49
  -3   3  -4  131.44    7.55
   3  -3   4  120.75    7.74
   3  -3   4  128.41    7.56
  -4   3  -4   24.82    1.84
  -4   3  -4   28.93    1.85
  -4   3  -4   28.80    1.92
  -4   3  -4   30.10    1.85
  -4   3  -4   30.40    1.85
   4  -3   4   25.18    1.88
   4  -3   4   27.80    1.86
  -5   3  -4   13.70    1.00
  -5   3  -4   14.79    0.99
  -5   3  -4   16.09    1.18
  -5   3  -4   15.12    1.01
   5  -3   4   13.06    1.01
   5  -3   4   12.41    0.99
  -6   3  -4   12.95    1.15
  -6   3  -4   13.56    0.98
  -6   3  -4   12.06    0.96
  -6   3  -4   13.89    0.93
   6  -3   4   12.75    0.99
  -7   3  -4    0.71    0.24
  -7   3  -4    0.90    0.23
  -7   3  -4    0.77    0.42
   7  -3   4    0.53    0.24
  -8   3  -4    1.10    0.29
  -8   3  -4   -0.02    0.41
  -8   3  -4    1.29    0.30
   8  -3   4    0.77    0.31
   8   2  -4    5.39    0.73
  -8  -2   4    5.43    0.75
  -8  -2   4    5.63    0.71
   7   2  -4    0.40    0.26
  -7  -2   4    0.52    0.31
  -7  -2   4    0.50    0.25
  -7  -2   4    0.33    0.27
  -7  -2   4    0.47    0.25
   6   2  -4    8.45    0.80
   6   2  -4    9.59    0.84
  -6  -2   4    9.08    0.85
  -6  -2   4    8.48    0.79
  -6  -2   4    8.71    0.78
   5   2  -4   27.52    1.85
   5   2  -4   24.40    1.88
  -5  -2   4   28.58    1.87
  -5  -2   4   26.63    1.81
  -5  -2   4   25.86    1.75
   4   2  -4    0.23    0.15
   4   2  -4    0.08    0.16
  -4  -2   4    0.14    0.14
  -4  -2   4   -0.16    0.16
  -4  -2   4    0.13    0.14
  -4  -2   4    0.56    0.21
   3   2  -4   69.11    5.15
   3   2  -4   82.93    5.33
  -3  -2   4   84.77    5.20
  -3  -2   4   86.34    5.14
  -3  -2   4   81.91    5.15
   2   2  -4    3.67    0.40
   2   2  -4    3.62    0.35
   2   2  -4    4.37    0.40
  -2  -2   4    3.65    0.37
  -2  -2   4    2.85    0.39
  -2  -2   4    3.86    0.36
   1   2  -4  155.24    9.37
   1   2  -4  153.38    9.35
   1   2  -4  151.01    9.42
   1   2  -4  142.77    9.69
  -1  -2   4  147.65    9.37
  -1  -2   4  154.34    9.70
  -1  -2   4  154.90    9.35
  -1  -2   4  140.09    9.42
   0   2  -4  197.01   12.18
   0   2  -4  175.98   12.60
   0   2  -4  198.75   12.17
   0   2  -4  206.70   12.25
   0  -2   4  195.79   12.61
   0  -2   4  191.43   12.25
   0  -2   4  199.96   11.85
   0  -2   4  200.38   12.18
  -1   2  -4  479.67   34.77
  -1   2  -4  579.17   33.78
  -1   2  -4  562.01   33.59
  -1   2  -4  522.07   32.71
  -1   2  -4  552.82   33.57
   1  -2   4  525.34   32.70
   1  -2   4  550.27   33.78
   1  -2   4  570.37   34.81
  -2   2  -4  146.10    8.91
  -2   2  -4  146.50    8.85
  -2   2  -4  150.70    8.90
  -2   2  -4  141.26    8.86
  -2   2  -4  138.49    8.68
   2  -2   4  129.26    9.15
  -3   2  -4    0.46    0.12
  -3   2  -4    0.65    0.23
  -3   2  -4    0.67    0.14
  -3   2  -4    0.96    0.17
  -3   2  -4    0.79    0.16
   3  -2   4    0.77    0.18
   3  -2   4    0.93    0.12
   3  -2   4    0.83    0.12
  -4   2  -4   11.68    0.91
  -4   2  -4    9.69    0.77
  -4   2  -4   12.60    0.77
  -4   2  -4   11.06    0.78
  -4   2  -4   10.25    0.76
   4  -2   4   10.80    0.79
  -5   2  -4    0.12    0.13
  -5   2  -4    0.15    0.11
  -5   2  -4    0.02    0.27
  -5   2  -4    0.18    0.12
  -5   2  -4    0.25    0.10
   5  -2   4    0.13    0.13
   5  -2   4    0.34    0.13
  -6   2  -4   26.78    1.67
  -6   2  -4   24.92    1.83
  -6   2  -4   23.27    1.64
   6  -2   4   22.83    1.66
   6  -2   4   26.29    1.67
  -7   2  -4    1.21    0.24
  -7   2  -4    0.96    0.24
  -7   2  -4    1.36    0.45
   7  -2   4    1.27    0.25
   7  -2   4    1.55    0.26
  -8   2  -4    0.12    0.18
  -8   2  -4    0.18    0.42
   8  -2   4   -0.21    0.21
   9   1  -4    4.57    0.73
  -9  -1   4    6.59    0.78
  -9  -1   4    5.15    0.76
   8   1  -4    1.43    0.38
   8   1  -4    2.23    0.47
  -8  -1   4    1.23    0.43
  -8  -1   4    1.40    0.45
   7   1  -4    7.30    0.71
   7   1  -4    6.20    0.73
  -7  -1   4    5.87    0.72
  -7  -1   4    6.36    0.67
  -7  -1   4    6.56    0.73
   6   1  -4   41.21    3.08
   6   1  -4   45.57    3.00
   6   1  -4   47.23    3.03
  -6  -1   4   44.58    3.03
  -6  -1   4   45.18    2.96
  -6  -1   4   44.77    2.91
   5   1  -4   13.57    1.02
   5   1  -4   12.77    1.04
  -5  -1   4   13.71    0.99
  -5  -1   4   11.62    1.03
  -5  -1   4   12.86    0.97
   4   1  -4   41.86    2.86
   4   1  -4   39.96    2.77
  -4  -1   4   42.47    2.67
  -4  -1   4   43.41    2.75
  -4  -1   4   42.89    2.80
   3   1  -4    0.92    0.21
   3   1  -4    1.37    0.23
   3   1  -4    1.23    0.25
  -3  -1   4    1.26    0.20
  -3  -1   4    1.35    0.26
   2   1  -4   17.29    1.23
   2   1  -4   14.99    1.17
   2   1  -4   17.65    1.21
  -2  -1   4   18.63    1.22
  -2  -1   4   17.83    1.23
  -2  -1   4   17.90    1.20
   1   1  -4  291.59   18.02
   1   1  -4  299.78   17.91
   1   1  -4  283.01   18.57
  -1  -1   4  280.43   18.57
  -1  -1   4  295.78   18.03
  -1  -1   4  281.05   17.90
   0   1  -4  274.55   17.60
   0   1  -4  294.80   17.43
   0   1  -4  287.59   17.32
   0   1  -4  304.52   17.95
   0  -1   4  262.35   17.32
   0  -1   4  276.00   17.43
   0  -1   4  250.96   17.95
   0  -1   4  283.71   16.88
  -1   1  -4   27.38    1.79
  -1   1  -4   28.63    1.76
  -1   1  -4   25.87    1.77
  -1   1  -4   23.02    1.76
  -1   1  -4   28.32    1.79
  -1   1  -4   29.08    1.78
   1  -1   4   27.95    1.77
   1  -1   4   27.50    1.82
   1  -1   4   27.72    1.79
  -2   1  -4  116.18    7.63
  -2   1  -4  118.48    7.59
  -2   1  -4  123.73    7.60
  -2   1  -4  116.12    7.48
   2  -1   4  134.86    7.65
  -3   1  -4  286.57   17.21
  -3   1  -4  319.84   17.65
  -3   1  -4  293.21   17.55
  -3   1  -4  260.13   17.55
  -3   1  -4  289.54   17.64
   3  -1   4  251.38   17.65
  -4   1  -4    6.56    0.66
  -4   1  -4    5.17    0.46
  -4   1  -4    6.18    0.46
   4  -1   4    7.25    0.45
   4  -1   4    6.06    0.45
  -5   1  -4    0.18    0.11
  -5   1  -4   -0.05    0.10
  -5   1  -4    0.14    0.28
   5  -1   4    0.04    0.09
  -6   1  -4    6.87    0.81
  -6   1  -4    6.09    0.52
  -6   1  -4    5.87    0.50
   6  -1   4    7.40    0.51
  -7   1  -4    7.98    0.62
  -7   1  -4    6.67    0.60
  -7   1  -4    7.59    0.90
   7  -1   4    8.71    0.63
  -8   1  -4    1.98    0.29
  -8   1  -4    2.13    0.60
   8  -1   4    1.57    0.29
   9   0  -4    0.36    0.37
   8   0  -4    1.95    0.47
   8   0  -4    1.82    0.42
  -8   0   4    1.74    0.48
  -8   0   4    1.35    0.44
   7   0  -4    7.48    0.81
   7   0  -4    6.53    0.73
  -7   0   4    7.26    0.77
  -7   0   4    6.48    0.77
  -7   0   4    6.68    0.70
   6   0  -4    5.25    0.66
   6   0  -4    6.59    0.67
   6   0  -4    6.76    0.64
  -6   0   4    5.83    0.66
  -6   0   4    5.30    0.65
  -6   0   4    6.35    0.61
   5   0  -4    0.42    0.21
   5   0  -4    0.44    0.24
   5   0  -4    0.45    0.23
  -5   0   4    0.51    0.18
  -5   0   4    0.42    0.24
  -5   0   4    0.74    0.27
   4   0  -4   40.75    2.69
   4   0  -4   35.85    2.67
   4   0  -4   44.48    2.78
  -4   0   4   41.04    2.64
  -4   0   4   40.44    2.69
   3   0  -4  257.90   17.46
   3   0  -4  299.19   17.66
   3   0  -4  293.81   17.35
   3   0  -4  249.08   18.00
  -3   0   4  267.40   17.98
  -3   0   4  297.79   17.35
  -3   0   4  288.53   17.47
   2   0  -4   32.01    2.18
   2   0  -4   34.45    2.24
   2   0  -4   31.10    2.17
  -2   0   4   31.92    2.14
  -2   0   4   35.78    2.24
  -2   0   4   32.98    2.18
   1   0  -4   68.62    4.39
   1   0  -4   67.38    4.43
   1   0  -4   74.93    4.56
  -1   0   4   68.16    4.40
  -1   0   4   69.32    4.43
   0   0  -4    9.42    0.70
   0   0  -4    9.48    0.71
   0   0  -4   10.30    0.69
   0   0  -4    8.56    0.69
   0   0  -4   12.38    0.74
   0   0   4   10.69    0.73
   0   0   4    9.59    0.70
  -1   0  -4    1.35    0.19
  -1   0  -4    1.56    0.20
  -1   0  -4    1.28    0.17
  -1   0  -4    1.25    0.17
   1   0   4    1.25    0.22
   1   0   4    1.61    0.16
   1   0   4    1.51    0.17
   1   0   4    1.53    0.21
  -2   0  -4   14.24    0.85
  -2   0  -4   12.33    0.84
  -2   0  -4   13.63    0.85
  -2   0  -4   12.04    0.84
   2   0   4   11.30    0.83
  -3   0  -4  389.62   22.39
  -3   0  -4  354.46   22.83
  -3   0  -4  364.56   22.83
  -4   0  -4   12.19    0.86
  -4   0  -4   13.84    0.86
  -4   0  -4   14.37    1.08
  -5   0  -4    1.17    0.15
  -5   0  -4    1.51    0.40
  -5   0  -4    1.40    0.17
  -6   0  -4    2.39    0.25
  -6   0  -4    2.36    0.51
  -6   0  -4    2.36    0.24
  -7   0  -4    8.06    0.64
  -7   0  -4    9.97    1.06
   7   0   4    9.80    0.67
  -8   0  -4   -0.29    0.40
  -9   1   4    4.41    0.73
  -9   1   4    4.26    0.67
   8  -1  -4    1.53    0.40
   8  -1  -4    1.28    0.41
  -8   1   4    0.93    0.44
  -8   1   4    1.86    0.48
   7  -1  -4    5.75    0.65
   7  -1  -4    5.19    0.68
  -7   1   4    5.39    0.67
  -7   1   4    4.86    0.64
   6  -1  -4    7.44    0.76
   6  -1  -4    9.03    0.82
   6  -1  -4    8.27    0.83
  -6   1   4    8.54    0.76
  -6   1   4    8.13    0.79
  -6   1   4    7.99    0.79
   5  -1  -4   11.28    0.94
   5  -1  -4   10.54    0.97
   5  -1  -4   11.69    0.96
  -5   1   4   12.32    0.98
  -5   1   4   13.75    0.97
  -5   1   4   11.53    0.91
   4  -1  -4   67.91    4.41
   4  -1  -4   64.72    4.28
   4  -1  -4   71.87    4.32
  -4   1   4   66.86    4.22
  -4   1   4   58.97    4.27
   3  -1  -4  355.57   21.05
   3  -1  -4  298.10   21.41
   3  -1  -4  359.72   21.85
   3  -1  -4  318.05   21.19
  -3   1   4  343.67   21.83
  -3   1   4  359.41   21.20
   2  -1  -4   15.14    1.09
   2  -1  -4   13.27    1.05
   2  -1  -4   16.87    1.07
   2  -1  -4   13.65    1.02
  -2   1   4   16.40    1.07
  -2   1   4   14.87    1.09
  -2   1   4   14.09    1.02
   1  -1  -4    0.37    0.14
   1  -1  -4    0.22    0.11
   1  -1  -4    0.13    0.09
   1  -1  -4    0.16    0.08
  -1   1   4    0.46    0.15
  -1   1   4    0.29    0.11
  -1   1   4    0.28    0.11
   0  -1  -4  303.58   17.69
   0  -1  -4  286.97   17.58
   0   1   4  298.75   18.23
   0   1   4  272.33   17.88
   0   1   4  256.15   17.68
  -1  -1  -4   72.11    4.20
  -1  -1  -4   58.92    4.19
  -1  -1  -4   70.78    4.17
   1   1   4   71.85    4.20
   1   1   4   58.79    4.22
  -2  -1  -4   17.85    1.13
  -2  -1  -4   15.92    1.12
  -2  -1  -4   20.00    1.14
   2   1   4   16.05    1.12
  -3  -1  -4   21.59    1.51
  -3  -1  -4   24.44    1.66
  -3  -1  -4   25.72    1.51
  -4  -1  -4    0.51    0.31
  -5  -1  -4   16.98    1.36
  -6  -1  -4    0.16    0.36
  -7  -1  -4   15.15    1.40
  -8  -1  -4   -0.47    0.41
  -9   2   4    7.25    0.96
  -9   2   4    9.03    1.04
   8  -2  -4    5.09    0.69
   8  -2  -4    4.84    0.66
  -8   2   4    6.40    0.78
  -8   2   4    4.87    0.72
   7  -2  -4    0.58    0.33
   7  -2  -4    0.33    0.31
   7  -2  -4    0.54    0.28
  -7   2   4   -0.19    0.32
  -7   2   4    0.08    0.25
   6  -2  -4    0.20    0.30
   6  -2  -4   -0.10    0.28
   6  -2  -4    0.08    0.24
  -6   2   4    0.25    0.32
  -6   2   4    0.39    0.28
  -6   2   4    0.03    0.21
   5  -2  -4   17.95    1.49
   5  -2  -4   21.23    1.47
   5  -2  -4   20.39    1.48
  -5   2   4   21.20    1.43
  -5   2   4   18.64    1.46
  -5   2   4   19.12    1.44
   4  -2  -4   44.77    3.08
   4  -2  -4   43.22    3.00
   4  -2  -4   44.24    2.92
   4  -2  -4   48.58    3.01
  -4   2   4   44.37    2.98
   3  -2  -4    2.63    0.33
   3  -2  -4    2.28    0.31
   3  -2  -4    1.78    0.33
   3  -2  -4    2.33    0.35
  -3   2   4    1.63    0.29
  -3   2   4    2.34    0.35
  -3   2   4    2.50    0.31
  -3   2   4    1.57    0.26
   2  -2  -4    4.14    0.46
   2  -2  -4    3.79    0.42
   2  -2  -4    5.07    0.41
   2  -2  -4    4.15    0.40
  -2   2   4    4.28    0.44
  -2   2   4    3.74    0.40
  -2   2   4    5.69    0.45
   1  -2  -4    4.29    0.40
   1  -2  -4    3.70    0.34
   1  -2  -4    2.45    0.30
  -1   2   4    3.96    0.35
  -1   2   4    3.28    0.35
  -1   2   4    3.89    0.36
   0  -2  -4   15.92    1.06
   0  -2  -4   14.98    1.07
   0  -2  -4   15.61    1.09
   0   2   4   16.51    1.08
   0   2   4   15.28    1.07
   0   2   4   15.18    1.09
  -1  -2  -4  510.30   29.12
  -1  -2  -4  476.66   28.95
  -1  -2  -4  432.14   29.10
   1   2   4  409.34   29.44
   1   2   4  511.66   29.12
  -2  -2  -4    1.44    0.18
  -2  -2  -4    1.69    0.17
  -2  -2  -4    1.54    0.18
   2   2   4    1.38    0.18
  -3  -2  -4    5.76    0.42
   9  -3  -4    2.37    0.51
  -9   3   4    3.25    0.66
  -9   3   4    2.17    0.57
   8  -3  -4    0.39    0.30
  -8   3   4    0.29    0.27
  -8   3   4    0.44    0.40
   7  -3  -4    4.81    0.66
   7  -3  -4    4.66    0.68
   7  -3  -4    4.64    0.61
  -7   3   4    5.15    0.66
  -7   3   4    4.18    0.66
   6  -3  -4   44.80    3.05
   6  -3  -4   44.50    2.95
   6  -3  -4   42.20    2.95
  -6   3   4   41.87    2.93
  -6   3   4   39.73    2.87
   5  -3  -4   48.39    3.44
   5  -3  -4   55.40    3.57
   5  -3  -4   54.41    3.47
  -5   3   4   46.43    3.34
  -5   3   4   53.80    3.39
  -5   3   4   50.77    3.43
   4  -3  -4   19.55    1.46
   4  -3  -4   20.45    1.52
   4  -3  -4   22.66    1.52
   4  -3  -4   19.96    1.42
  -4   3   4   20.52    1.48
  -4   3   4   19.88    1.44
   3  -3  -4   17.82    1.33
   3  -3  -4   17.42    1.29
   3  -3  -4   16.70    1.28
   3  -3  -4   20.25    1.37
   3  -3  -4   18.96    1.28
  -3   3   4   19.30    1.35
  -3   3   4   19.54    1.29
  -3   3   4   18.57    1.33
  -3   3   4   15.92    1.28
   2  -3  -4  416.47   26.52
   2  -3  -4  430.83   26.35
  -2   3   4  423.50   26.52
  -2   3   4  428.54   26.82
   1  -3  -4   11.00    0.81
   1  -3  -4   10.71    0.84
   1  -3  -4    9.08    0.77
  -1   3   4   10.75    0.81
  -1   3   4   11.60    0.84
  -1   3   4   12.40    0.86
   0  -3  -4  120.63    7.47
   0  -3  -4  128.39    7.54
   0  -3  -4  102.61    7.50
   0   3   4  125.42    7.53
   0   3   4  120.01    7.59
  -1  -3  -4  265.74   17.21
  -1  -3  -4  282.94   17.30
  -1  -3  -4  282.46   17.32
   1   3   4  289.77   17.30
   1   3   4  265.66   17.49
  -2  -3  -4   12.24    0.86
  -2  -3  -4   12.68    0.86
  -2  -3  -4   13.25    0.85
   2   3   4   11.59    0.85
  -3  -3  -4    0.35    0.13
  -3  -3  -4    0.54    0.12
  -4  -3  -4   17.01    0.96
  -4  -3  -4   12.25    0.94
   9  -4  -4    3.21    0.59
  -9   4   4    3.81    0.67
  -9   4   4    2.85    0.64
   8  -4  -4    5.04    0.67
  -8   4   4    4.80    0.70
  -8   4   4    4.92    0.73
   7  -4  -4   19.40    1.58
   7  -4  -4   21.35    1.71
   7  -4  -4   22.88    1.70
  -7   4   4   19.91    1.62
  -7   4   4   21.09    1.63
   6  -4  -4   64.55    4.33
   6  -4  -4   67.62    4.21
   6  -4  -4   56.97    4.20
  -6   4   4   61.06    4.07
  -6   4   4   63.86    4.20
   5  -4  -4   32.98    2.59
   5  -4  -4   38.11    2.52
   5  -4  -4   38.00    2.56
  -5   4   4   36.76    2.53
   4  -4  -4   -0.31    0.14
   4  -4  -4    0.13    0.18
   4  -4  -4   -0.24    0.18
   4  -4  -4   -0.28    0.19
  -4   4   4   -0.14    0.14
  -4   4   4   -0.21    0.13
  -4   4   4   -0.08    0.15
  -4   4   4   -0.04    0.18
   3  -4  -4   -0.02    0.16
   3  -4  -4    0.27    0.20
   3  -4  -4    0.09    0.22
   3  -4  -4    0.08    0.16
  -3   4   4    0.00    0.13
  -3   4   4   -0.03    0.13
  -3   4   4   -0.11    0.14
   2  -4  -4   33.82    2.29
   2  -4  -4   31.62    2.26
   2  -4  -4   35.11    2.26
   2  -4  -4   32.33    2.29
  -2   4   4   33.53    2.28
  -2   4   4   36.78    2.30
   1  -4  -4    4.98    0.48
   1  -4  -4    5.32    0.52
   1  -4  -4    4.55    0.47
  -1   4   4    4.37    0.45
  -1   4   4    5.22    0.51
  -1   4   4    5.12    0.50
   0  -4  -4  515.65   33.24
   0  -4  -4  538.26   33.26
   0  -4  -4  546.59   33.07
   0  -4  -4  529.52   33.07
   0   4   4  552.46   33.64
   0   4   4  520.05   33.25
  -1  -4  -4    4.70    0.45
  -1  -4  -4    4.62    0.44
  -1  -4  -4    5.03    0.44
  -1  -4  -4    3.59    0.40
   1   4   4    4.73    0.42
   1   4   4    4.20    0.42
  -2  -4  -4   12.48    0.87
  -2  -4  -4   12.48    0.89
  -2  -4  -4   12.86    0.89
  -2  -4  -4   12.70    0.89
   2   4   4   11.76    0.87
  -3  -4  -4    1.82    0.24
  -3  -4  -4    2.72    0.29
  -4  -4  -4    0.07    0.13
  -4  -4  -4   -0.19    0.09
  -9   5   4    4.09    0.76
  -9   5   4    5.06    0.82
   8  -5  -4    1.94    0.49
  -8   5   4    2.60    0.62
  -8   5   4    2.49    0.54
   7  -5  -4    8.34    0.88
   7  -5  -4    8.40    0.94
  -7   5   4    8.26    0.92
  -7   5   4    9.93    1.05
   6  -5  -4  117.58    7.79
   6  -5  -4  120.61    7.75
  -6   5   4  124.36    7.54
  -6   5   4  117.54    7.74
   5  -5  -4   26.18    1.94
   5  -5  -4   27.01    2.02
   5  -5  -4   26.88    1.98
  -5   5   4   27.55    1.98
   4  -5  -4    0.15    0.20
   4  -5  -4    0.25    0.23
   4  -5  -4    0.17    0.24
  -4   5   4    0.09    0.19
  -4   5   4    0.17    0.23
  -4   5   4    0.36    0.20
   3  -5  -4    1.60    0.31
   3  -5  -4    1.57    0.28
   3  -5  -4    1.34    0.28
   3  -5  -4    1.13    0.31
  -3   5   4    1.20    0.27
  -3   5   4    1.13    0.28
  -3   5   4    1.71    0.31
   2  -5  -4   22.56    1.66
   2  -5  -4   22.57    1.61
   2  -5  -4   23.67    1.63
  -2   5   4   24.80    1.70
  -2   5   4   22.69    1.64
  -2   5   4   23.00    1.63
   1  -5  -4    5.43    0.53
   1  -5  -4    4.90    0.56
   1  -5  -4    4.94    0.52
  -1   5   4    4.73    0.53
  -1   5   4    5.45    0.54
  -1   5   4    5.06    0.49
   0  -5  -4  116.48    7.14
   0  -5  -4  108.54    7.18
   0  -5  -4  118.70    7.14
   0   5   4  114.41    7.18
   0   5   4  107.77    7.24
  -1  -5  -4   33.26    2.01
  -1  -5  -4   27.91    1.99
  -1  -5  -4   34.50    2.03
   1   5   4   28.38    1.99
   1   5   4   26.02    2.00
  -2  -5  -4    3.91    0.42
  -2  -5  -4    3.37    0.39
  -2  -5  -4    2.74    0.38
  -3  -5  -4    0.13    0.16
  -3  -5  -4    0.11    0.14
  -4  -5  -4    1.95    0.27
  -4  -5  -4    2.21    0.28
  -5  -5  -4   -0.21    0.15
  -5  -5  -4    0.17    0.14
  -9   6   4    0.40    0.44
  -9   6   4   -0.19    0.40
  -8   6   4    2.43    0.56
  -8   6   4    2.19    0.60
   7  -6  -4    0.75    0.43
  -7   6   4    1.15    0.43
  -7   6   4    0.60    0.40
   6  -6  -4   10.53    1.12
   6  -6  -4   12.34    1.06
  -6   6   4   10.81    1.11
  -6   6   4   11.99    1.11
   5  -6  -4   48.62    3.25
   5  -6  -4   51.16    3.24
  -5   6   4   41.66    3.21
   4  -6  -4    7.96    0.76
   4  -6  -4    7.47    0.75
   4  -6  -4    8.40    0.86
  -4   6   4    7.55    0.78
  -4   6   4    9.74    0.79
  -4   6   4    7.47    0.81
   3  -6  -4    6.52    0.67
   3  -6  -4    5.64    0.68
   3  -6  -4    6.35    0.66
  -3   6   4    7.15    0.70
  -3   6   4    6.13    0.68
  -3   6   4    6.79    0.65
   2  -6  -4    2.60    0.41
   2  -6  -4    3.60    0.45
   2  -6  -4    3.38    0.47
  -2   6   4    2.64    0.41
  -2   6   4    2.69    0.41
  -2   6   4    2.76    0.39
   1  -6  -4   30.95    2.07
   1  -6  -4   28.84    2.08
   1  -6  -4   28.91    2.04
  -1   6   4   32.71    2.15
  -1   6   4   30.82    2.07
  -1   6   4   27.42    2.06
   0  -6  -4   10.35    0.94
   0  -6  -4   11.02    0.93
   0  -6  -4   11.48    0.97
   0   6   4   12.40    0.92
   0   6   4   12.03    0.94
  -1  -6  -4   10.00    0.87
  -2  -6  -4    0.13    0.20
  -2  -6  -4   -0.04    0.19
  -2  -6  -4    0.37    0.21
  -3  -6  -4    3.02    0.39
  -3  -6  -4    3.52    0.42
  -3  -6  -4    3.48    0.37
  -4  -6  -4    4.52    0.49
  -4  -6  -4    4.36    0.46
  -5  -6  -4    1.35    0.28
  -5  -6  -4    1.73    0.28
   8  -7  -4   18.63    1.64
  -8   7   4   16.74    1.57
  -8   7   4   17.41    1.56
   7  -7  -4    0.11    0.42
  -7   7   4   -0.10    0.36
  -7   7   4    0.89    0.44
   6  -7  -4    1.25    0.44
  -6   7   4    1.41    0.44
  -6   7   4    1.85    0.51
   5  -7  -4    5.28    0.75
  -5   7   4    4.49    0.65
   4  -7  -4   -0.27    0.32
  -4   7   4    0.09    0.18
  -4   7   4   -0.06    0.28
   3  -7  -4    0.70    0.31
   3  -7  -4    0.80    0.34
  -3   7   4    0.50    0.31
  -3   7   4    1.31    0.30
   2  -7  -4  176.75   10.38
   2  -7  -4  160.81   10.31
   2  -7  -4  164.49   10.40
  -2   7   4  162.16   10.39
  -2   7   4  162.36   10.71
  -2   7   4  153.97   10.45
   1  -7  -4   17.25    1.23
  -1   7   4   11.92    1.14
  -1   7   4   15.93    1.22
   0  -7  -4    0.87    0.35
   0  -7  -4    1.74    0.45
   0  -7  -4    1.17    0.37
   0   7   4    0.94    0.33
   0   7   4    1.14    0.33
  -1  -7  -4    1.77    0.37
  -2  -7  -4    7.16    0.69
  -2  -7  -4    6.54    0.66
  -2  -7  -4    6.61    0.65
  -3  -7  -4    0.77    0.27
  -3  -7  -4    0.73    0.26
  -3  -7  -4    0.88    0.22
  -4  -7  -4    1.50    0.31
  -4  -7  -4    1.41    0.29
  -5  -7  -4    2.32    0.37
  -5  -7  -4    3.20    0.40
   8  -8  -4    5.87    0.97
  -8   8   4    5.14    0.90
  -8   8   4    4.64    0.84
   7  -8  -4    2.10    0.65
  -7   8   4    3.65    0.70
  -7   8   4    2.24    0.56
   6  -8  -4   -0.20    0.42
  -6   8   4    0.59    0.42
  -6   8   4   -0.03    0.36
   5  -8  -4    0.54    0.46
  -5   8   4    0.94    0.42
   4  -8  -4    7.93    0.95
  -4   8   4    7.75    0.88
   3  -8  -4    2.38    0.43
   3  -8  -4    2.33    0.49
  -3   8   4    1.90    0.41
   2  -8  -4    2.01    0.46
   2  -8  -4    2.85    0.45
  -2   8   4    2.47    0.48
   1  -8  -4    0.13    0.29
   1  -8  -4    0.02    0.32
  -1   8   4    1.40    0.39
   0  -8  -4    2.41    0.50
   0  -8  -4    2.96    0.48
   0  -8  -4    4.15    0.57
  -1  -8  -4   -0.03    0.26
  -1  -8  -4   -0.05    0.27
  -1  -8  -4    0.05    0.25
  -2  -8  -4    0.43    0.28
  -2  -8  -4    0.05    0.22
  -2  -8  -4   -0.12    0.25
  -3  -8  -4    0.93    0.24
  -3  -8  -4    0.29    0.28
  -3  -8  -4    0.25    0.24
  -4  -8  -4    2.03    0.39
  -4  -8  -4    1.64    0.40
   8  -9  -4   -0.01    0.50
  -8   9   4    0.89    0.58
   7  -9  -4    2.56    0.69
  -7   9   4    2.96    0.65
  -7   9   4    3.65    0.76
   6  -9  -4    1.09    0.51
  -6   9   4    2.02    0.53
  -6   9   4    1.46    0.55
   5  -9  -4    3.81    0.75
  -5   9   4    3.49    0.66
   4  -9  -4    0.03    0.36
  -4   9   4    0.02    0.29
   3  -9  -4   -0.16    0.34
  -3   9   4    0.23    0.32
   2  -9  -4    0.21    0.36
   2  -9  -4   -0.25    0.23
  -2   9   4   -0.02    0.24
   1  -9  -4    3.36    0.62
   1  -9  -4    2.84    0.50
  -1   9   4    3.32    0.57
   0  -9  -4    0.26    0.36
   0  -9  -4    0.51    0.32
  -1  -9  -4    1.56    0.45
  -1  -9  -4    1.04    0.40
  -2  -9  -4   -0.33    0.28
  -2  -9  -4   -0.71    0.24
  -3  -9  -4    0.29    0.31
  -3  -9  -4    1.08    0.34
   7 -10  -4   -0.04    0.52
  -7  10   4    1.03    0.46
  -7  10   4    0.63    0.48
   6 -10  -4    1.25    0.59
  -6  10   4    0.88    0.49
  -6  10   4    0.99    0.51
   5 -10  -4   -0.49    0.40
  -5  10   4   -0.42    0.32
  -5  10   4   -0.17    0.37
   4 -10  -4    0.03    0.43
  -4  10   4    0.22    0.33
   3 -10  -4    1.61    0.53
  -3  10   4    1.01    0.41
   2 -10  -4   -0.31    0.39
  -2  10   4    0.21    0.31
   1 -10  -4    3.94    0.66
   1 -10  -4    5.44    0.79
   0 -10  -4    0.87    0.44
   0 -10  -4    0.84    0.40
  -1 -10  -4    0.46    0.42
  -1 -10  -4    0.22    0.35
  -2 -10  -4   -0.12    0.33
  -2 -10  -4    0.03    0.34
   6 -11  -4   -0.14    0.47
  -6  11   4   -0.12    0.42
  -6  11   4    0.12    0.45
   5 -11  -4   -0.62    0.47
  -5  11   4    0.39    0.45
  -5  11   4   -0.25    0.41
   4 -11  -4    3.79    0.76
  -4  11   4    3.07    0.67
   3 -11  -4    1.25    0.58
  -3  11   4    1.33    0.50
   2 -11  -4   -0.01    0.45
   1 -11  -4    0.38    0.49
   0 -11  -4    1.33    0.54
   0 -11  -4    0.87    0.45
  -1 -11  -4    0.44    0.41
  -1 -11  -4    0.58    0.41
   4 -12  -4    0.68    0.61
  -4  12   4   -0.42    0.36
   3 -12  -4    0.04    0.52
   2 -12  -4    0.02    0.49
  -1  14  -5    0.66    0.48
   1 -14   5    1.44    0.63
  -2  14  -5    0.00    0.41
   2 -14   5    0.05    0.61
  -3  14  -5   -0.04    0.41
   3 -14   5   -0.57    0.52
  -1 -13   5    1.06    0.61
   0  13  -5    1.61    0.52
   0 -13   5    1.83    0.76
  -1  13  -5    2.75    0.59
   1 -13   5    2.60    0.78
  -2  13  -5    0.10    0.37
   2 -13   5   -0.73    0.50
  -3  13  -5   -0.26    0.33
   3 -13   5   -0.08    0.57
  -4  13  -5    2.34    0.57
  -4  13  -5    3.50    0.73
   4 -13   5    3.82    0.86
  -5  13  -5    0.09    0.38
  -5  13  -5    0.42    0.48
   5 -13   5   -0.04    0.61
  -3 -12   5    0.23    0.59
  -2 -12   5   -0.30    0.51
   1  12  -5    0.12    0.34
  -1 -12   5    0.01    0.56
   0  12  -5    5.58    0.82
   0 -12   5    3.90    0.78
  -1  12  -5    0.44    0.31
   1 -12   5   -0.18    0.46
  -2  12  -5    9.30    1.09
   2 -12   5    7.96    1.09
  -3  12  -5    3.92    0.60
   3 -12   5    4.02    0.89
  -4  12  -5   10.68    1.17
  -4  12  -5    8.82    0.95
   4 -12   5    7.68    1.14
  -5  12  -5    0.43    0.39
  -5  12  -5    0.18    0.41
   5 -12   5    0.52    0.51
  -6  12  -5    2.03    0.56
  -6  12  -5    1.40    0.56
   6 -12   5    1.68    0.62
  -4 -11   5    3.95    0.83
  -4 -11   5    3.19    0.73
  -3 -11   5    1.09    0.59
  -2 -11   5    1.20    0.61
   1  11  -5    0.01    0.29
  -1 -11   5    0.60    0.48
   0  11  -5    3.04    0.60
   0 -11   5    2.73    0.64
  -1  11  -5    0.82    0.42
   1 -11   5   -0.17    0.43
  -2  11  -5    9.06    0.82
  -2  11  -5    8.53    1.07
   2 -11   5    9.98    1.19
  -3  11  -5    1.94    0.45
  -3  11  -5    2.42    0.50
   3 -11   5    0.50    0.54
  -4  11  -5    5.25    0.78
  -4  11  -5    5.09    0.70
   4 -11   5    4.12    0.75
  -5  11  -5    2.00    0.53
  -5  11  -5    2.19    0.53
   5 -11   5    1.74    0.57
  -6  11  -5   10.88    1.18
  -6  11  -5    7.35    1.03
  -7  11  -5    0.52    0.49
  -7  11  -5    1.38    0.50
  -4 -10   5   -0.50    0.45
  -4 -10   5   -0.19    0.37
  -3 -10   5    1.29    0.58
  -3 -10   5    0.91    0.46
   2  10  -5    8.61    0.94
  -2 -10   5    8.60    1.07
  -2 -10   5    7.68    0.90
   1  10  -5    1.42    0.43
  -1 -10   5    2.31    0.59
  -1 -10   5    1.05    0.39
   0  10  -5    6.31    0.81
   0 -10   5    7.21    0.93
  -1  10  -5    2.82    0.37
  -1  10  -5    2.91    0.54
   1 -10   5    2.71    0.56
  -2  10  -5    0.16    0.24
  -2  10  -5   -0.33    0.28
   2 -10   5   -0.64    0.35
  -3  10  -5    7.01    0.87
  -3  10  -5    9.94    0.84
   3 -10   5    7.61    0.98
  -4  10  -5   13.91    1.16
  -4  10  -5   12.89    1.20
   4 -10   5   13.85    1.41
  -5  10  -5   10.29    1.08
  -5  10  -5   11.56    1.09
   5 -10   5   12.11    1.27
  -6  10  -5    9.00    0.97
  -6  10  -5    8.00    0.99
  -7  10  -5    1.10    0.51
  -7  10  -5    1.18    0.46
  -5  -9   5    2.68    0.70
  -5  -9   5    1.72    0.54
   4   9  -5    0.77    0.35
  -4  -9   5    0.71    0.48
  -4  -9   5    0.17    0.38
   3   9  -5    3.48    0.59
   3   9  -5    4.26    0.62
  -3  -9   5    2.97    0.69
  -3  -9   5    2.97    0.59
   2   9  -5   44.89    3.06
   2   9  -5   43.51    3.12
  -2  -9   5   41.70    3.15
  -2  -9   5   46.58    3.08
   1   9  -5    0.16    0.24
  -1  -9   5    0.35    0.38
  -1  -9   5   -0.03    0.27
   0   9  -5    5.09    0.44
   0   9  -5    4.98    0.67
   0  -9   5    5.85    0.78
   0  -9   5    6.07    0.74
  -1   9  -5    0.30    0.18
  -1   9  -5    0.00    0.25
   1  -9   5    0.17    0.26
   1  -9   5   -0.43    0.32
  -2   9  -5    5.64    0.72
  -2   9  -5    4.63    0.57
  -2   9  -5    5.20    0.68
   2  -9   5    6.09    0.82
  -3   9  -5    7.36    0.80
  -3   9  -5    5.27    0.76
  -3   9  -5    7.45    0.72
   3  -9   5    7.14    0.92
  -4   9  -5    0.71    0.38
  -4   9  -5    1.13    0.34
  -4   9  -5    0.72    0.31
   4  -9   5    1.15    0.48
  -5   9  -5    1.61    0.39
  -5   9  -5    2.19    0.47
  -5   9  -5    1.84    0.46
   5  -9   5    1.47    0.55
  -6   9  -5    0.71    0.34
  -6   9  -5    0.39    0.42
  -6   9  -5    1.09    0.37
  -7   9  -5    1.24    0.45
  -7   9  -5    1.14    0.33
  -7   9  -5    1.77    0.58
  -8   9  -5    2.34    0.60
  -8   9  -5    1.46    0.49
  -8   9  -5    1.85    0.51
   6   8  -5    0.36    0.34
  -6  -8   5   -0.03    0.43
  -6  -8   5   -0.26    0.36
   5   8  -5    1.63    0.43
  -5  -8   5    2.38    0.62
  -5  -8   5    2.34    0.53
   4   8  -5   -0.14    0.23
  -4  -8   5   -0.01    0.32
  -4  -8   5    0.43    0.42
   3   8  -5   22.15    1.78
   3   8  -5   24.26    1.76
  -3  -8   5   25.64    1.83
  -3  -8   5   22.11    1.87
   2   8  -5    2.39    0.44
   2   8  -5    1.80    0.40
  -2  -8   5    2.99    0.56
  -2  -8   5    2.83    0.51
   1   8  -5    1.14    0.32
   1   8  -5    1.20    0.36
  -1  -8   5    1.74    0.40
  -1  -8   5    0.86    0.39
   0   8  -5    1.77    0.22
   0   8  -5    1.03    0.28
   0   8  -5    1.41    0.35
   0   8  -5    0.46    0.30
   0  -8   5    1.74    0.44
   0  -8   5    1.21    0.36
   0  -8   5    1.02    0.25
  -1   8  -5    1.04    0.31
  -1   8  -5    0.59    0.28
  -1   8  -5    1.12    0.23
  -1   8  -5    1.04    0.29
   1  -8   5    0.90    0.27
   1  -8   5    0.81    0.36
  -2   8  -5    1.79    0.33
  -2   8  -5    1.29    0.33
  -2   8  -5    2.35    0.44
  -2   8  -5    1.97    0.34
   2  -8   5    1.56    0.37
   2  -8   5    1.68    0.47
  -3   8  -5    1.37    0.35
  -3   8  -5    1.09    0.31
  -3   8  -5    1.26    0.38
   3  -8   5    1.21    0.41
  -4   8  -5  112.01    7.07
  -4   8  -5  105.18    6.91
  -4   8  -5  108.09    7.11
   4  -8   5  116.69    7.19
  -5   8  -5    5.56    0.70
  -5   8  -5    5.21    0.70
  -5   8  -5    5.13    0.65
   5  -8   5    4.50    0.71
  -6   8  -5    1.69    0.38
  -6   8  -5    1.81    0.51
  -6   8  -5    1.75    0.41
  -7   8  -5    2.33    0.60
  -7   8  -5    2.33    0.50
  -7   8  -5    2.21    0.49
  -8   8  -5    3.22    0.61
  -8   8  -5    3.43    0.58
  -8   8  -5    4.06    0.77
   6   7  -5    0.06    0.27
  -6  -7   5   -0.20    0.35
  -6  -7   5   -0.02    0.42
   5   7  -5    0.15    0.22
  -5  -7   5    0.26    0.33
  -5  -7   5    0.92    0.38
   4   7  -5   50.35    3.32
   4   7  -5   49.55    3.23
  -4  -7   5   51.40    3.26
  -4  -7   5   38.75    3.23
   3   7  -5   32.67    2.28
   3   7  -5   32.59    2.32
  -3  -7   5   29.42    2.28
  -3  -7   5   33.91    2.25
   2   7  -5   20.57    1.43
   2   7  -5   16.87    1.41
  -2  -7   5   21.30    1.40
  -2  -7   5   15.10    1.44
  -2  -7   5   18.66    1.43
   1   7  -5    1.31    0.29
   1   7  -5    1.52    0.33
   1   7  -5    1.37    0.31
  -1  -7   5    0.99    0.36
  -1  -7   5    1.09    0.29
   0   7  -5   98.97    6.49
   0   7  -5   91.55    6.00
   0   7  -5  102.22    6.33
   0  -7   5  102.42    6.39
   0  -7   5   94.62    6.00
   0  -7   5  102.88    6.28
  -1   7  -5    9.29    0.82
  -1   7  -5    9.69    0.73
  -1   7  -5   10.73    0.86
   1  -7   5    8.96    0.70
   1  -7   5    7.97    0.88
   1  -7   5    8.63    0.81
  -2   7  -5    3.23    0.38
  -2   7  -5    2.27    0.37
  -2   7  -5    2.69    0.38
  -2   7  -5    3.05    0.39
   2  -7   5    2.81    0.41
   2  -7   5    1.82    0.42
  -3   7  -5  146.88    8.37
  -3   7  -5  111.86    8.37
  -3   7  -5  130.45    8.35
  -3   7  -5  140.59    8.15
   3  -7   5  128.82    8.43
  -4   7  -5   56.42    3.66
  -4   7  -5   54.05    3.60
  -4   7  -5   54.89    3.65
  -4   7  -5   58.25    3.68
   4  -7   5   52.38    3.71
  -5   7  -5   12.73    1.02
  -5   7  -5   11.56    1.01
  -5   7  -5   12.20    1.10
  -5   7  -5   11.59    1.01
   5  -7   5   11.51    1.13
  -6   7  -5   19.00    1.38
  -6   7  -5   17.12    1.36
  -6   7  -5   15.39    1.40
  -7   7  -5   12.55    1.10
  -7   7  -5   13.22    1.27
  -7   7  -5   11.52    1.08
  -8   7  -5    8.40    0.88
  -8   7  -5    8.02    0.83
  -8   7  -5    5.72    0.90
   7   6  -5    0.58    0.36
  -7  -6   5    1.15    0.45
  -7  -6   5    0.45    0.39
   6   6  -5    1.55    0.42
  -6  -6   5    1.48    0.43
  -6  -6   5    1.92    0.50
   5   6  -5    3.38    0.52
  -5  -6   5    5.28    0.68
  -5  -6   5    3.99    0.59
   4   6  -5    3.44    0.54
   4   6  -5    3.89    0.54
  -4  -6   5    3.59    0.58
  -4  -6   5    4.70    0.56
  -4  -6   5    3.80    0.59
   3   6  -5    6.29    0.68
   3   6  -5    4.69    0.60
  -3  -6   5    5.94    0.74
  -3  -6   5    6.89    0.66
  -3  -6   5    5.42    0.65
   2   6  -5    0.07    0.18
   2   6  -5   -0.05    0.19
  -2  -6   5    0.44    0.28
  -2  -6   5    0.19    0.19
  -2  -6   5    0.20    0.23
   1   6  -5    6.04    0.63
   1   6  -5    7.34    0.60
   1   6  -5    6.66    0.62
  -1  -6   5    6.23    0.70
  -1  -6   5    6.47    0.64
  -1  -6   5    6.02    0.44
   0   6  -5   70.69    4.24
   0   6  -5   67.32    4.32
   0   6  -5   61.73    3.99
   0   6  -5   70.14    4.18
   0  -6   5   69.61    4.20
   0  -6   5   55.20    4.15
   0  -6   5   56.27    4.24
   0  -6   5   67.89    3.99
  -1   6  -5   49.95    3.15
  -1   6  -5   46.76    3.15
  -1   6  -5   49.88    3.13
  -1   6  -5   50.18    3.21
  -1   6  -5   44.75    3.00
   1  -6   5   48.18    3.14
   1  -6   5   44.49    2.99
   1  -6   5   48.14    3.20
  -2   6  -5    7.25    0.59
  -2   6  -5    6.79    0.60
  -2   6  -5    6.30    0.61
  -2   6  -5    6.64    0.56
  -2   6  -5    5.93    0.60
   2  -6   5    4.31    0.60
  -3   6  -5  116.98    7.26
  -3   6  -5  115.99    7.42
  -3   6  -5  121.19    7.48
  -3   6  -5  117.02    7.43
   3  -6   5  114.47    7.50
  -4   6  -5   10.05    0.83
  -4   6  -5    9.87    0.83
  -4   6  -5    8.56    0.89
  -4   6  -5   10.09    0.84
   4  -6   5    8.44    0.89
  -5   6  -5    7.09    0.67
  -5   6  -5    7.66    0.86
  -5   6  -5    6.24    0.68
  -5   6  -5    5.94    0.65
   5  -6   5    7.61    0.81
  -6   6  -5    7.72    0.77
  -6   6  -5    6.87    0.73
  -6   6  -5    8.13    0.88
  -6   6  -5    8.36    0.76
  -7   6  -5    0.30    0.41
  -7   6  -5    0.22    0.22
  -7   6  -5    0.24    0.24
  -7   6  -5    0.01    0.23
  -8   6  -5    1.38    0.50
  -8   6  -5    1.15    0.33
  -8   6  -5    0.94    0.37
   7   5  -5    6.68    0.84
  -7  -5   5    8.91    0.94
  -7  -5   5    6.74    0.85
   6   5  -5    1.78    0.40
  -6  -5   5    2.16    0.44
  -6  -5   5    1.88    0.46
   5   5  -5    4.09    0.58
   5   5  -5    5.76    0.66
  -5  -5   5    5.74    0.69
  -5  -5   5    4.70    0.62
  -5  -5   5    5.33    0.59
   4   5  -5   -0.01    0.18
   4   5  -5    0.03    0.20
  -4  -5   5    0.11    0.26
  -4  -5   5    0.14    0.20
  -4  -5   5   -0.07    0.22
   3   5  -5   57.42    3.77
   3   5  -5   55.38    3.68
  -3  -5   5   45.81    3.67
  -3  -5   5   63.69    3.66
  -3  -5   5   56.89    3.68
   2   5  -5    0.58    0.23
   2   5  -5    0.27    0.16
  -2  -5   5    0.27    0.19
  -2  -5   5    0.06    0.21
  -2  -5   5   -0.02    0.14
   1   5  -5   21.20    1.46
   1   5  -5   20.87    1.42
  -1  -5   5   20.35    1.45
  -1  -5   5   20.37    1.29
  -1  -5   5   19.51    1.42
  -1  -5   5   19.89    1.48
   0   5  -5   17.84    1.25
   0   5  -5   18.00    1.17
   0   5  -5   16.93    1.28
   0   5  -5   17.58    1.27
   0   5  -5   17.00    1.26
   0  -5   5   16.62    1.31
   0  -5   5   17.82    1.26
   0  -5   5   18.43    1.17
   0  -5   5   17.93    1.25
  -1   5  -5    3.34    0.39
  -1   5  -5    3.75    0.38
  -1   5  -5    2.83    0.35
  -1   5  -5    3.27    0.41
   1  -5   5    2.74    0.42
   1  -5   5    4.08    0.42
   1  -5   5    4.09    0.38
  -2   5  -5   18.26    1.32
  -2   5  -5   18.44    1.33
  -2   5  -5   19.23    1.35
  -2   5  -5   20.85    1.36
   2  -5   5   17.69    1.38
  -3   5  -5    6.76    0.61
  -3   5  -5    6.86    0.61
  -3   5  -5    7.50    0.64
  -3   5  -5    7.01    0.67
   3  -5   5    6.44    0.67
  -4   5  -5   50.75    3.31
  -4   5  -5   47.76    3.31
  -4   5  -5   50.05    3.31
  -4   5  -5   53.99    3.33
   4  -5   5   51.10    3.35
  -5   5  -5    1.08    0.28
  -5   5  -5    1.26    0.30
  -5   5  -5    1.26    0.42
  -5   5  -5    1.39    0.30
   5  -5   5    2.26    0.39
  -6   5  -5   15.59    1.13
  -6   5  -5   13.24    1.14
  -6   5  -5   14.20    1.14
  -6   5  -5   17.55    1.34
  -7   5  -5    5.70    0.63
  -7   5  -5    6.15    0.65
  -7   5  -5    5.61    0.81
  -7   5  -5    5.79    0.60
  -8   5  -5    1.33    0.32
  -8   5  -5    1.38    0.36
  -8   5  -5    1.75    0.31
  -8   5  -5    1.33    0.54
   8   4  -5   -0.23    0.27
  -8  -4   5   -0.25    0.33
  -8  -4   5    0.04    0.38
   7   4  -5    3.19    0.55
  -7  -4   5    4.11    0.62
  -7  -4   5    3.66    0.63
   6   4  -5    3.20    0.51
  -6  -4   5    3.31    0.50
  -6  -4   5    3.82    0.57
  -6  -4   5    3.17    0.51
   5   4  -5   10.96    0.90
   5   4  -5    7.14    0.87
  -5  -4   5   11.13    0.90
  -5  -4   5   10.54    0.75
  -5  -4   5   10.72    0.97
  -5  -4   5   10.72    0.95
   4   4  -5   -0.13    0.15
   4   4  -5   -0.27    0.17
  -4  -4   5   -0.08    0.22
  -4  -4   5   -0.12    0.16
  -4  -4   5   -0.33    0.19
  -4  -4   5    0.07    0.11
   3   4  -5   12.83    1.00
   3   4  -5   12.27    0.98
  -3  -4   5   13.04    0.97
  -3  -4   5   12.17    1.02
  -3  -4   5   12.51    0.82
  -3  -4   5   13.05    1.00
   2   4  -5   55.27    3.77
   2   4  -5   54.67    3.68
   2   4  -5   55.89    3.63
  -2  -4   5   63.02    3.66
  -2  -4   5   56.29    3.70
  -2  -4   5   54.45    3.45
  -2  -4   5   56.27    3.67
   1   4  -5    0.75    0.22
   1   4  -5    0.94    0.19
   1   4  -5    0.97    0.20
  -1  -4   5    0.53    0.16
  -1  -4   5    0.60    0.14
  -1  -4   5    0.31    0.20
  -1  -4   5    0.93    0.24
   0   4  -5   27.45    2.00
   0   4  -5   27.52    1.98
   0   4  -5   29.12    1.97
   0   4  -5   30.59    2.03
   0  -4   5   31.42    2.04
   0  -4   5   33.05    2.00
   0  -4   5   28.78    1.89
  -1   4  -5  273.00   16.99
  -1   4  -5  259.23   16.52
  -1   4  -5  268.27   16.44
  -1   4  -5  269.20   15.99
  -1   4  -5  227.37   16.40
   1  -4   5  269.30   16.54
   1  -4   5  264.02   17.01
   1  -4   5  262.82   16.41
   1  -4   5  281.60   15.99
  -2   4  -5   11.98    0.87
  -2   4  -5   12.01    0.85
  -2   4  -5   12.83    0.88
  -2   4  -5   11.01    0.87
   2  -4   5   11.10    0.90
   2  -4   5    9.63    0.86
  -3   4  -5    5.78    0.51
  -3   4  -5    5.97    0.52
  -3   4  -5    5.79    0.60
  -3   4  -5    5.94    0.51
  -3   4  -5    5.00    0.51
   3  -4   5    5.46    0.56
  -4   4  -5   38.73    2.92
  -4   4  -5   46.46    2.93
  -4   4  -5   49.85    2.95
  -4   4  -5   44.41    2.96
  -4   4  -5   46.79    2.93
   4  -4   5   43.38    2.96
  -5   4  -5    1.35    0.25
  -5   4  -5    1.14    0.39
  -5   4  -5    0.69    0.21
  -5   4  -5    1.00    0.25
   5  -4   5    1.29    0.30
  -6   4  -5   22.21    1.64
  -6   4  -5   20.03    1.42
  -6   4  -5   21.13    1.46
  -6   4  -5   19.24    1.45
  -7   4  -5   23.42    1.60
  -7   4  -5   18.04    1.55
  -7   4  -5   24.78    1.51
  -7   4  -5   21.70    1.76
  -8   4  -5    2.13    0.37
  -8   4  -5    2.47    0.41
  -8   4  -5    2.45    0.63
   8  -4   5    1.89    0.41
   8   3  -5   -0.15    0.29
  -8  -3   5    0.20    0.35
  -8  -3   5    0.04    0.28
   7   3  -5    0.67    0.32
  -7  -3   5    0.95    0.35
  -7  -3   5    1.16    0.40
   6   3  -5    3.07    0.51
  -6  -3   5    3.14    0.52
  -6  -3   5    3.90    0.49
  -6  -3   5    4.15    0.46
  -6  -3   5    4.37    0.59
   5   3  -5    6.07    0.67
   5   3  -5    6.67    0.67
  -5  -3   5    4.35    0.63
  -5  -3   5    6.98    0.64
  -5  -3   5    6.72    0.56
   4   3  -5   14.48    1.12
   4   3  -5   16.44    1.17
  -4  -3   5   13.38    1.08
  -4  -3   5   14.62    1.00
  -4  -3   5   14.33    1.14
   3   3  -5   64.48    4.37
   3   3  -5   61.68    4.24
  -3  -3   5   69.03    4.24
  -3  -3   5   65.11    4.26
  -3  -3   5   67.53    4.21
   2   3  -5    0.09    0.12
   2   3  -5    0.20    0.14
   2   3  -5    0.22    0.16
  -2  -3   5    0.18    0.16
  -2  -3   5   -0.17    0.13
  -2  -3   5   -0.13    0.13
   1   3  -5   44.94    2.64
   1   3  -5   40.94    2.66
   1   3  -5   38.77    2.64
   1   3  -5   35.48    2.71
  -1  -3   5   38.16    2.52
  -1  -3   5   42.79    2.66
  -1  -3   5   40.62    2.68
  -1  -3   5   39.72    2.63
  -1  -3   5   43.73    2.73
   0   3  -5  348.66   22.66
   0   3  -5  345.89   22.00
   0   3  -5  351.40   21.87
   0  -3   5  351.09   22.02
   0  -3   5  362.18   21.88
   0  -3   5  355.22   21.27
  -1   3  -5  918.59   55.88
  -1   3  -5  939.42   56.19
   1  -3   5  900.40   56.20
   1  -3   5  858.15   57.92
   1  -3   5  900.50   54.39
  -2   3  -5    5.52    0.48
  -2   3  -5    5.50    0.49
  -2   3  -5    5.32    0.47
  -2   3  -5    5.49    0.48
  -2   3  -5    5.29    0.53
   2  -3   5    5.31    0.47
   2  -3   5    5.79    0.54
  -3   3  -5    0.23    0.23
  -3   3  -5    0.06    0.11
  -3   3  -5    0.02    0.13
  -3   3  -5    0.01    0.11
  -3   3  -5   -0.04    0.11
   3  -3   5   -0.05    0.11
   3  -3   5    0.06    0.15
  -4   3  -5   58.52    3.65
  -4   3  -5   52.68    3.63
  -4   3  -5   60.54    3.70
  -4   3  -5   53.97    3.63
   4  -3   5   59.65    3.74
   4  -3   5   56.70    3.67
  -5   3  -5    6.94    0.60
  -5   3  -5    7.99    0.62
  -5   3  -5    8.00    0.78
  -5   3  -5    6.59    0.57
   5  -3   5    7.08    0.60
  -6   3  -5   29.05    1.77
  -6   3  -5   27.14    1.82
  -6   3  -5   27.89    2.00
  -6   3  -5   24.09    1.81
   6  -3   5   26.22    1.86
  -7   3  -5   17.49    1.25
  -7   3  -5   20.19    1.53
  -7   3  -5   16.17    1.25
   7  -3   5   16.68    1.28
  -8   3  -5    0.13    0.44
  -8   3  -5    0.25    0.23
  -8   3  -5    0.14    0.21
   8  -3   5    0.07    0.25
   8   2  -5    0.72    0.40
   8   2  -5    0.19    0.31
  -8  -2   5    0.44    0.40
  -8  -2   5    0.67    0.42
   7   2  -5   11.31    1.13
   7   2  -5   13.15    1.10
  -7  -2   5   12.91    1.15
  -7  -2   5   13.65    1.15
  -7  -2   5   12.44    1.04
   6   2  -5    0.40    0.26
   6   2  -5    0.74    0.29
  -6  -2   5    0.69    0.33
  -6  -2   5    0.99    0.29
  -6  -2   5    0.00    0.23
   5   2  -5   19.29    1.52
   5   2  -5   19.04    1.49
  -5  -2   5   22.05    1.47
  -5  -2   5   21.75    1.52
  -5  -2   5   19.42    1.52
  -5  -2   5   20.65    1.40
   4   2  -5    1.36    0.28
   4   2  -5    1.40    0.27
  -4  -2   5    1.11    0.29
  -4  -2   5    1.15    0.23
  -4  -2   5    0.79    0.19
  -4  -2   5    0.93    0.27
   3   2  -5    3.44    0.42
   3   2  -5    3.06    0.40
   3   2  -5    3.17    0.37
  -3  -2   5    4.32    0.49
  -3  -2   5    3.56    0.40
  -3  -2   5    3.49    0.42
   2   2  -5   64.92    4.39
   2   2  -5   68.32    4.28
   2   2  -5   68.86    4.23
  -2  -2   5   68.31    4.24
  -2  -2   5   66.78    4.29
  -2  -2   5   61.33    4.37
   1   2  -5   19.12    1.33
   1   2  -5   19.26    1.31
   1   2  -5   18.76    1.32
   1   2  -5   17.79    1.34
  -1  -2   5   19.74    1.35
  -1  -2   5   18.60    1.32
  -1  -2   5   20.35    1.31
   0   2  -5  287.38   20.24
   0   2  -5  314.80   19.66
   0   2  -5  325.55   19.54
   0  -2   5  331.26   20.26
   0  -2   5  308.51   19.55
   0  -2   5  321.44   19.03
  -1   2  -5  161.38   11.37
  -1   2  -5  177.49   11.64
  -1   2  -5  195.62   11.73
  -1   2  -5  181.67   11.81
  -1   2  -5  188.19   11.66
   1  -2   5  199.59   12.08
   1  -2   5  205.37   11.74
  -2   2  -5   14.54    1.08
  -2   2  -5   15.02    1.01
  -2   2  -5   14.77    1.01
  -2   2  -5   12.25    0.98
  -2   2  -5   14.82    1.01
   2  -2   5   14.76    1.00
  -3   2  -5   19.62    1.21
  -3   2  -5   16.83    1.20
  -3   2  -5   18.73    1.32
  -3   2  -5   14.54    1.18
  -3   2  -5   17.80    1.19
   3  -2   5   17.57    1.22
   3  -2   5   19.01    1.20
  -4   2  -5   61.75    4.07
  -4   2  -5   71.80    4.08
  -4   2  -5   67.98    4.07
  -4   2  -5   59.51    4.11
  -4   2  -5   62.23    4.07
   4  -2   5   59.23    4.08
   4  -2   5   70.02    4.17
   4  -2   5   60.45    4.16
  -5   2  -5    0.25    0.14
  -5   2  -5   -0.29    0.27
  -5   2  -5    0.24    0.14
  -6   2  -5    8.77    0.70
  -6   2  -5   10.01    0.98
  -6   2  -5    8.53    0.69
   6  -2   5    8.76    0.68
   6  -2   5    9.28    0.68
  -7   2  -5    0.12    0.16
  -7   2  -5   -0.09    0.15
  -7   2  -5   -0.13    0.36
   7  -2   5    0.12    0.17
  -8   2  -5    0.05    0.15
  -8   2  -5   -0.15    0.17
  -8   2  -5    0.15    0.44
   8  -2   5   -0.03    0.21
  -9  -1   5    3.42    0.64
   8   1  -5    8.22    0.94
   8   1  -5   10.42    1.04
  -8  -1   5    9.57    1.02
   7   1  -5    1.40    0.41
   7   1  -5    1.37    0.36
  -7  -1   5    1.75    0.43
  -7  -1   5    1.53    0.38
   6   1  -5    0.78    0.27
   6   1  -5    0.50    0.29
   6   1  -5    0.11    0.26
  -6  -1   5    0.47    0.23
  -6  -1   5   -0.05    0.24
  -6  -1   5   -0.05    0.24
   5   1  -5   22.79    1.73
   5   1  -5   25.26    1.80
   5   1  -5   24.13    1.74
  -5  -1   5   25.59    1.70
  -5  -1   5   24.68    1.77
  -5  -1   5   23.89    1.66
   4   1  -5    4.26    0.49
   4   1  -5    5.06    0.50
  -4  -1   5    3.32    0.46
  -4  -1   5    4.22    0.44
   3   1  -5   43.10    2.66
   3   1  -5   41.17    2.59
   3   1  -5   33.06    2.53
  -3  -1   5   38.30    2.57
  -3  -1   5   39.14    2.60
   2   1  -5  122.61    8.44
   2   1  -5  144.34    8.40
   2   1  -5  149.60    8.73
  -2  -1   5  127.93    8.69
  -2  -1   5  138.63    8.40
  -2  -1   5  127.37    8.37
  -2  -1   5  126.48    8.46
   1   1  -5  178.18   10.63
   1   1  -5  149.47   10.31
   1   1  -5  156.03   10.40
   1   1  -5  164.31   10.24
  -1  -1   5  172.36   10.33
   0   1  -5   33.25    2.23
   0   1  -5   33.35    2.22
   0   1  -5   33.76    2.20
   0  -1   5   33.08    2.18
   0  -1   5   35.55    2.29
   0  -1   5   34.95    2.24
  -1   1  -5   67.22    4.64
  -1   1  -5   73.11    4.64
  -1   1  -5   78.90    4.65
  -1   1  -5   72.56    4.63
  -1   1  -5   79.10    4.63
   1  -1   5   62.54    4.76
   1  -1   5   80.31    4.66
  -2   1  -5   18.31    1.29
  -2   1  -5   19.91    1.38
  -2   1  -5   16.81    1.29
  -2   1  -5   21.37    1.30
  -2   1  -5   19.81    1.31
   2  -1   5   19.50    1.31
   2  -1   5   20.68    1.31
  -3   1  -5   12.86    0.91
  -3   1  -5   12.42    0.92
  -3   1  -5   15.27    0.92
  -3   1  -5   14.58    1.09
  -3   1  -5   12.51    0.90
   3  -1   5   13.42    0.93
  -4   1  -5   25.15    1.81
  -4   1  -5   30.16    1.82
  -4   1  -5   30.40    1.99
   4  -1   5   27.61    1.81
  -5   1  -5    6.75    0.77
  -5   1  -5    5.51    0.45
  -5   1  -5    5.34    0.45
  -6   1  -5    0.16    0.13
  -6   1  -5   -0.07    0.12
  -6   1  -5   -0.52    0.31
  -7   1  -5    0.19    0.15
  -7   1  -5   -0.05    0.40
  -7   1  -5    0.11    0.14
  -8   1  -5    2.30    0.30
  -8   1  -5    3.19    0.71
   8  -1   5    3.19    0.35
  -9   0   5    4.54    0.74
   8   0  -5   11.54    1.18
   8   0  -5   11.21    1.11
  -8   0   5   13.13    1.16
  -8   0   5   14.19    1.23
   7   0  -5    0.05    0.28
   7   0  -5    0.07    0.26
  -7   0   5    0.08    0.28
  -7   0   5   -0.15    0.26
   6   0  -5    0.59    0.28
   6   0  -5    0.73    0.30
   6   0  -5    0.69    0.29
  -6   0   5    1.00    0.34
  -6   0   5    0.43    0.24
  -6   0   5    1.35    0.37
   5   0  -5   19.21    1.38
   5   0  -5   17.77    1.30
   5   0  -5   17.70    1.33
  -5   0   5   15.45    1.25
  -5   0   5   16.79    1.26
  -5   0   5   17.79    1.34
   4   0  -5   19.63    1.40
   4   0  -5   20.34    1.45
   4   0  -5   19.15    1.38
  -4   0   5   17.70    1.39
  -4   0   5   19.07    1.35
   3   0  -5  271.31   16.78
   3   0  -5  259.03   16.65
   3   0  -5  281.57   17.30
   3   0  -5  281.82   16.95
  -3   0   5  282.51   16.79
  -3   0   5  265.12   16.65
  -3   0   5  232.23   17.25
   2   0  -5    1.03    0.22
   2   0  -5    0.70    0.19
   2   0  -5    1.18    0.24
   2   0  -5    0.84    0.24
  -2   0   5    0.86    0.21
  -2   0   5    0.87    0.25
  -2   0   5    0.80    0.19
   1   0  -5   82.60    5.09
   1   0  -5   79.53    5.04
   1   0  -5   76.05    5.22
   1   0  -5   74.08    5.11
  -1   0   5   81.36    5.05
  -1   0   5   78.59    5.09
  -1   0   5   86.85    5.25
   0   0  -5   15.40    1.07
   0   0  -5   15.19    1.05
   0   0  -5   13.26    1.07
   0   0   5   15.41    1.10
   0   0   5   17.10    1.10
   0   0   5   15.99    1.07
  -1   0  -5  136.26    8.21
  -1   0  -5  134.38    8.21
  -1   0  -5  131.83    8.25
  -1   0  -5  139.28    8.26
   1   0   5  133.30    8.34
   1   0   5  117.20    8.49
   1   0   5  128.61    8.26
  -2   0  -5    8.12    0.61
  -2   0  -5    8.93    0.61
  -2   0  -5    8.12    0.60
   2   0   5    8.29    0.59
   2   0   5    8.00    0.62
  -3   0  -5    2.07    0.40
  -3   0  -5    2.46    0.25
  -3   0  -5    2.29    0.21
  -3   0  -5    2.33    0.25
   3   0   5    2.07    0.20
   3   0   5    2.25    0.25
  -4   0  -5    0.85    0.15
  -4   0  -5    0.91    0.15
  -4   0  -5    1.00    0.36
  -5   0  -5   24.67    1.53
  -5   0  -5   21.13    1.52
  -5   0  -5   28.15    1.83
  -6   0  -5    0.45    0.40
  -7   0  -5   -0.34    0.42
  -9   1   5   13.48    1.25
  -9   1   5   11.12    1.18
   8  -1  -5    3.56    0.57
  -8   1   5    2.59    0.56
  -8   1   5    3.33    0.63
   7  -1  -5    3.88    0.56
   7  -1  -5    3.24    0.54
   7  -1  -5    3.61    0.57
  -7   1   5    4.80    0.65
  -7   1   5    3.41    0.56
   6  -1  -5   22.30    1.67
   6  -1  -5   23.52    1.70
   6  -1  -5   21.71    1.72
  -6   1   5   22.19    1.65
  -6   1   5   23.01    1.69
   5  -1  -5    2.00    0.36
   5  -1  -5    1.82    0.38
   5  -1  -5    2.30    0.39
  -5   1   5    2.05    0.34
  -5   1   5    2.26    0.42
   4  -1  -5   28.60    2.00
   4  -1  -5   25.98    1.99
   4  -1  -5   31.38    1.97
   4  -1  -5   28.39    2.05
  -4   1   5   30.76    2.03
   3  -1  -5   60.82    3.94
   3  -1  -5   66.83    4.04
   3  -1  -5   58.50    4.11
   3  -1  -5   57.85    3.99
  -3   1   5   65.03    3.95
  -3   1   5   61.26    4.01
  -3   1   5   60.39    4.10
   2  -1  -5   11.39    0.89
   2  -1  -5   13.17    0.88
   2  -1  -5   11.55    0.85
   2  -1  -5   11.65    0.90
  -2   1   5    9.49    0.88
  -2   1   5   11.49    0.90
   1  -1  -5    3.58    0.36
   1  -1  -5    4.46    0.40
   1  -1  -5    4.03    0.39
   1  -1  -5    4.44    0.43
  -1   1   5    4.34    0.43
  -1   1   5    4.27    0.41
  -1   1   5    4.31    0.39
   0  -1  -5    5.29    0.47
   0  -1  -5    6.26    0.48
   0  -1  -5    4.87    0.42
   0  -1  -5    5.81    0.50
   0   1   5    6.47    0.48
   0   1   5    5.18    0.48
   0   1   5    6.57    0.50
  -1  -1  -5  124.09    8.28
  -1  -1  -5  129.41    8.24
  -1  -1  -5  135.51    8.30
   1   1   5  135.71    8.53
   1   1   5  138.20    8.38
   1   1   5  129.62    8.29
  -2  -1  -5    1.67    0.21
  -2  -1  -5    1.58    0.20
  -2  -1  -5    2.01    0.21
   2   1   5    1.46    0.18
   2   1   5    1.78    0.23
  -3  -1  -5   70.23    4.40
  -4  -1  -5    4.74    0.36
  -4  -1  -5    4.39    0.35
  -5  -1  -5   70.11    4.55
  -6  -1  -5    2.96    0.58
  -7  -1  -5    1.74    0.53
   9  -2  -5    1.45    0.50
  -9   2   5    2.29    0.59
  -9   2   5    1.68    0.58
   8  -2  -5    8.48    0.88
  -8   2   5    9.67    0.96
  -8   2   5    6.33    0.84
   7  -2  -5    0.52    0.36
   7  -2  -5    0.80    0.34
   7  -2  -5    0.89    0.33
  -7   2   5    1.29    0.40
  -7   2   5    0.87    0.37
   6  -2  -5    1.11    0.39
   6  -2  -5    1.54    0.37
   6  -2  -5    1.44    0.41
  -6   2   5    1.60    0.42
  -6   2   5    1.16    0.39
   5  -2  -5   18.77    1.45
   5  -2  -5   18.80    1.42
   5  -2  -5   20.21    1.49
  -5   2   5   18.39    1.37
  -5   2   5   17.11    1.42
   4  -2  -5   12.55    0.97
   4  -2  -5   11.26    0.92
   4  -2  -5   11.66    0.96
   4  -2  -5   10.45    0.87
  -4   2   5   11.00    0.89
  -4   2   5   11.14    0.94
   3  -2  -5    0.68    0.22
   3  -2  -5    0.62    0.23
   3  -2  -5    0.45    0.20
   3  -2  -5    0.64    0.26
  -3   2   5    0.21    0.16
  -3   2   5    1.12    0.27
  -3   2   5    0.62    0.27
  -3   2   5    0.39    0.17
   2  -2  -5    7.13    0.63
   2  -2  -5    8.14    0.67
   2  -2  -5    6.87    0.67
  -2   2   5    8.25    0.68
  -2   2   5    8.11    0.65
   1  -2  -5    4.10    0.43
   1  -2  -5    5.71    0.48
   1  -2  -5    6.38    0.54
  -1   2   5    5.29    0.48
  -1   2   5    5.65    0.51
  -1   2   5    5.70    0.51
   0  -2  -5   33.82    2.27
   0  -2  -5   36.14    2.29
   0  -2  -5   35.02    2.30
   0   2   5   37.00    2.36
   0   2   5   33.15    2.30
   0   2   5   34.26    2.29
  -1  -2  -5    0.04    0.12
  -1  -2  -5    0.11    0.12
  -1  -2  -5    0.04    0.14
   1   2   5    0.01    0.12
   1   2   5    0.08    0.10
  -2  -2  -5   28.68    1.85
  -2  -2  -5   29.73    1.85
  -2  -2  -5   29.69    1.84
   2   2   5   29.01    1.85
   2   2   5   25.16    1.84
  -3  -2  -5  100.96    6.07
   3   2   5   93.74    6.15
  -4  -2  -5    5.32    0.41
   9  -3  -5    0.40    0.41
  -9   3   5    0.51    0.43
  -9   3   5    0.73    0.49
   8  -3  -5   10.12    1.04
  -8   3   5   11.16    1.12
  -8   3   5   11.44    1.12
   7  -3  -5    2.74    0.58
   7  -3  -5    3.59    0.54
  -7   3   5    3.38    0.60
  -7   3   5    3.57    0.60
   6  -3  -5   35.88    2.56
   6  -3  -5   39.92    2.61
   6  -3  -5   34.77    2.64
  -6   3   5   34.56    2.55
  -6   3   5   37.51    2.52
   5  -3  -5  162.46   10.43
   5  -3  -5  159.08   10.65
   5  -3  -5  166.51   10.35
  -5   3   5  161.76   10.34
   4  -3  -5   53.95    3.39
   4  -3  -5   49.39    3.31
   4  -3  -5   52.74    3.48
   4  -3  -5   46.07    3.38
  -4   3   5   49.82    3.38
  -4   3   5   47.74    3.35
  -4   3   5   54.88    3.34
   3  -3  -5   72.90    4.61
   3  -3  -5   67.96    4.55
   3  -3  -5   71.11    4.63
   3  -3  -5   68.84    4.53
   3  -3  -5   75.71    4.74
  -3   3   5   71.59    4.60
  -3   3   5   69.68    4.61
  -3   3   5   68.67    4.72
   2  -3  -5   39.61    2.67
   2  -3  -5   37.36    2.73
   2  -3  -5   43.86    2.72
  -2   3   5   36.80    2.78
  -2   3   5   42.00    2.72
  -2   3   5   45.13    2.74
   1  -3  -5   12.74    0.92
   1  -3  -5   12.22    0.89
   1  -3  -5   12.34    0.97
  -1   3   5   13.18    0.97
  -1   3   5   12.73    0.95
  -1   3   5   11.06    0.92
   0  -3  -5   14.07    0.99
   0  -3  -5   12.62    0.99
   0  -3  -5   13.82    1.02
   0   3   5   13.81    1.03
   0   3   5   14.57    1.01
   0   3   5   13.90    1.00
  -1  -3  -5   23.16    1.54
  -1  -3  -5   23.76    1.55
  -1  -3  -5   22.35    1.56
   1   3   5   23.44    1.55
   1   3   5   22.73    1.55
  -2  -3  -5   79.12    4.73
  -2  -3  -5   82.41    4.74
  -2  -3  -5   65.57    4.72
   2   3   5   74.97    4.74
   2   3   5   72.99    4.78
  -3  -3  -5   13.52    0.94
  -4  -3  -5    0.04    0.12
  -4  -3  -5    0.06    0.10
  -9   4   5    0.11    0.42
  -9   4   5   -0.26    0.41
   8  -4  -5    5.47    0.72
  -8   4   5    5.11    0.79
  -8   4   5    4.40    0.71
   7  -4  -5    1.50    0.38
   7  -4  -5    1.58    0.48
  -7   4   5    1.10    0.44
  -7   4   5    0.96    0.39
   6  -4  -5   17.29    1.32
   6  -4  -5   16.97    1.41
  -6   4   5   14.88    1.33
  -6   4   5   15.29    1.34
   5  -4  -5   16.40    1.38
   5  -4  -5   16.69    1.29
   5  -4  -5   14.68    1.37
  -5   4   5   16.93    1.35
   4  -4  -5   45.24    3.02
   4  -4  -5   44.32    3.11
   4  -4  -5   44.88    3.06
   4  -4  -5   42.31    2.95
  -4   4   5   45.58    3.04
  -4   4   5   48.29    3.11
  -4   4   5   43.10    3.00
   3  -4  -5    1.21    0.27
   3  -4  -5    0.84    0.31
   3  -4  -5    1.60    0.31
   3  -4  -5    1.51    0.33
  -3   4   5    1.56    0.30
  -3   4   5    1.10    0.28
  -3   4   5    1.22    0.30
   2  -4  -5    3.15    0.47
   2  -4  -5    3.71    0.40
   2  -4  -5    2.88    0.38
   2  -4  -5    3.36    0.41
  -2   4   5    3.16    0.42
  -2   4   5    3.47    0.45
  -2   4   5    4.57    0.49
   1  -4  -5    3.68    0.43
   1  -4  -5    2.45    0.38
   1  -4  -5    3.11    0.42
  -1   4   5    3.00    0.39
  -1   4   5    3.68    0.43
  -1   4   5    3.92    0.40
   0  -4  -5    5.58    0.54
   0  -4  -5    4.31    0.54
   0  -4  -5    6.22    0.55
   0   4   5    5.97    0.55
   0   4   5    6.16    0.52
   0   4   5    5.72    0.54
  -1  -4  -5   46.32    3.09
  -1  -4  -5   50.60    3.10
  -1  -4  -5   47.62    3.10
  -1  -4  -5   51.93    3.13
   1   4   5   46.54    3.10
   1   4   5   44.73    3.13
  -2  -4  -5   11.17    0.80
  -2  -4  -5   10.25    0.81
  -2  -4  -5   11.44    0.82
  -2  -4  -5   10.99    0.78
   2   4   5   10.37    0.79
  -3  -4  -5    2.85    0.33
  -3  -4  -5    3.31    0.35
  -4  -4  -5    0.67    0.17
  -4  -4  -5    0.65    0.17
  -5  -4  -5    4.54    0.39
  -9   5   5    1.20    0.53
  -9   5   5    1.55    0.60
  -8   5   5    0.46    0.40
  -8   5   5    1.10    0.49
   7  -5  -5   -0.12    0.34
  -7   5   5   -0.01    0.31
  -7   5   5   -0.16    0.36
   6  -5  -5   39.47    2.70
   6  -5  -5   31.98    2.71
  -6   5   5   40.64    2.73
  -6   5   5   41.22    2.70
   5  -5  -5   15.41    1.36
   5  -5  -5   15.86    1.28
  -5   5   5   15.67    1.33
   4  -5  -5   22.34    1.51
   4  -5  -5   19.75    1.47
   4  -5  -5   20.02    1.56
  -4   5   5   19.71    1.54
  -4   5   5   18.75    1.48
  -4   5   5   20.13    1.54
   3  -5  -5    2.75    0.42
   3  -5  -5    2.02    0.39
   3  -5  -5    2.22    0.37
  -3   5   5    3.05    0.47
  -3   5   5    2.68    0.40
  -3   5   5    3.56    0.51
   2  -5  -5   -0.16    0.16
   2  -5  -5   -0.08    0.22
   2  -5  -5   -0.02    0.18
  -2   5   5    0.04    0.17
  -2   5   5   -0.01    0.17
  -2   5   5   -0.30    0.16
   1  -5  -5   -0.09    0.19
   1  -5  -5    0.07    0.20
   1  -5  -5    0.01    0.16
  -1   5   5    0.10    0.15
  -1   5   5    0.09    0.16
  -1   5   5    0.12    0.15
   0  -5  -5   53.39    3.46
   0  -5  -5   56.88    3.50
   0  -5  -5   52.71    3.45
   0   5   5   52.16    3.49
   0   5   5   50.65    3.47
  -1  -5  -5   80.83    5.71
  -1  -5  -5   87.55    5.68
  -1  -5  -5   97.45    5.70
   1   5   5   88.39    5.70
   1   5   5   93.12    5.77
  -2  -5  -5    5.02    0.53
  -2  -5  -5    6.04    0.56
  -2  -5  -5    6.23    0.54
   2   5   5    5.85    0.52
  -3  -5  -5    2.24    0.32
  -3  -5  -5    2.06    0.31
  -4  -5  -5    0.42    0.16
  -4  -5  -5    0.53    0.19
  -5  -5  -5    3.57    0.40
  -5  -5  -5    3.91    0.37
   8  -6  -5    0.79    0.55
  -8   6   5    0.91    0.51
  -8   6   5    1.30    0.51
   7  -6  -5    0.01    0.39
  -7   6   5   -0.11    0.32
  -7   6   5    0.58    0.44
   6  -6  -5    2.21    0.52
  -6   6   5    2.47    0.53
  -6   6   5    1.84    0.47
   5  -6  -5   41.47    3.01
  -5   6   5   44.26    3.01
   4  -6  -5    4.79    0.68
  -4   6   5    4.79    0.61
  -4   6   5    4.61    0.58
   3  -6  -5    7.57    0.81
   3  -6  -5    6.45    0.67
  -3   6   5    5.29    0.63
  -3   6   5    7.25    0.74
   2  -6  -5    0.08    0.25
   2  -6  -5    0.12    0.24
   2  -6  -5   -0.03    0.27
  -2   6   5    0.16    0.20
  -2   6   5    0.15    0.24
  -2   6   5   -0.15    0.21
   1  -6  -5  105.23    6.85
   1  -6  -5  102.99    6.90
   1  -6  -5  112.79    6.86
  -1   6   5  107.01    6.95
  -1   6   5  112.74    7.14
  -1   6   5  104.98    6.90
   0  -6  -5  238.59   14.90
   0  -6  -5  247.92   14.82
   0  -6  -5  221.90   14.81
   0   6   5  235.86   15.05
   0   6   5  239.83   14.89
  -1  -6  -5    1.32    0.36
  -1  -6  -5    1.34    0.34
  -1  -6  -5    0.93    0.30
   1   6   5    1.49    0.31
  -2  -6  -5    3.66    0.44
  -2  -6  -5    2.76    0.42
  -2  -6  -5    3.17    0.43
   2   6   5    3.50    0.42
  -3  -6  -5   -0.24    0.17
  -3  -6  -5   -0.14    0.18
  -4  -6  -5    1.26    0.27
  -4  -6  -5    0.94    0.26
  -5  -6  -5   -0.15    0.17
  -5  -6  -5   -0.22    0.17
   8  -7  -5   -0.12    0.43
  -8   7   5    0.20    0.43
  -8   7   5   -0.11    0.45
   7  -7  -5    0.53    0.47
  -7   7   5    0.34    0.45
  -7   7   5   -0.04    0.40
   6  -7  -5   23.54    1.96
  -6   7   5   25.19    1.96
  -6   7   5   24.79    1.92
   5  -7  -5    2.41    0.55
  -5   7   5    3.32    0.58
   4  -7  -5    1.75    0.49
  -4   7   5    2.03    0.52
   3  -7  -5    1.85    0.46
   3  -7  -5    2.99    0.50
  -3   7   5    3.73    0.58
   2  -7  -5    2.16    0.41
   2  -7  -5    2.87    0.52
  -2   7   5    2.09    0.42
   1  -7  -5    9.75    0.94
   1  -7  -5    7.72    0.85
   1  -7  -5    7.48    0.84
  -1   7   5    8.82    0.86
  -1   7   5    9.76    0.91
   0  -7  -5  106.69    7.06
   0  -7  -5  102.82    7.03
   0  -7  -5  115.79    7.09
   0   7   5  116.18    7.12
  -1  -7  -5    2.53    0.44
  -1  -7  -5    2.98    0.46
  -1  -7  -5    3.30    0.48
  -2  -7  -5    0.13    0.24
  -2  -7  -5   -0.20    0.22
  -2  -7  -5    0.28    0.23
  -3  -7  -5    1.39    0.33
  -3  -7  -5    1.57    0.32
  -4  -7  -5    2.82    0.41
  -4  -7  -5    3.30    0.43
   8  -8  -5    2.56    0.65
  -8   8   5    1.78    0.55
  -8   8   5    3.32    0.68
   7  -8  -5    0.76    0.56
  -7   8   5    0.91    0.50
  -7   8   5    0.99    0.52
   6  -8  -5    3.79    0.76
  -6   8   5    4.25    0.75
  -6   8   5    4.41    0.76
   5  -8  -5    5.44    0.80
  -5   8   5    3.95    0.69
   4  -8  -5    0.58    0.39
  -4   8   5    1.27    0.42
   3  -8  -5    0.43    0.38
  -3   8   5    0.85    0.35
   2  -8  -5    0.85    0.42
   2  -8  -5    1.37    0.37
  -2   8   5    0.97    0.36
   1  -8  -5    1.29    0.41
   1  -8  -5    0.76    0.35
  -1   8   5    0.56    0.30
   0  -8  -5   -0.24    0.29
   0  -8  -5    0.30    0.31
  -1  -8  -5    3.08    0.52
  -1  -8  -5    3.23    0.52
  -1  -8  -5    4.10    0.57
  -2  -8  -5    2.76    0.47
  -2  -8  -5    1.90    0.38
  -2  -8  -5    1.87    0.40
  -3  -8  -5    0.51    0.28
  -3  -8  -5    0.53    0.31
   7  -9  -5   -0.06    0.49
  -7   9   5   -0.25    0.43
  -7   9   5    0.14    0.43
   6  -9  -5    3.70    0.79
  -6   9   5    3.46    0.74
  -6   9   5    3.52    0.68
   5  -9  -5    4.55    0.81
  -5   9   5    4.45    0.73
   4  -9  -5    0.48    0.46
  -4   9   5    1.02    0.43
   3  -9  -5    1.33    0.46
  -3   9   5    1.11    0.40
   2  -9  -5   22.99    1.74
   2  -9  -5   21.09    1.80
  -2   9   5   22.31    1.74
   1  -9  -5    0.75    0.39
   0  -9  -5   -0.01    0.32
   0  -9  -5   -0.16    0.36
  -1  -9  -5   -0.18    0.32
  -1  -9  -5    0.27    0.35
  -2  -9  -5    0.49    0.31
  -2  -9  -5   -0.09    0.31
   6 -10  -5    0.46    0.50
  -6  10   5    0.65    0.45
  -6  10   5    0.09    0.42
   5 -10  -5    0.13    0.55
  -5  10   5    0.28    0.45
   4 -10  -5    0.99    0.58
  -4  10   5    1.76    0.55
   3 -10  -5    3.75    0.74
  -3  10   5    4.20    0.73
   2 -10  -5    6.85    0.94
   1 -10  -5    6.80    0.90
   1 -10  -5    7.29    0.92
   0 -10  -5   -0.01    0.36
   0 -10  -5   -0.69    0.36
  -1 -10  -5    1.54    0.49
  -1 -10  -5    0.46    0.41
   5 -11  -5    2.00    0.70
  -5  11   5    3.02    0.73
   4 -11  -5    6.57    1.01
  -4  11   5    4.57    0.78
   3 -11  -5    5.09    0.85
   2 -11  -5    1.70    0.56
   1 -11  -5    0.58    0.51
  -2  14  -6    0.90    0.41
   2 -14   6    0.55    0.70
   3 -14   6    1.71    0.69
  -1 -13   6    1.99    0.76
   0  13  -6    0.28    0.32
   0 -13   6    0.00    0.50
  -1  13  -6    0.52    0.35
   1 -13   6   -0.17    0.57
  -2  13  -6    1.42    0.53
   2 -13   6    1.55    0.69
  -3  13  -6    0.83    0.46
   3 -13   6    1.44    0.69
  -4  13  -6   -0.09    0.42
  -4  13  -6   -0.33    0.33
   4 -13   6    0.55    0.60
  -5  13  -6    0.36    0.42
  -5  13  -6    0.57    0.42
   5 -13   6    1.24    0.54
  -2 -12   6    1.72    0.70
   1  12  -6   -0.13    0.31
  -1 -12   6    0.35    0.62
   0  12  -6   -0.01    0.38
   0 -12   6   -0.37    0.49
  -1  12  -6    0.71    0.44
   1 -12   6    0.64    0.59
  -2  12  -6   11.59    1.29
   2 -12   6   17.40    1.60
  -3  12  -6    3.89    0.73
  -3  12  -6    3.89    0.59
   3 -12   6    4.82    0.94
  -4  12  -6   -0.49    0.31
  -4  12  -6   -0.05    0.32
   4 -12   6    0.31    0.58
  -5  12  -6    1.22    0.50
  -5  12  -6    0.72    0.46
   5 -12   6    1.02    0.61
  -6  12  -6    8.07    1.08
  -6  12  -6    9.09    1.08
  -3 -11   6    1.86    0.69
   2  11  -6    0.34    0.38
  -2 -11   6   -0.29    0.51
   1  11  -6    4.83    0.73
  -1 -11   6    5.76    0.96
   0  11  -6    5.17    0.78
   0 -11   6    6.18    0.89
  -1  11  -6    5.75    0.78
   1 -11   6    5.47    0.85
  -2  11  -6    0.15    0.37
  -2  11  -6    0.23    0.25
   2 -11   6    0.10    0.48
  -3  11  -6    0.37    0.30
  -3  11  -6    0.08    0.36
   3 -11   6    0.06    0.46
  -4  11  -6    2.19    0.50
  -4  11  -6    2.30    0.57
   4 -11   6    1.98    0.65
  -5  11  -6    1.05    0.44
  -5  11  -6    1.09    0.46
   5 -11   6    1.41    0.62
  -6  11  -6   12.92    1.30
  -6  11  -6   13.53    1.32
  -4 -10   6    0.32    0.53
  -3 -10   6    0.13    0.53
   2  10  -6    0.39    0.33
  -2 -10   6    0.26    0.50
   1  10  -6   14.40    1.33
  -1 -10   6   16.48    1.53
   0  10  -6   17.49    1.41
   0 -10   6   14.67    1.50
  -1  10  -6    0.57    0.22
  -1  10  -6    0.56    0.36
   1 -10   6    0.29    0.44
  -2  10  -6    0.88    0.30
  -2  10  -6    0.97    0.38
   2 -10   6    0.04    0.41
  -3  10  -6   13.48    1.26
  -3  10  -6   13.45    1.13
   3 -10   6   14.46    1.39
  -4  10  -6    0.11    0.29
  -4  10  -6    0.10    0.31
   4 -10   6   -0.33    0.42
  -5  10  -6    0.85    0.41
  -5  10  -6    0.46    0.35
   5 -10   6    0.86    0.50
  -6  10  -6   10.06    1.14
  -6  10  -6   11.97    1.14
  -7  10  -6    3.57    0.64
  -7  10  -6    2.00    0.64
  -5  -9   6    0.08    0.48
  -5  -9   6    0.38    0.42
  -4  -9   6    0.11    0.49
  -4  -9   6    0.15    0.36
   3   9  -6    2.18    0.46
  -3  -9   6    2.14    0.53
  -3  -9   6    2.24    0.62
   2   9  -6    0.77    0.36
  -2  -9   6    0.54    0.36
  -2  -9   6    0.37    0.46
   1   9  -6    2.02    0.45
  -1  -9   6    3.09    0.61
  -1  -9   6    1.88    0.44
   0   9  -6   21.66    1.64
   0   9  -6   21.14    1.38
   0  -9   6   20.26    1.74
  -1   9  -6    0.50    0.28
  -1   9  -6    0.70    0.23
   1  -9   6    0.61    0.38
  -2   9  -6    2.24    0.49
  -2   9  -6    1.60    0.34
   2  -9   6    1.54    0.50
  -3   9  -6   36.50    2.53
  -3   9  -6   35.90    2.41
  -3   9  -6   32.34    2.47
   3  -9   6   37.15    2.60
  -4   9  -6    0.34    0.29
  -4   9  -6    0.17    0.24
  -4   9  -6    0.22    0.33
   4  -9   6    0.07    0.40
  -5   9  -6    3.45    0.61
  -5   9  -6    2.79    0.50
  -5   9  -6    4.57    0.62
   5  -9   6    2.99    0.63
  -6   9  -6    0.12    0.31
  -6   9  -6   -0.16    0.40
  -6   9  -6   -0.02    0.28
  -7   9  -6   -0.13    0.45
  -7   9  -6    1.22    0.39
  -7   9  -6    0.19    0.32
  -6  -8   6    0.13    0.40
  -6  -8   6    0.71    0.54
  -5  -8   6    0.58    0.48
  -5  -8   6    0.46    0.37
   4   8  -6    0.68    0.32
   3   8  -6    6.94    0.84
   3   8  -6    7.88    0.87
  -3  -8   6    9.24    1.04
  -3  -8   6    7.70    0.89
   2   8  -6   22.84    1.87
   2   8  -6   23.74    1.90
  -2  -8   6   28.68    2.02
  -2  -8   6   27.79    1.92
   1   8  -6   12.38    1.04
   1   8  -6   11.05    1.01
  -1  -8   6   11.24    1.13
  -1  -8   6   11.09    1.04
   0   8  -6    8.56    0.81
   0   8  -6    7.26    0.75
   0   8  -6    7.28    0.59
   0  -8   6    7.29    0.79
   0  -8   6    8.81    0.92
  -1   8  -6    0.31    0.20
  -1   8  -6    1.00    0.34
  -1   8  -6    0.95    0.24
  -1   8  -6    0.27    0.20
   1  -8   6    1.29    0.39
   1  -8   6    0.87    0.31
  -2   8  -6   -0.17    0.21
  -2   8  -6   -0.11    0.17
  -2   8  -6    0.21    0.16
  -2   8  -6   -0.26    0.17
   2  -8   6   -0.30    0.30
  -3   8  -6    6.83    0.70
  -3   8  -6    7.73    0.78
  -3   8  -6    6.50    0.73
   3  -8   6    5.10    0.74
  -4   8  -6   49.88    3.55
  -4   8  -6   55.39    3.60
  -4   8  -6   52.84    3.50
   4  -8   6   54.53    3.65
  -5   8  -6    0.46    0.38
  -5   8  -6    0.28    0.26
  -5   8  -6    0.23    0.26
   5  -8   6    0.42    0.42
  -6   8  -6    0.33    0.28
  -6   8  -6    0.24    0.38
  -6   8  -6   -0.04    0.25
  -7   8  -6    0.14    0.28
  -7   8  -6    0.11    0.27
  -7   8  -6    0.10    0.42
  -8   8  -6   -0.50    0.29
  -8   8  -6    0.28    0.35
  -6  -7   6    3.65    0.65
  -6  -7   6    3.82    0.73
   5   7  -6    1.45    0.40
  -5  -7   6    0.38    0.36
  -5  -7   6    0.78    0.46
   4   7  -6   49.55    3.50
   4   7  -6   50.34    3.42
  -4  -7   6   51.14    3.44
  -4  -7   6   50.30    3.49
   3   7  -6   13.02    1.19
   3   7  -6   13.08    1.18
  -3  -7   6   14.37    1.23
  -3  -7   6   15.11    1.31
   2   7  -6  137.53    9.09
  -2  -7   6  140.97    9.13
  -2  -7   6  148.50    9.07
   1   7  -6    9.50    0.80
   1   7  -6    7.91    0.81
   1   7  -6    9.82    0.88
  -1  -7   6    9.61    0.86
  -1  -7   6    8.79    0.62
  -1  -7   6    8.38    0.91
  -1  -7   6    9.78    0.81
   0   7  -6   16.71    1.22
   0   7  -6   14.41    1.15
   0   7  -6   15.02    1.03
   0   7  -6   13.91    1.16
   0  -7   6   15.35    1.03
   0  -7   6   14.55    1.18
   0  -7   6   16.66    1.30
  -1   7  -6   23.24    1.62
  -1   7  -6   21.45    1.58
  -1   7  -6   22.71    1.58
  -1   7  -6   20.80    1.58
  -1   7  -6   21.83    1.48
   1  -7   6   22.59    1.67
   1  -7   6   20.40    1.57
  -2   7  -6    1.69    0.31
  -2   7  -6    3.32    0.47
  -2   7  -6    1.02    0.27
   2  -7   6    0.50    0.33
  -3   7  -6   68.60    5.12
  -3   7  -6   84.51    5.20
  -3   7  -6   79.26    5.03
  -3   7  -6   83.15    5.15
   3  -7   6   82.38    5.24
  -4   7  -6  108.55    6.89
  -4   7  -6  102.43    7.01
  -4   7  -6  111.20    7.07
  -4   7  -6  115.82    7.03
   4  -7   6  110.76    7.10
  -5   7  -6    4.07    0.63
  -5   7  -6    3.77    0.53
  -5   7  -6    5.04    0.60
  -5   7  -6    3.74    0.51
   5  -7   6    4.62    0.67
  -6   7  -6    2.51    0.44
  -6   7  -6    3.70    0.63
  -6   7  -6    1.85    0.39
  -7   7  -6    0.33    0.28
  -7   7  -6    0.74    0.45
  -7   7  -6    0.22    0.27
  -8   7  -6    3.31    0.72
  -8   7  -6    2.94    0.50
  -8   7  -6    2.52    0.52
  -7  -6   6   -0.45    0.35
  -7  -6   6   -0.04    0.42
   6   6  -6    2.64    0.52
  -6  -6   6    2.29    0.54
  -6  -6   6    2.68    0.59
   5   6  -6    5.31    0.68
  -5  -6   6    4.96    0.71
  -5  -6   6    4.54    0.67
   4   6  -6    0.33    0.26
   4   6  -6   -0.15    0.22
  -4  -6   6    0.23    0.35
  -4  -6   6    0.20    0.29
   3   6  -6  101.04    7.17
   3   6  -6  118.66    7.39
  -3  -6   6  108.94    7.17
  -3  -6   6  117.99    7.23
   2   6  -6   50.76    3.56
   2   6  -6   56.59    3.51
  -2  -6   6   53.68    3.49
  -2  -6   6   48.98    3.52
  -2  -6   6   52.09    3.45
   1   6  -6    0.24    0.18
   1   6  -6   -0.02    0.17
   1   6  -6    0.01    0.18
  -1  -6   6    0.09    0.23
  -1  -6   6    0.53    0.26
  -1  -6   6    0.17    0.19
  -1  -6   6    0.10    0.12
   0   6  -6    3.87    0.51
   0   6  -6    3.79    0.44
   0   6  -6    3.63    0.49
   0   6  -6    3.77    0.43
   0  -6   6    3.67    0.37
   0  -6   6    3.21    0.50
   0  -6   6    4.19    0.49
  -1   6  -6   43.62    2.93
  -1   6  -6   42.04    2.95
  -1   6  -6   43.05    2.80
  -1   6  -6   43.31    2.89
   1  -6   6   47.67    3.01
   1  -6   6   44.32    2.90
  -2   6  -6    0.42    0.22
  -2   6  -6    0.63    0.24
  -2   6  -6    0.20    0.19
  -2   6  -6    0.41    0.20
   2  -6   6    0.28    0.28
  -3   6  -6  185.36   11.19
  -3   6  -6  167.69   11.24
  -3   6  -6  180.41   10.92
  -3   6  -6  173.54   11.19
   3  -6   6  182.47   11.30
  -4   6  -6   27.64    1.92
  -4   6  -6   24.08    1.91
  -4   6  -6   27.73    1.92
  -4   6  -6   28.38    1.98
   4  -6   6   29.76    1.99
  -5   6  -6   -0.13    0.19
  -5   6  -6   -0.20    0.18
  -5   6  -6   -0.08    0.16
  -5   6  -6   -0.27    0.27
  -6   6  -6   -0.35    0.18
  -6   6  -6   -0.02    0.21
  -6   6  -6    0.32    0.38
  -6   6  -6   -0.04    0.23
  -7   6  -6    4.22    0.61
  -7   6  -6    5.84    0.69
  -7   6  -6    5.80    0.63
  -7   6  -6    6.91    0.88
  -8   6  -6    2.70    0.41
  -8   6  -6    2.30    0.64
  -8   6  -6    2.47    0.50
  -7  -5   6    1.83    0.48
  -7  -5   6    2.77    0.60
   6   5  -6    0.85    0.34
  -6  -5   6    2.41    0.50
  -6  -5   6    1.53    0.47
   5   5  -6    0.64    0.33
   5   5  -6    0.64    0.33
  -5  -5   6    0.76    0.32
  -5  -5   6    0.77    0.37
   4   5  -6    4.30    0.57
   4   5  -6    4.08    0.57
  -4  -5   6    4.81    0.66
  -4  -5   6    3.59    0.51
  -4  -5   6    4.72    0.64
   3   5  -6   44.51    3.11
   3   5  -6   46.61    3.05
  -3  -5   6   45.22    3.08
  -3  -5   6   45.88    2.76
  -3  -5   6   45.19    3.04
  -3  -5   6   43.70    2.76
   2   5  -6   22.91    1.89
   2   5  -6   29.26    1.95
   2   5  -6   26.83    1.86
  -2  -5   6   31.04    1.95
  -2  -5   6   26.00    1.71
  -2  -5   6   29.07    1.97
   1   5  -6    0.58    0.25
   1   5  -6    0.34    0.17
   1   5  -6    0.34    0.17
  -1  -5   6    0.30    0.23
  -1  -5   6    0.61    0.16
  -1  -5   6    0.49    0.20
  -1  -5   6    0.31    0.24
   0   5  -6    1.31    0.28
   0   5  -6    1.13    0.23
   0   5  -6    0.58    0.20
   0   5  -6    0.45    0.20
   0  -5   6    0.89    0.20
   0  -5   6    0.95    0.24
   0  -5   6    0.68    0.27
  -1   5  -6   12.63    0.95
  -1   5  -6   12.33    0.92
  -1   5  -6   13.18    0.99
  -1   5  -6   11.97    0.93
  -1   5  -6   12.94    0.98
   1  -5   6   12.01    1.02
   1  -5   6   11.32    0.94
  -2   5  -6   49.85    3.23
  -2   5  -6   49.80    3.19
  -2   5  -6   53.35    3.27
  -2   5  -6   51.55    3.26
   2  -5   6   43.29    3.28
  -3   5  -6   13.13    1.06
  -3   5  -6   12.19    0.98
  -3   5  -6   13.30    1.02
  -3   5  -6   13.57    1.01
   3  -5   6   12.38    1.04
  -4   5  -6   27.58    1.82
  -4   5  -6   25.91    1.80
  -4   5  -6   26.04    1.85
  -4   5  -6   26.13    1.80
   4  -5   6   23.97    1.83
  -5   5  -6    4.33    0.49
  -5   5  -6    4.16    0.51
  -5   5  -6    3.18    0.56
  -5   5  -6    4.01    0.50
  -6   5  -6    3.24    0.57
  -6   5  -6    2.79    0.44
  -6   5  -6    3.12    0.41
  -6   5  -6    2.84    0.43
  -7   5  -6    7.33    0.75
  -7   5  -6    8.07    1.01
  -7   5  -6    7.44    0.76
  -7   5  -6    8.83    0.71
  -8   5  -6    1.04    0.33
  -8   5  -6    0.88    0.27
  -8   5  -6    0.58    0.48
  -8  -4   6    2.54    0.61
  -8  -4   6    1.78    0.52
   7   4  -6    0.23    0.30
  -7  -4   6   -0.11    0.30
  -7  -4   6    0.54    0.38
   6   4  -6    0.84    0.32
  -6  -4   6    1.23    0.43
  -6  -4   6    1.21    0.38
   5   4  -6   16.89    1.26
   5   4  -6   14.77    1.28
  -5  -4   6   14.30    1.09
  -5  -4   6   15.88    1.30
  -5  -4   6   16.67    1.29
   4   4  -6    1.45    0.35
   4   4  -6    1.16    0.32
  -4  -4   6    1.33    0.37
  -4  -4   6    1.17    0.22
  -4  -4   6    1.48    0.37
  -4  -4   6    1.60    0.33
   3   4  -6   12.81    0.99
   3   4  -6   11.75    0.96
  -3  -4   6   12.13    0.97
  -3  -4   6   13.18    0.94
  -3  -4   6    8.39    0.93
   2   4  -6   57.74    3.80
   2   4  -6   54.08    3.69
   2   4  -6   53.04    3.64
  -2  -4   6   60.62    3.74
  -2  -4   6   52.95    3.48
  -2  -4   6   61.45    3.71
   1   4  -6    6.38    0.58
   1   4  -6    7.11    0.64
   1   4  -6    6.47    0.62
   1   4  -6    7.74    0.62
  -1  -4   6    6.56    0.67
  -1  -4   6    6.72    0.53
  -1  -4   6    6.44    0.60
  -1  -4   6    6.57    0.58
  -1  -4   6    5.77    0.61
   0   4  -6   61.95    3.95
   0   4  -6   60.37    4.02
   0   4  -6   62.34    3.90
   0  -4   6   54.39    4.02
   0  -4   6   63.75    3.97
   0  -4   6   61.12    3.78
   0  -4   6   61.36    3.92
  -1   4  -6    0.08    0.15
  -1   4  -6    0.04    0.16
  -1   4  -6    0.00    0.12
  -1   4  -6    0.06    0.18
   1  -4   6    0.17    0.16
   1  -4   6    0.16    0.23
  -2   4  -6  100.79    6.25
  -2   4  -6   92.50    6.27
  -2   4  -6   97.46    6.29
  -2   4  -6   98.32    6.14
   2  -4   6  101.14    6.47
   2  -4   6  102.75    6.33
  -3   4  -6    1.92    0.29
  -3   4  -6    1.77    0.38
  -3   4  -6    1.97    0.32
  -3   4  -6    1.72    0.18
  -3   4  -6    1.58    0.28
   3  -4   6    1.67    0.28
   3  -4   6    1.50    0.31
  -4   4  -6    6.75    0.78
  -4   4  -6    6.66    0.63
  -4   4  -6    6.15    0.62
  -4   4  -6    8.27    0.66
   4  -4   6    7.95    0.65
   4  -4   6    7.07    0.69
  -5   4  -6    0.77    0.24
  -5   4  -6    1.02    0.26
  -5   4  -6    1.19    0.25
  -5   4  -6    1.32    0.41
  -6   4  -6    5.74    0.54
  -6   4  -6    7.70    0.89
  -6   4  -6    5.72    0.59
  -6   4  -6    5.45    0.58
  -7   4  -6    5.70    0.83
  -7   4  -6    3.90    0.49
  -7   4  -6    3.50    0.47
  -8   4  -6   -0.08    0.38
  -8   4  -6   -0.03    0.22
  -8   4  -6    0.00    0.23
  -8  -3   6    2.58    0.63
  -8  -3   6    3.04    0.62
   7   3  -6    5.65    0.75
  -7  -3   6    6.10    0.79
   6   3  -6   10.35    0.92
   6   3  -6    8.89    0.92
  -6  -3   6    7.26    0.89
  -6  -3   6    8.79    0.81
  -6  -3   6   11.21    0.97
   5   3  -6   64.32    4.19
   5   3  -6   60.99    4.30
  -5  -3   6   63.21    4.20
  -5  -3   6   62.74    4.13
  -5  -3   6   65.21    3.96
   4   3  -6   19.49    1.42
   4   3  -6   19.61    1.45
  -4  -3   6   18.24    1.43
  -4  -3   6   20.35    1.39
  -4  -3   6   16.89    1.41
   3   3  -6    0.20    0.16
   3   3  -6    0.06    0.13
   3   3  -6    0.13    0.19
  -3  -3   6    0.27    0.17
  -3  -3   6    0.27    0.19
  -3  -3   6   -0.11    0.17
   2   3  -6  103.44    6.61
   2   3  -6  103.70    6.37
   2   3  -6   89.70    6.41
  -2  -3   6  106.46    6.46
  -2  -3   6   97.96    6.37
  -2  -3   6  103.58    6.60
  -2  -3   6   99.89    6.39
   1   3  -6   48.23    3.05
   1   3  -6   44.58    2.94
   1   3  -6   42.97    2.98
   1   3  -6   46.42    2.97
  -1  -3   6   43.27    2.84
  -1  -3   6   47.22    3.06
  -1  -3   6   43.48    3.00
  -1  -3   6   46.21    2.97
   0   3  -6   92.21    5.92
   0   3  -6   91.25    5.95
   0   3  -6   90.20    5.89
   0   3  -6   92.77    6.09
   0  -3   6   96.45    6.11
   0  -3   6   94.09    5.91
   0  -3   6   94.04    5.97
   0  -3   6   95.09    5.75
  -1   3  -6  104.72    6.71
  -1   3  -6  107.19    6.77
  -1   3  -6  109.75    6.73
  -1   3  -6  107.27    6.58
   1  -3   6  103.85    6.78
   1  -3   6  106.42    6.94
  -2   3  -6  107.99    6.45
  -2   3  -6  100.58    6.37
  -2   3  -6  109.28    6.40
  -2   3  -6  104.80    6.30
  -2   3  -6   91.28    6.41
  -2   3  -6   99.71    6.41
   2  -3   6  100.95    6.58
   2  -3   6   95.04    6.42
  -3   3  -6    0.32    0.26
  -3   3  -6    0.07    0.16
  -3   3  -6    0.98    0.21
  -3   3  -6    0.26    0.16
  -3   3  -6    0.41    0.18
   3  -3   6    0.31    0.20
   3  -3   6    0.54    0.16
  -4   3  -6   10.29    0.85
  -4   3  -6   13.36    1.06
  -4   3  -6   10.29    0.87
  -4   3  -6   12.60    0.87
  -4   3  -6   10.19    0.86
   4  -3   6   12.87    0.87
   4  -3   6   11.75    0.90
  -5   3  -6   -0.16    0.33
  -5   3  -6    0.00    0.15
  -5   3  -6    0.26    0.15
  -5   3  -6    0.19    0.16
   5  -3   6    0.24    0.18
  -6   3  -6   11.95    1.10
  -6   3  -6    9.38    0.78
  -6   3  -6    9.08    0.78
  -7   3  -6    0.94    0.25
  -7   3  -6    1.72    0.55
  -7   3  -6    0.72    0.24
  -8   3  -6    3.28    0.73
  -8   3  -6    3.51    0.45
  -8   3  -6    3.48    0.44
   8   2  -6    0.71    0.36
  -8  -2   6    1.40    0.46
  -8  -2   6    0.44    0.43
   7   2  -6   21.86    1.71
   7   2  -6   22.00    1.79
  -7  -2   6   22.84    1.76
   6   2  -6    1.33    0.37
   6   2  -6    2.00    0.43
  -6  -2   6    2.32    0.47
  -6  -2   6    1.71    0.35
   5   2  -6   40.23    2.64
   5   2  -6   38.07    2.69
  -5  -2   6   37.64    2.64
  -5  -2   6   38.72    2.62
  -5  -2   6   37.02    2.46
  -5  -2   6   36.18    2.56
   4   2  -6   17.01    1.31
   4   2  -6   16.57    1.30
  -4  -2   6   17.36    1.32
  -4  -2   6   16.73    1.23
  -4  -2   6   16.73    1.28
   3   2  -6   13.35    1.05
   3   2  -6   12.96    0.98
   3   2  -6   13.15    1.04
  -3  -2   6   12.74    1.04
  -3  -2   6   13.28    1.04
   2   2  -6    1.39    0.28
   2   2  -6    1.61    0.25
   2   2  -6    2.24    0.31
  -2  -2   6    1.14    0.30
  -2  -2   6    1.80    0.28
  -2  -2   6    1.83    0.30
  -2  -2   6    1.88    0.28
   1   2  -6   23.30    1.95
   1   2  -6   29.95    1.94
   1   2  -6   26.08    1.91
   1   2  -6   30.03    1.91
  -1  -2   6   30.18    1.98
  -1  -2   6   32.32    1.94
   0   2  -6   88.28    5.60
   0   2  -6   85.91    5.43
   0   2  -6   82.61    5.47
   0   2  -6   79.14    5.49
   0   2  -6   91.58    5.46
   0  -2   6   88.72    5.63
   0  -2   6   84.97    5.48
  -1   2  -6  112.00    6.82
  -1   2  -6  107.21    6.88
  -1   2  -6  113.39    6.87
  -1   2  -6  100.68    6.82
   1  -2   6  104.21    6.87
   1  -2   6  112.62    7.06
  -2   2  -6    1.25    0.23
  -2   2  -6    0.93    0.22
  -2   2  -6    1.85    0.34
  -2   2  -6    1.15    0.21
  -2   2  -6    1.10    0.23
   2  -2   6    0.99    0.23
   2  -2   6    1.12    0.19
  -3   2  -6   23.67    1.49
  -3   2  -6   22.34    1.50
  -3   2  -6   17.55    1.55
  -3   2  -6   22.68    1.48
   3  -2   6   22.76    1.50
   3  -2   6   21.84    1.51
  -4   2  -6    0.50    0.31
  -4   2  -6    0.55    0.18
  -4   2  -6    0.38    0.16
  -4   2  -6    0.61    0.17
  -4   2  -6    0.36    0.13
   4  -2   6    0.36    0.19
   4  -2   6    0.43    0.13
  -5   2  -6    5.92    0.73
  -5   2  -6    5.32    0.46
  -5   2  -6    4.54    0.46
   5  -2   6    5.06    0.42
   5  -2   6    4.42    0.42
  -6   2  -6    6.49    0.56
  -6   2  -6    5.75    0.55
  -6   2  -6    6.72    0.86
   6  -2   6    6.45    0.53
   6  -2   6    5.88    0.53
  -7   2  -6   13.20    0.94
  -7   2  -6   13.58    1.28
  -7   2  -6   11.57    0.92
   7  -2   6   12.35    0.95
  -8   2  -6    1.97    0.31
  -8   2  -6    1.59    0.60
  -8   2  -6    1.29    0.27
   8  -2   6    2.05    0.33
   8   1  -6    1.71    0.44
  -8  -1   6    2.64    0.56
   7   1  -6   13.96    1.26
   7   1  -6   14.17    1.17
  -7  -1   6   12.01    1.18
  -7  -1   6   13.91    1.11
  -7  -1   6   11.39    1.20
   6   1  -6    0.80    0.30
   6   1  -6    1.18    0.33
   6   1  -6    1.54    0.40
  -6  -1   6    0.59    0.29
  -6  -1   6    1.10    0.36
  -6  -1   6    1.43    0.36
   5   1  -6   -0.14    0.21
   5   1  -6   -0.22    0.19
   5   1  -6   -0.23    0.22
  -5  -1   6   -0.28    0.23
  -5  -1   6   -0.26    0.24
  -5  -1   6   -0.17    0.19
  -5  -1   6   -0.15    0.22
   4   1  -6   16.29    1.21
   4   1  -6   16.98    1.23
   4   1  -6   12.65    1.21
  -4  -1   6   14.78    1.23
  -4  -1   6   16.87    1.18
  -4  -1   6   18.19    1.24
   3   1  -6   37.73    2.95
   3   1  -6   43.75    2.90
   3   1  -6   43.18    2.90
  -3  -1   6   45.82    2.88
  -3  -1   6   42.77    2.91
  -3  -1   6   44.90    2.85
  -3  -1   6   45.70    2.95
   2   1  -6   56.12    3.56
   2   1  -6   51.62    3.46
   2   1  -6   48.78    3.46
   2   1  -6   55.70    3.43
  -2  -1   6   49.70    3.47
  -2  -1   6   51.11    3.42
  -2  -1   6   57.33    3.56
   1   1  -6   12.71    0.91
   1   1  -6   13.42    0.93
   1   1  -6    9.85    0.93
  -1  -1   6   13.05    0.93
  -1  -1   6   12.51    0.94
   0   1  -6    8.81    0.66
   0   1  -6    8.36    0.63
   0   1  -6    7.94    0.68
   0   1  -6    7.39    0.66
   0  -1   6    8.43    0.67
   0  -1   6    7.98    0.69
  -1   1  -6   76.07    4.80
  -1   1  -6   76.60    4.78
  -1   1  -6   79.96    4.77
  -1   1  -6   72.55    4.79
  -1   1  -6   69.73    4.77
   1  -1   6   79.36    4.81
   1  -1   6   73.04    4.92
  -2   1  -6   11.38    0.84
  -2   1  -6   13.45    0.86
  -2   1  -6   10.48    0.83
  -2   1  -6   12.26    0.86
   2  -1   6   10.28    0.83
   2  -1   6   11.64    0.86
  -3   1  -6   13.86    0.94
  -3   1  -6   12.99    1.09
  -3   1  -6   13.30    0.94
  -3   1  -6   13.27    0.95
  -3   1  -6   13.75    0.96
   3  -1   6   13.98    0.93
   3  -1   6   13.89    0.97
  -4   1  -6    0.40    0.15
  -4   1  -6    0.43    0.15
  -4   1  -6    0.47    0.36
  -5   1  -6    1.23    0.20
  -5   1  -6    1.26    0.21
  -5   1  -6    1.57    0.47
  -6   1  -6   11.32    0.80
  -6   1  -6    9.56    0.78
  -6   1  -6   13.44    1.17
  -7   1  -6    9.16    0.68
  -7   1  -6    7.95    0.66
  -7   1  -6   10.84    1.17
   8   0  -6    0.20    0.30
  -8   0   6    0.47    0.40
  -8   0   6    0.33    0.37
   7   0  -6   19.21    1.49
   7   0  -6   16.79    1.53
   7   0  -6   18.96    1.48
  -7   0   6   17.56    1.41
  -7   0   6   18.06    1.51
   6   0  -6    3.68    0.57
   6   0  -6    4.25    0.56
   6   0  -6    3.89    0.59
  -6   0   6    5.14    0.60
  -6   0   6    4.12    0.59
   5   0  -6    2.26    0.38
   5   0  -6    2.20    0.41
   5   0  -6    2.24    0.39
  -5   0   6    1.88    0.33
  -5   0   6    1.83    0.39
   4   0  -6    0.63    0.24
   4   0  -6    0.48    0.21
   4   0  -6    0.40    0.25
   4   0  -6    0.74    0.25
  -4   0   6    0.24    0.22
   3   0  -6   15.53    1.18
   3   0  -6   15.13    1.17
   3   0  -6   14.70    1.14
   3   0  -6   16.26    1.13
  -3   0   6   15.64    1.17
  -3   0   6   14.38    1.16
  -3   0   6   15.58    1.12
   2   0  -6    0.04    0.15
   2   0  -6    0.12    0.16
   2   0  -6   -0.06    0.14
   2   0  -6    0.35    0.21
  -2   0   6   -0.15    0.20
  -2   0   6    0.77    0.23
  -2   0   6    0.11    0.22
   1   0  -6   36.95    2.64
   1   0  -6   38.23    2.72
   1   0  -6   41.97    2.68
   1   0  -6   41.49    2.69
  -1   0   6   47.39    2.77
  -1   0   6   38.83    2.65
  -1   0   6   40.01    2.69
   0   0  -6   29.88    1.90
   0   0  -6   31.67    1.87
   0   0  -6   24.55    1.84
   0   0   6   25.17    1.91
   0   0   6   29.70    1.90
  -1   0  -6   26.97    1.88
  -1   0  -6   26.11    1.87
  -1   0  -6   29.29    1.90
   1   0   6   28.57    1.90
   1   0   6   31.02    1.92
   1   0   6   29.33    1.93
  -2   0  -6    6.97    0.56
  -2   0  -6    7.04    0.58
   2   0   6    6.66    0.54
   2   0   6    8.70    0.61
   2   0   6    6.78    0.55
  -3   0  -6    4.50    0.34
  -3   0  -6    3.84    0.38
  -3   0  -6    3.24    0.38
  -3   0  -6    4.57    0.34
   3   0   6    3.62    0.34
   3   0   6    3.88    0.39
  -4   0  -6    4.42    0.64
  -4   0  -6    4.42    0.41
  -4   0  -6    5.02    0.41
  -5   0  -6    4.20    0.39
  -5   0  -6    4.99    0.72
  -5   0  -6    4.81    0.39
  -6   0  -6   13.99    1.26
  -6   0  -6   12.35    0.87
  -7   0  -6    0.32    0.43
  -9   1   6    1.37    0.45
  -9   1   6    0.71    0.46
   8  -1  -6    0.04    0.33
  -8   1   6    0.08    0.40
  -8   1   6    0.24    0.37
   7  -1  -6    9.81    1.01
   7  -1  -6   10.17    0.98
  -7   1   6   11.04    0.98
  -7   1   6    8.84    1.01
   6  -1  -6   83.76    5.16
   6  -1  -6   74.67    5.25
   6  -1  -6   72.99    5.10
  -6   1   6   75.42    5.11
  -6   1   6   81.52    4.96
   5  -1  -6   12.51    1.01
   5  -1  -6   11.85    1.04
   5  -1  -6   10.82    1.03
  -5   1   6   11.21    1.02
   4  -1  -6    0.30    0.17
   4  -1  -6    0.36    0.26
   4  -1  -6    0.37    0.21
   4  -1  -6    0.20    0.19
  -4   1   6    0.92    0.25
  -4   1   6    0.46    0.26
   3  -1  -6   20.84    1.46
   3  -1  -6   21.55    1.49
   3  -1  -6   19.72    1.42
   3  -1  -6   21.33    1.51
  -3   1   6   17.94    1.46
  -3   1   6   19.55    1.47
   2  -1  -6  242.93   15.06
   2  -1  -6  239.38   14.52
   2  -1  -6  239.48   14.63
  -2   1   6  234.71   15.08
  -2   1   6  207.10   14.61
   1  -1  -6   78.63    4.97
   1  -1  -6   67.88    4.95
   1  -1  -6   81.72    4.92
  -1   1   6   83.47    4.98
  -1   1   6   84.21    5.01
  -1   1   6   68.13    5.09
   0  -1  -6    2.02    0.24
   0  -1  -6    2.34    0.33
   0  -1  -6    2.33    0.30
   0   1   6    2.42    0.34
   0   1   6    2.05    0.29
   0   1   6    2.15    0.28
  -1  -1  -6   51.19    3.16
  -1  -1  -6   50.61    3.19
  -1  -1  -6   46.11    3.17
   1   1   6   51.29    3.21
   1   1   6   48.67    3.26
   1   1   6   48.24    3.19
  -2  -1  -6   70.55    4.38
  -2  -1  -6   68.30    4.40
   2   1   6   71.87    4.50
   2   1   6   68.09    4.40
   2   1   6   67.57    4.44
  -3  -1  -6   27.48    1.74
   3   1   6   25.78    1.74
  -4  -1  -6   30.95    1.99
   4   1   6   30.65    1.99
  -5  -1  -6    3.63    0.32
  -9   2   6    1.44    0.52
  -9   2   6    0.67    0.48
   8  -2  -6    2.84    0.56
  -8   2   6    2.54    0.61
  -8   2   6    3.41    0.62
   7  -2  -6    2.67    0.54
   7  -2  -6    3.28    0.53
  -7   2   6    4.75    0.67
  -7   2   6    2.89    0.54
   6  -2  -6    0.66    0.32
   6  -2  -6    0.96    0.39
   6  -2  -6    1.45    0.37
  -6   2   6    0.93    0.38
  -6   2   6    1.21    0.36
   5  -2  -6   15.64    1.35
   5  -2  -6   16.80    1.30
   5  -2  -6   15.92    1.34
  -5   2   6   15.42    1.33
   4  -2  -6    1.36    0.31
   4  -2  -6    1.39    0.31
   4  -2  -6    1.68    0.34
   4  -2  -6    1.68    0.38
  -4   2   6    1.66    0.30
  -4   2   6    1.86    0.40
   3  -2  -6  267.76   16.11
   3  -2  -6  236.50   16.37
   3  -2  -6  233.46   16.22
   3  -2  -6  272.35   16.72
  -3   2   6  254.38   16.23
  -3   2   6  250.79   16.38
  -3   2   6  292.26   16.75
   2  -2  -6   14.84    1.15
   2  -2  -6   16.05    1.22
   2  -2  -6   17.15    1.21
   2  -2  -6   15.89    1.16
  -2   2   6   15.73    1.17
  -2   2   6   16.14    1.21
   1  -2  -6   75.59    5.18
   1  -2  -6   83.22    5.20
   1  -2  -6   83.88    5.14
  -1   2   6   86.29    5.35
  -1   2   6   71.25    5.21
  -1   2   6   84.97    5.20
   0  -2  -6   -0.16    0.15
   0  -2  -6   -0.26    0.12
   0   2   6   -0.03    0.12
   0   2   6    0.06    0.15
   0   2   6    0.17    0.15
  -1  -2  -6    3.24    0.36
  -1  -2  -6    2.71    0.35
  -1  -2  -6    2.96    0.34
   1   2   6    3.25    0.37
   1   2   6    3.02    0.35
   1   2   6    3.38    0.34
  -2  -2  -6    3.35    0.36
  -2  -2  -6    3.30    0.37
  -2  -2  -6    3.11    0.33
   2   2   6    3.29    0.37
   2   2   6    3.65    0.34
  -3  -2  -6   34.96    2.26
   3   2   6   35.18    2.28
  -4  -2  -6    3.19    0.31
   4   2   6    2.41    0.26
  -9   3   6   13.57    1.33
  -9   3   6   12.51    1.33
  -8   3   6    3.69    0.69
  -8   3   6    3.37    0.62
   7  -3  -6    0.48    0.38
   7  -3  -6    1.03    0.36
  -7   3   6    0.75    0.42
  -7   3   6    0.15    0.31
   6  -3  -6    6.08    0.74
   6  -3  -6    7.25    0.87
  -6   3   6    7.70    0.84
   5  -3  -6    4.47    0.58
   5  -3  -6    5.71    0.75
   5  -3  -6    3.98    0.57
  -5   3   6    4.88    0.66
   4  -3  -6    0.42    0.24
   4  -3  -6    0.92    0.30
   4  -3  -6    0.09    0.28
   4  -3  -6    0.12    0.27
  -4   3   6    0.73    0.24
  -4   3   6    0.56    0.29
  -4   3   6    0.91    0.28
   3  -3  -6   81.12    5.33
   3  -3  -6   80.65    5.34
   3  -3  -6   79.34    5.25
   3  -3  -6   87.14    5.47
  -3   3   6   77.11    5.34
  -3   3   6   90.64    5.50
  -3   3   6   79.45    5.33
   2  -3  -6   16.72    1.21
   2  -3  -6   15.34    1.26
   2  -3  -6   16.20    1.21
  -2   3   6   17.16    1.24
  -2   3   6   17.34    1.27
  -2   3   6   16.96    1.27
   1  -3  -6    0.40    0.15
   1  -3  -6    0.06    0.20
   1  -3  -6    0.16    0.17
  -1   3   6    0.33    0.20
  -1   3   6    0.22    0.16
  -1   3   6    0.27    0.21
   0  -3  -6   25.81    1.72
   0  -3  -6   24.01    1.68
   0   3   6   25.69    1.71
   0   3   6   26.92    1.76
   0   3   6   21.99    1.70
  -1  -3  -6    1.03    0.20
  -1  -3  -6    0.59    0.19
  -1  -3  -6    0.43    0.19
   1   3   6    0.80    0.20
   1   3   6    1.05    0.21
   1   3   6    0.52    0.17
  -2  -3  -6    6.09    0.50
  -2  -3  -6    6.29    0.54
  -2  -3  -6    6.07    0.52
   2   3   6    6.17    0.51
  -3  -3  -6    0.83    0.19
   3   3   6    0.97    0.18
  -4  -3  -6    0.43    0.15
  -4  -3  -6    0.21    0.13
   4   3   6    0.32    0.12
  -9   4   6    3.03    0.68
  -9   4   6    3.79    0.75
  -8   4   6    5.83    0.81
  -8   4   6    6.48    0.88
   7  -4  -6    0.83    0.44
  -7   4   6    0.74    0.41
  -7   4   6    1.16    0.41
   6  -4  -6   -0.01    0.28
   6  -4  -6   -0.04    0.31
  -6   4   6   -0.06    0.28
   5  -4  -6    2.24    0.40
   5  -4  -6    2.49    0.52
  -5   4   6    2.08    0.47
   4  -4  -6   -0.52    0.28
   4  -4  -6   -0.43    0.20
   4  -4  -6   -0.56    0.21
   4  -4  -6   -0.12    0.20
  -4   4   6    0.38    0.23
  -4   4   6   -0.40    0.26
   3  -4  -6   18.53    1.37
   3  -4  -6   17.62    1.35
   3  -4  -6   18.96    1.47
  -3   4   6   19.08    1.43
  -3   4   6   17.48    1.37
  -3   4   6   18.77    1.42
   2  -4  -6    8.93    0.68
   2  -4  -6    7.42    0.78
   2  -4  -6    7.90    0.72
   2  -4  -6    7.66    0.69
  -2   4   6    7.49    0.74
  -2   4   6    7.74    0.70
  -2   4   6    5.85    0.71
   1  -4  -6   -0.40    0.17
   1  -4  -6    0.09    0.22
   1  -4  -6    0.05    0.18
  -1   4   6    0.10    0.14
  -1   4   6    0.07    0.15
  -1   4   6    0.65    0.26
   0  -4  -6    2.90    0.37
   0  -4  -6    2.97    0.39
   0  -4  -6    1.65    0.34
   0   4   6    2.71    0.36
   0   4   6    2.71    0.38
   0   4   6    2.70    0.37
  -1  -4  -6   22.59    1.67
  -1  -4  -6   26.38    1.68
   1   4   6   23.07    1.66
   1   4   6   25.27    1.68
  -2  -4  -6    2.55    0.30
  -2  -4  -6    1.79    0.30
  -2  -4  -6    1.80    0.30
   2   4   6    1.63    0.26
  -3  -4  -6    6.40    0.57
  -3  -4  -6    7.06    0.59
   3   4   6    6.85    0.57
  -4  -4  -6    2.25    0.28
  -4  -4  -6    2.04    0.28
   4   4   6    2.13    0.27
  -5  -4  -6    0.38    0.13
  -5  -4  -6    0.38    0.16
   5   4   6    0.15    0.13
   8  -5  -6    8.43    1.02
  -8   5   6    8.51    1.06
  -8   5   6    6.92    0.98
   7  -5  -6    1.50    0.51
  -7   5   6    1.32    0.48
  -7   5   6    1.28    0.48
   6  -5  -6    1.47    0.49
  -6   5   6    0.49    0.38
   5  -5  -6   55.73    3.83
  -5   5   6   55.47    3.79
   4  -5  -6    0.08    0.32
  -4   5   6   -0.23    0.18
  -4   5   6   -0.40    0.28
   3  -5  -6    4.01    0.58
   3  -5  -6    4.59    0.52
   3  -5  -6    4.67    0.55
  -3   5   6    3.53    0.50
  -3   5   6    3.70    0.54
   2  -5  -6   61.79    3.94
   2  -5  -6   57.56    3.99
   2  -5  -6   59.76    3.91
  -2   5   6   64.87    4.01
  -2   5   6   58.73    3.96
  -2   5   6   56.52    4.08
   1  -5  -6    0.21    0.23
   1  -5  -6    0.09    0.25
   1  -5  -6    0.42    0.24
  -1   5   6    0.30    0.21
  -1   5   6    0.36    0.23
  -1   5   6    0.47    0.24
   0  -5  -6   16.67    1.33
   0  -5  -6   16.83    1.36
   0  -5  -6   18.32    1.35
   0   5   6   17.81    1.38
   0   5   6   18.05    1.33
   0   5   6   19.37    1.33
  -1  -5  -6   40.04    2.57
  -1  -5  -6   35.43    2.53
  -1  -5  -6   41.11    2.56
   1   5   6   36.32    2.55
  -2  -5  -6    9.26    0.78
  -2  -5  -6    9.45    0.76
  -2  -5  -6   10.66    0.81
   2   5   6    8.45    0.75
  -3  -5  -6    0.76    0.25
  -3  -5  -6    1.17    0.26
   3   5   6    0.95    0.24
  -4  -5  -6    1.16    0.24
  -4  -5  -6    1.33    0.26
   4   5   6    1.41    0.25
  -5  -5  -6    0.94    0.21
  -5  -5  -6    0.71    0.18
   5   5   6    0.73    0.20
   8  -6  -6    0.49    0.49
  -8   6   6    0.70    0.46
  -8   6   6    0.97    0.50
   7  -6  -6    9.66    1.13
  -7   6   6    7.06    0.96
  -7   6   6    7.02    0.94
   6  -6  -6   25.99    2.08
  -6   6   6   25.80    2.02
   5  -6  -6   19.29    1.73
  -5   6   6   22.11    1.71
   4  -6  -6   16.28    1.39
  -4   6   6   14.00    1.29
   3  -6  -6   -0.35    0.31
   3  -6  -6    0.24    0.27
  -3   6   6   -0.13    0.26
   2  -6  -6    2.49    0.45
   2  -6  -6    2.21    0.48
  -2   6   6    2.21    0.43
   1  -6  -6   50.89    3.38
   1  -6  -6   53.49    3.45
   1  -6  -6   51.42    3.38
  -1   6   6   49.61    3.40
  -1   6   6   48.52    3.51
   0  -6  -6   19.69    1.41
   0  -6  -6   15.79    1.42
   0  -6  -6   20.75    1.42
   0   6   6   19.02    1.40
   0   6   6   18.34    1.45
   0   6   6   16.33    1.38
  -1  -6  -6    0.12    0.22
  -1  -6  -6    0.18    0.27
  -1  -6  -6   -0.02    0.23
   1   6   6    0.08    0.21
  -2  -6  -6    0.57    0.21
  -2  -6  -6    0.40    0.24
  -2  -6  -6    0.62    0.27
   2   6   6    0.95    0.27
  -3  -6  -6    2.18    0.37
  -3  -6  -6    1.85    0.35
  -4  -6  -6   -0.13    0.17
  -4  -6  -6    0.02    0.20
   8  -7  -6   -0.14    0.50
  -8   7   6   -0.15    0.41
  -8   7   6   -0.03    0.43
   7  -7  -6    8.58    1.18
  -7   7   6    8.89    1.07
  -7   7   6   10.91    1.15
   6  -7  -6   38.27    2.98
  -6   7   6   42.90    2.97
   5  -7  -6    6.59    0.92
  -5   7   6    8.01    0.99
   4  -7  -6    2.87    0.61
  -4   7   6    2.44    0.51
   3  -7  -6    0.02    0.31
   3  -7  -6   -0.08    0.30
  -3   7   6    0.02    0.28
   2  -7  -6    2.63    0.47
   2  -7  -6    1.33    0.40
  -2   7   6    2.39    0.45
   1  -7  -6    3.56    0.56
   1  -7  -6    2.94    0.55
  -1   7   6    3.96    0.59
   0  -7  -6    0.51    0.29
   0  -7  -6    0.33    0.29
   0  -7  -6    0.29    0.34
   0   7   6    0.29    0.27
  -1  -7  -6   17.31    1.35
  -1  -7  -6   17.22    1.36
  -1  -7  -6   16.73    1.35
  -2  -7  -6    0.56    0.30
  -2  -7  -6    0.45    0.29
  -3  -7  -6    1.12    0.30
  -3  -7  -6    0.53    0.27
  -4  -7  -6    0.15    0.18
  -4  -7  -6   -0.10    0.22
   7  -8  -6    0.65    0.47
  -7   8   6   -0.09    0.35
  -7   8   6   -0.41    0.42
   6  -8  -6    3.17    0.75
  -6   8   6    3.20    0.66
   5  -8  -6    2.78    0.67
  -5   8   6    2.91    0.60
   4  -8  -6    0.62    0.42
  -4   8   6    0.17    0.34
   3  -8  -6    0.04    0.36
  -3   8   6    0.40    0.35
   2  -8  -6    6.50    0.86
   2  -8  -6    7.51    0.85
  -2   8   6    6.48    0.82
   1  -8  -6    1.27    0.41
   1  -8  -6    1.24    0.41
   0  -8  -6   10.70    1.03
   0  -8  -6   10.56    1.10
  -1  -8  -6    2.74    0.51
  -1  -8  -6    3.18    0.57
  -2  -8  -6    0.56    0.32
  -2  -8  -6    1.03    0.37
  -2  -8  -6    1.23    0.34
  -3  -8  -6    0.42    0.29
  -3  -8  -6    0.57    0.27
   7  -9  -6    0.37    0.54
  -7   9   6    0.34    0.50
   6  -9  -6   -0.34    0.52
  -6   9   6   -0.28    0.38
   5  -9  -6    0.19    0.50
  -5   9   6    1.33    0.55
   4  -9  -6    0.77    0.50
  -4   9   6    1.30    0.46
   3  -9  -6    0.60    0.46
  -3   9   6    0.32    0.27
   2  -9  -6    3.30    0.66
   1  -9  -6    0.68    0.34
   1  -9  -6    0.61    0.41
   0  -9  -6    0.66    0.46
   0  -9  -6    0.36    0.40
  -1  -9  -6    0.70    0.40
  -1  -9  -6    0.10    0.37
  -2  -9  -6    0.48    0.38
  -2  -9  -6    0.82    0.35
   6 -10  -6   -0.46    0.54
  -6  10   6    1.20    0.56
   5 -10  -6    0.55    0.58
  -5  10   6    0.40    0.46
   4 -10  -6   -0.51    0.45
  -4  10   6   -0.02    0.33
   3 -10  -6    3.80    0.76
   2 -10  -6   -0.22    0.42
   1 -10  -6    0.45    0.44
   0 -10  -6    2.55    0.64
   0 -10  -6    1.72    0.54
   3 -11  -6    0.24    0.55
  -1 -13   7    0.42    0.65
   0  13  -7    2.19    0.57
   0 -13   7    1.75    0.77
  -1  13  -7   -0.38    0.38
   1 -13   7   -0.90    0.48
  -2  13  -7    4.30    0.74
   2 -13   7    4.47    0.90
  -3  13  -7   -0.02    0.40
   3 -13   7   -0.84    0.58
  -4  13  -7   10.04    1.25
   4 -13   7    9.59    1.35
  -2 -12   7   -0.48    0.55
   1  12  -7    1.01    0.44
  -1 -12   7    0.45    0.62
   0  12  -7    0.11    0.38
   0 -12   7    0.01    0.52
  -1  12  -7    6.02    0.86
   1 -12   7    5.36    0.98
  -2  12  -7    1.97    0.56
   2 -12   7    2.31    0.74
  -3  12  -7   11.14    1.09
  -3  12  -7   15.19    1.39
   3 -12   7   14.70    1.59
  -4  12  -7    0.36    0.37
  -4  12  -7   -0.14    0.33
   4 -12   7    0.98    0.66
  -5  12  -7    0.22    0.44
  -5  12  -7    0.61    0.46
   5 -12   7    0.39    0.63
  -3 -11   7    0.06    0.52
   2  11  -7    0.22    0.32
  -2 -11   7   -0.46    0.47
   1  11  -7    1.55    0.48
  -1 -11   7    2.80    0.76
   0  11  -7    1.07    0.47
   0 -11   7    0.98    0.53
  -1  11  -7    4.95    0.74
  -2  11  -7    0.39    0.27
  -2  11  -7    0.12    0.36
   2 -11   7    0.54    0.50
  -3  11  -7    1.08    0.36
  -3  11  -7    1.16    0.46
   3 -11   7    1.14    0.54
  -4  11  -7    0.09    0.32
  -4  11  -7    0.15    0.36
   4 -11   7    0.07    0.46
  -5  11  -7    0.83    0.45
  -5  11  -7    0.23    0.40
   5 -11   7    1.11    0.57
  -6  11  -7    0.47    0.45
  -6  11  -7    0.27    0.39
  -4 -10   7    0.85    0.57
  -3 -10   7   -0.47    0.44
   2  10  -7    0.21    0.32
  -2 -10   7    0.10    0.51
   1  10  -7    0.66    0.37
  -1 -10   7    0.46    0.48
   0  10  -7    9.24    1.05
   0 -10   7   13.43    1.31
  -1  10  -7    0.58    0.37
  -1  10  -7    0.42    0.24
   1 -10   7    0.15    0.46
  -2  10  -7    0.80    0.37
  -2  10  -7    0.57    0.28
   2 -10   7    0.94    0.48
  -3  10  -7    1.53    0.39
  -3  10  -7    0.69    0.36
   3 -10   7    0.46    0.45
  -4  10  -7    8.15    0.88
  -4  10  -7    8.20    0.98
   4 -10   7    7.15    1.01
  -5  10  -7    1.02    0.45
  -5  10  -7    0.64    0.36
   5 -10   7    0.83    0.59
  -6  10  -7    0.46    0.36
  -6  10  -7    0.30    0.42
  -7  10  -7    7.09    0.92
  -7  10  -7    6.04    0.96
  -5  -9   7   -0.32    0.49
  -4  -9   7    6.90    1.03
   3   9  -7    0.24    0.30
  -3  -9   7    0.80    0.44
   2   9  -7    0.01    0.28
  -2  -9   7    0.26    0.46
   1   9  -7    5.18    0.71
  -1  -9   7    5.18    0.79
   0   9  -7    1.52    0.43
   0  -9   7    0.98    0.49
  -1   9  -7    0.23    0.22
  -1   9  -7    0.83    0.35
   1  -9   7    0.71    0.44
  -2   9  -7   -0.12    0.25
  -2   9  -7    0.18    0.24
   2  -9   7    0.12    0.38
  -3   9  -7    8.43    0.88
  -3   9  -7    8.66    0.84
  -3   9  -7   10.84    0.98
   3  -9   7    7.24    0.92
  -4   9  -7    3.69    0.55
  -4   9  -7    4.57    0.65
  -4   9  -7    4.20    0.63
   4  -9   7    4.13    0.66
  -5   9  -7    4.03    0.68
  -5   9  -7    4.74    0.68
  -5   9  -7    4.60    0.66
  -6   9  -7   23.39    1.83
  -6   9  -7   23.70    1.84
  -6   9  -7   24.87    1.93
  -7   9  -7    3.98    0.77
  -7   9  -7    4.10    0.65
  -7   9  -7    3.38    0.57
  -6  -8   7    1.11    0.51
  -5  -8   7    3.88    0.72
  -5  -8   7    3.38    0.66
   4   8  -7    1.27    0.39
  -4  -8   7    2.62    0.59
  -4  -8   7    0.80    0.40
   3   8  -7   13.36    1.24
  -3  -8   7   14.00    1.29
  -3  -8   7   16.42    1.43
   2   8  -7   -0.12    0.28
  -2  -8   7   -0.66    0.35
  -2  -8   7    0.12    0.32
   1   8  -7   37.68    2.65
  -1  -8   7   36.28    2.73
  -1  -8   7   38.77    2.65
   0   8  -7   23.27    1.70
   0  -8   7   21.00    1.77
  -1   8  -7   15.39    1.16
  -1   8  -7   18.98    1.34
  -1   8  -7   15.54    1.27
   1  -8   7   14.42    1.37
  -2   8  -7    1.24    0.37
  -2   8  -7    0.97    0.31
  -2   8  -7    0.66    0.26
   2  -8   7    0.57    0.35
  -3   8  -7    0.01    0.26
  -3   8  -7   -0.13    0.21
  -3   8  -7   -0.07    0.25
   3  -8   7   -0.32    0.33
  -4   8  -7    5.01    0.70
  -4   8  -7    6.36    0.76
  -4   8  -7    5.42    0.68
   4  -8   7    7.84    0.87
  -5   8  -7   11.61    1.02
  -5   8  -7    9.92    0.99
  -5   8  -7   11.35    1.09
  -6   8  -7   22.27    1.61
  -6   8  -7   20.46    1.68
  -6   8  -7   18.34    1.55
  -7   8  -7   10.14    1.00
  -7   8  -7   10.54    1.03
  -7   8  -7   10.37    1.20
  -6  -7   7    0.24    0.35
  -6  -7   7    0.21    0.45
  -5  -7   7    1.52    0.51
  -5  -7   7    1.48    0.41
   4   7  -7    3.27    0.56
  -4  -7   7    2.89    0.62
  -4  -7   7    2.44    0.54
   3   7  -7   10.77    1.02
   3   7  -7   11.03    1.05
  -3  -7   7   11.73    1.14
  -3  -7   7   11.30    1.08
   2   7  -7   41.21    2.61
   2   7  -7   36.13    2.60
  -2  -7   7   31.72    2.54
  -2  -7   7   37.89    2.65
   1   7  -7    0.41    0.33
   1   7  -7    0.31    0.23
  -1  -7   7    0.76    0.41
  -1  -7   7    0.55    0.32
   0   7  -7    1.84    0.36
   0   7  -7    2.46    0.44
   0   7  -7    2.23    0.35
   0  -7   7    2.33    0.33
   0  -7   7    3.35    0.57
   0  -7   7    2.97    0.44
  -1   7  -7    0.93    0.25
  -1   7  -7    0.66    0.26
  -1   7  -7    0.58    0.27
  -1   7  -7    0.57    0.20
   1  -7   7    0.63    0.34
  -2   7  -7    0.08    0.20
  -2   7  -7    1.02    0.27
  -2   7  -7    0.09    0.22
  -2   7  -7    0.00    0.20
   2  -7   7   -0.08    0.29
  -3   7  -7    1.74    0.40
  -3   7  -7    2.58    0.46
  -3   7  -7    2.26    0.44
  -3   7  -7    2.50    0.47
   3  -7   7    1.64    0.46
  -4   7  -7    8.13    0.83
  -4   7  -7   10.88    0.98
  -4   7  -7    9.84    0.88
  -4   7  -7    7.99    0.90
   4  -7   7    8.57    0.94
  -5   7  -7    2.02    0.51
  -5   7  -7    1.49    0.36
  -5   7  -7    1.83    0.40
  -6   7  -7    0.23    0.27
  -6   7  -7    0.47    0.42
  -6   7  -7    0.19    0.29
  -7   7  -7    0.60    0.32
  -7   7  -7    0.37    0.30
  -7   7  -7    0.17    0.42
  -7  -6   7   -0.30    0.40
  -7  -6   7    0.56    0.49
  -6  -6   7   -0.36    0.38
  -6  -6   7   -0.18    0.36
   5   6  -7    0.93    0.42
  -5  -6   7    1.83    0.47
  -5  -6   7    2.19    0.52
   4   6  -7    2.83    0.48
   4   6  -7    3.17    0.55
  -4  -6   7    3.17    0.61
  -4  -6   7    3.52    0.60
   3   6  -7   10.29    0.90
   3   6  -7    9.59    0.93
  -3  -6   7    7.78    0.91
  -3  -6   7    7.21    0.88
   2   6  -7   -0.13    0.26
   2   6  -7   -0.10    0.20
  -2  -6   7    0.66    0.34
  -2  -6   7    0.41    0.35
   1   6  -7   16.65    1.26
   1   6  -7   16.83    1.20
   1   6  -7   16.00    1.22
  -1  -6   7   16.47    1.31
  -1  -6   7   15.45    1.23
  -1  -6   7   13.74    1.17
  -1  -6   7   14.30    1.06
   0   6  -7   16.19    1.32
   0   6  -7   16.18    1.25
   0   6  -7   16.92    1.29
   0   6  -7   16.91    1.28
   0  -6   7   18.42    1.30
   0  -6   7   16.90    1.36
  -1   6  -7    1.36    0.35
  -1   6  -7    1.70    0.32
  -1   6  -7    1.19    0.29
  -1   6  -7    1.32    0.26
   1  -6   7    1.32    0.25
   1  -6   7    1.57    0.41
  -2   6  -7   -0.09    0.17
  -2   6  -7    0.00    0.22
  -2   6  -7   -0.22    0.16
  -2   6  -7   -0.44    0.19
   2  -6   7   -0.28    0.26
  -3   6  -7    2.15    0.41
  -3   6  -7    2.28    0.40
  -3   6  -7    2.79    0.47
  -3   6  -7    1.89    0.39
   3  -6   7    1.36    0.39
  -4   6  -7  119.25    7.65
  -4   6  -7  120.05    7.64
  -4   6  -7  122.69    7.68
  -4   6  -7  119.83    7.53
   4  -6   7  118.11    7.71
  -5   6  -7    7.96    0.91
  -5   6  -7    7.43    0.73
  -5   6  -7    5.70    0.67
  -5   6  -7    7.11    0.72
  -6   6  -7    1.85    0.50
  -6   6  -7    1.91    0.36
  -6   6  -7    1.53    0.36
  -6   6  -7    1.60    0.35
  -7   6  -7    0.66    0.29
  -7   6  -7    0.71    0.31
  -7   6  -7    0.89    0.49
  -7  -5   7    0.98    0.43
  -7  -5   7    0.88    0.50
  -6  -5   7    3.38    0.67
   5   5  -7    1.20    0.34
   5   5  -7    0.68    0.33
  -5  -5   7    0.53    0.32
  -5  -5   7    0.49    0.33
   4   5  -7    0.86    0.31
   4   5  -7    0.08    0.28
  -4  -5   7    0.86    0.37
  -4  -5   7    0.65    0.34
   3   5  -7    5.90    0.69
   3   5  -7    5.91    0.70
  -3  -5   7    7.97    0.84
  -3  -5   7    6.64    0.81
   2   5  -7   82.53    5.57
   2   5  -7   83.23    5.36
   2   5  -7   88.78    5.45
  -2  -5   7   90.02    5.39
  -2  -5   7   81.09    5.12
  -2  -5   7   85.00    5.47
  -2  -5   7   75.60    5.40
   1   5  -7   16.61    1.38
   1   5  -7   17.23    1.40
   1   5  -7   18.44    1.35
  -1  -5   7   19.95    1.26
  -1  -5   7   20.23    1.46
  -1  -5   7   19.88    1.41
   0   5  -7   34.23    2.27
   0   5  -7   30.66    2.22
   0   5  -7   34.09    2.26
   0   5  -7   32.98    2.21
   0  -5   7   32.65    2.29
   0  -5   7   31.38    2.22
  -1   5  -7    6.74    0.62
  -1   5  -7    6.45    0.68
  -1   5  -7    7.20    0.66
  -1   5  -7    6.79    0.62
   1  -5   7    7.03    0.65
   1  -5   7    6.28    0.72
  -2   5  -7    1.13    0.26
  -2   5  -7    0.47    0.23
  -2   5  -7    0.26    0.27
  -2   5  -7    0.70    0.26
   2  -5   7    0.41    0.27
  -3   5  -7   95.92    6.06
  -3   5  -7   99.98    6.18
  -3   5  -7   93.34    6.13
  -3   5  -7   96.62    6.17
   3  -5   7   95.42    6.21
  -4   5  -7  134.62    8.96
  -4   5  -7  147.69    9.12
  -4   5  -7  154.80    9.16
  -4   5  -7  135.06    9.09
   4  -5   7  148.27    9.18
  -5   5  -7   15.80    1.22
  -5   5  -7   15.69    1.23
  -5   5  -7   16.23    1.38
  -5   5  -7   16.26    1.20
  -6   5  -7    2.32    0.37
  -6   5  -7    2.00    0.38
  -6   5  -7    2.11    0.38
  -6   5  -7    3.27    0.65
  -7   5  -7    3.05    0.48
  -7   5  -7    3.83    0.71
  -7   5  -7    3.10    0.48
  -7   5  -7    3.82    0.43
  -7  -4   7    6.75    0.94
  -7  -4   7    5.71    0.77
  -6  -4   7    1.03    0.40
  -6  -4   7    0.59    0.34
   5   4  -7    3.67    0.51
   5   4  -7    3.23    0.52
  -5  -4   7    5.20    0.65
  -5  -4   7    3.54    0.57
   4   4  -7   10.57    0.97
   4   4  -7   10.16    0.98
  -4  -4   7   11.91    1.01
  -4  -4   7   10.66    1.02
   3   4  -7   -0.12    0.27
   3   4  -7   -0.15    0.20
   3   4  -7   -0.10    0.21
  -3  -4   7   -0.05    0.28
  -3  -4   7    0.25    0.29
   2   4  -7   31.07    2.24
   2   4  -7   36.81    2.19
   2   4  -7   30.91    2.21
  -2  -4   7   29.16    2.04
  -2  -4   7   31.77    2.16
  -2  -4   7   31.49    2.24
  -2  -4   7   33.24    2.21
   1   4  -7    0.34    0.17
   1   4  -7    0.78    0.25
   1   4  -7    0.41    0.16
   1   4  -7    0.77    0.29
  -1  -4   7    0.36    0.20
  -1  -4   7    0.54    0.23
  -1  -4   7    0.48    0.18
  -1  -4   7    0.44    0.25
   0   4  -7   85.09    5.74
   0   4  -7   86.99    5.57
   0  -4   7   91.58    5.66
   0  -4   7   86.41    5.58
  -1   4  -7  156.89    9.21
  -1   4  -7  131.25    9.11
  -1   4  -7  148.08    9.15
   1  -4   7  140.33    9.21
   1  -4   7  149.09    9.45
  -2   4  -7   14.04    1.10
  -2   4  -7   14.39    1.08
  -2   4  -7   13.83    1.13
  -2   4  -7   15.63    1.12
   2  -4   7   14.92    1.11
   2  -4   7   14.26    1.15
  -3   4  -7  303.12   18.44
  -3   4  -7  295.21   18.03
  -3   4  -7  306.19   18.41
  -3   4  -7  260.65   18.49
   3  -4   7  307.65   19.07
   3  -4   7  300.83   18.54
  -4   4  -7   10.92    0.88
  -4   4  -7   10.37    0.99
  -4   4  -7   10.30    0.85
  -4   4  -7   10.91    0.85
   4  -4   7   11.08    0.86
   4  -4   7    8.56    0.87
  -5   4  -7   12.73    1.21
  -5   4  -7   14.62    1.09
  -5   4  -7   14.02    1.09
  -5   4  -7   14.61    1.05
   5  -4   7   14.16    1.11
  -6   4  -7    0.42    0.21
  -6   4  -7    0.34    0.42
  -6   4  -7    0.62    0.22
  -6   4  -7    0.28    0.20
  -7   4  -7    1.28    0.53
  -7   4  -7    1.91    0.37
  -7   4  -7    1.65    0.34
  -8  -3   7    1.03    0.47
  -8  -3   7    0.46    0.43
   7   3  -7    1.32    0.42
  -7  -3   7    1.15    0.37
  -7  -3   7    2.02    0.57
   6   3  -7    0.26    0.30
   6   3  -7   -0.15    0.28
  -6  -3   7    0.43    0.37
  -6  -3   7   -0.04    0.27
   5   3  -7    2.23    0.44
  -5  -3   7    3.44    0.51
   4   3  -7    0.22    0.23
   4   3  -7    0.23    0.28
  -4  -3   7   -0.02    0.26
  -4  -3   7   -0.09    0.24
   3   3  -7   87.96    5.74
   3   3  -7   91.13    5.67
   3   3  -7   88.21    5.89
  -3  -3   7   79.66    5.73
  -3  -3   7   95.17    5.69
  -3  -3   7   89.67    5.71
   2   3  -7   39.04    2.75
   2   3  -7   40.94    2.66
   2   3  -7   38.57    2.70
  -2  -3   7   41.45    2.76
  -2  -3   7   40.90    2.67
  -2  -3   7   39.60    2.68
  -2  -3   7   40.22    2.72
   1   3  -7    8.76    0.74
   1   3  -7    8.34    0.71
   1   3  -7    7.82    0.73
   1   3  -7    8.57    0.70
  -1  -3   7    6.94    0.69
  -1  -3   7    8.51    0.73
  -1  -3   7    8.95    0.77
   0   3  -7    5.36    0.52
   0   3  -7    5.54    0.56
   0   3  -7    5.22    0.56
   0  -3   7    5.18    0.52
  -1   3  -7   12.23    1.00
  -1   3  -7   12.07    0.99
  -1   3  -7   12.59    0.92
  -1   3  -7   13.93    0.98
   1  -3   7   14.55    1.05
   1  -3   7   12.46    0.99
  -2   3  -7   70.44    4.33
  -2   3  -7   64.81    4.30
  -2   3  -7   71.18    4.37
  -2   3  -7   67.24    4.30
  -2   3  -7   66.86    4.34
   2  -3   7   62.69    4.45
   2  -3   7   69.95    4.38
  -3   3  -7   26.24    1.87
  -3   3  -7   30.42    1.99
  -3   3  -7   27.88    1.88
  -3   3  -7   24.15    1.84
  -3   3  -7   28.87    1.87
   3  -3   7   27.92    1.90
   3  -3   7   28.25    1.91
  -4   3  -7    0.56    0.20
  -4   3  -7    0.47    0.38
  -4   3  -7    0.58    0.21
  -4   3  -7    0.35    0.19
   4  -3   7    0.41    0.18
  -5   3  -7    0.72    0.23
  -5   3  -7    0.59    0.21
  -5   3  -7    0.39    0.38
  -5   3  -7    0.39    0.17
   5  -3   7    0.20    0.18
  -6   3  -7    0.55    0.45
  -6   3  -7    0.22    0.20
  -6   3  -7    0.30    0.20
   6  -3   7    0.36    0.22
  -7   3  -7    6.88    0.64
  -7   3  -7    6.17    0.63
  -7   3  -7    6.89    0.94
   8   2  -7   -0.37    0.31
  -8  -2   7    0.21    0.46
   7   2  -7    1.86    0.44
  -7  -2   7    2.26    0.54
   6   2  -7    4.87    0.67
   6   2  -7    3.98    0.60
   6   2  -7    5.44    0.63
  -6  -2   7    2.43    0.52
  -6  -2   7    4.93    0.59
  -6  -2   7    5.02    0.66
   5   2  -7    0.51    0.29
   4   2  -7    0.60    0.30
   4   2  -7    1.44    0.32
  -4  -2   7    0.19    0.27
  -4  -2   7    0.32    0.32
   3   2  -7   23.75    1.78
   3   2  -7   21.43    1.78
   3   2  -7   26.62    1.74
  -3  -2   7   26.16    1.73
  -3  -2   7   25.74    1.80
   2   2  -7   11.12    0.95
   2   2  -7   13.55    0.99
   2   2  -7   11.20    0.91
   2   2  -7    9.84    0.89
  -2  -2   7   11.66    0.98
  -2  -2   7   13.07    0.95
  -2  -2   7   12.09    0.95
   1   2  -7    8.53    0.79
   1   2  -7   10.80    0.85
   1   2  -7   11.50    0.82
  -1  -2   7   10.19    0.81
   0   2  -7   22.54    1.51
   0   2  -7   23.10    1.56
   0   2  -7   22.47    1.53
   0   2  -7   22.69    1.55
   0  -2   7   20.00    1.57
   0  -2   7   22.05    1.57
  -1   2  -7  182.24   11.48
  -1   2  -7  176.66   11.35
  -1   2  -7  179.25   11.41
  -1   2  -7  183.05   11.34
   1  -2   7  185.25   11.75
  -2   2  -7    0.12    0.15
  -2   2  -7    0.01    0.16
  -2   2  -7    0.18    0.16
  -2   2  -7    0.02    0.15
   2  -2   7    0.33    0.16
   2  -2   7    0.11    0.18
  -3   2  -7    0.43    0.18
  -3   2  -7    0.41    0.19
  -3   2  -7    0.42    0.17
  -3   2  -7    0.17    0.29
  -3   2  -7    0.67    0.20
   3  -2   7    0.25    0.23
   3  -2   7    0.24    0.14
  -4   2  -7   51.11    3.16
  -4   2  -7   48.51    3.16
  -4   2  -7   43.71    3.16
  -4   2  -7   54.22    3.33
   4  -2   7   49.19    3.24
  -5   2  -7    0.22    0.35
  -5   2  -7    0.14    0.15
  -5   2  -7    0.12    0.18
   5  -2   7    0.11    0.16
  -6   2  -7    2.27    0.61
  -6   2  -7    2.17    0.33
  -6   2  -7    2.32    0.34
   6  -2   7    2.46    0.30
  -7   2  -7   10.00    0.78
  -7   2  -7    9.56    0.78
  -7   2  -7    9.18    1.15
   8   1  -7   -0.02    0.33
  -8  -1   7   -0.29    0.37
   7   1  -7    0.27    0.33
  -7  -1   7    0.57    0.39
  -7  -1   7    0.16    0.40
  -7  -1   7    0.07    0.29
   6   1  -7    1.26    0.34
   6   1  -7    1.59    0.40
  -6  -1   7    0.91    0.37
  -6  -1   7    0.54    0.32
  -6  -1   7    1.38    0.41
   5   1  -7   22.72    1.76
   5   1  -7   25.02    1.85
   5   1  -7   24.81    1.81
  -5  -1   7   25.44    1.85
  -5  -1   7   22.40    1.78
   4   1  -7    1.72    0.36
   4   1  -7    1.99    0.35
   4   1  -7    2.83    0.47
  -4  -1   7    1.73    0.39
  -4  -1   7    2.31    0.43
   3   1  -7   23.91    1.72
   3   1  -7   24.00    1.71
   3   1  -7   24.21    1.76
  -3  -1   7   26.03    1.77
  -3  -1   7   24.82    1.78
  -3  -1   7   22.70    1.68
  -3  -1   7   25.25    1.74
   2   1  -7   22.71    1.46
   2   1  -7   19.84    1.44
   2   1  -7   21.21    1.49
   2   1  -7   21.38    1.49
  -2  -1   7   16.50    1.47
  -2  -1   7   20.11    1.49
   1   1  -7   18.55    1.37
   1   1  -7   18.88    1.32
   1   1  -7   19.75    1.33
   1   1  -7   17.17    1.34
  -1  -1   7   19.28    1.34
  -1  -1   7   19.70    1.37
  -1  -1   7   17.25    1.36
   0   1  -7    0.79    0.21
   0   1  -7    0.72    0.18
   0   1  -7    0.44    0.20
   0  -1   7    0.49    0.19
   0  -1   7    0.49    0.24
  -1   1  -7  298.37   18.32
  -1   1  -7  290.67   18.32
  -1   1  -7  306.38   18.43
  -1   1  -7  250.03   18.53
   1  -1   7  309.64   18.98
   1  -1   7  313.46   18.43
  -2   1  -7    0.26    0.18
  -2   1  -7    0.27    0.16
  -2   1  -7    0.14    0.14
  -2   1  -7    0.18    0.15
   2  -1   7    0.28    0.19
   2  -1   7    0.21    0.14
  -3   1  -7    1.95    0.26
  -3   1  -7    1.55    0.24
  -3   1  -7    1.81    0.27
  -3   1  -7    1.35    0.26
   3  -1   7    1.84    0.25
   3  -1   7    1.84    0.30
  -4   1  -7   11.02    0.85
  -4   1  -7   14.26    1.13
  -4   1  -7   10.87    0.86
  -5   1  -7    5.27    0.49
  -5   1  -7    5.94    0.80
  -5   1  -7    4.54    0.46
  -6   1  -7    5.13    0.50
  -6   1  -7    6.41    0.89
  -6   1  -7    5.44    0.51
  -7   1  -7    1.60    0.25
  -7   1  -7    1.89    0.58
  -7   1  -7    1.41    0.24
   8   0  -7    0.08    0.35
  -8   0   7    0.25    0.44
  -8   0   7   -0.05    0.37
   7   0  -7    0.88    0.39
   7   0  -7    2.35    0.47
  -7   0   7    1.28    0.45
  -7   0   7    1.15    0.41
   6   0  -7    1.31    0.38
   6   0  -7    1.25    0.36
  -6   0   7    0.97    0.37
  -6   0   7    0.92    0.37
   5   0  -7   13.87    1.14
   5   0  -7   11.22    1.11
   5   0  -7   14.70    1.11
  -5   0   7   10.87    1.12
   4   0  -7    1.10    0.26
   4   0  -7    1.79    0.33
   4   0  -7    1.33    0.30
   4   0  -7    1.23    0.33
  -4   0   7    1.33    0.33
  -4   0   7    1.25    0.36
   3   0  -7   20.06    1.38
   3   0  -7   19.93    1.32
   3   0  -7   14.27    1.29
   3   0  -7   15.05    1.33
  -3   0   7   18.33    1.38
  -3   0   7   19.19    1.35
  -3   0   7   19.19    1.36
   2   0  -7   25.46    1.65
   2   0  -7   24.06    1.69
   2   0  -7   24.08    1.68
   2   0  -7   20.95    1.63
  -2   0   7   21.03    1.67
  -2   0   7   25.38    1.71
   1   0  -7   20.82    1.57
   1   0  -7   24.95    1.63
   1   0  -7   19.85    1.56
  -1   0   7   23.39    1.63
  -1   0   7   25.95    1.66
   0   0  -7   26.95    1.75
   0   0  -7   24.82    1.78
   0   0  -7   25.06    1.82
   0   0   7   28.10    1.87
   0   0   7   26.53    1.82
  -1   0  -7    4.08    0.44
  -1   0  -7    4.50    0.47
  -1   0  -7    4.42    0.44
   1   0   7    4.65    0.49
   1   0   7    3.62    0.44
  -2   0  -7    5.29    0.48
  -2   0  -7    5.37    0.48
  -2   0  -7    4.74    0.45
   2   0   7    5.09    0.46
   2   0   7    4.71    0.49
  -3   0  -7    0.18    0.15
  -3   0  -7    0.16    0.16
  -3   0  -7    0.21    0.13
  -3   0  -7    0.20    0.13
   3   0   7    0.06    0.12
  -4   0  -7   14.89    1.02
  -4   0  -7   14.02    1.02
  -5   0  -7    3.86    0.39
  -5   0  -7    4.32    0.40
  -6   0  -7    0.37    0.16
  -8   1   7   10.49    1.09
  -8   1   7   10.34    1.16
   7  -1  -7    0.41    0.35
   7  -1  -7    0.61    0.36
  -7   1   7    0.59    0.38
  -7   1   7    0.48    0.38
   6  -1  -7    9.76    0.94
   6  -1  -7    8.28    0.86
  -6   1   7    5.87    0.82
   5  -1  -7   78.03    5.26
   5  -1  -7   76.75    5.42
   5  -1  -7   86.15    5.30
  -5   1   7   78.57    5.26
   4  -1  -7    4.29    0.58
   4  -1  -7    5.28    0.67
   4  -1  -7    5.44    0.60
   4  -1  -7    5.46    0.57
  -4   1   7    6.43    0.68
   3  -1  -7    0.85    0.24
   3  -1  -7    0.51    0.19
   3  -1  -7    0.78    0.28
   3  -1  -7    0.59    0.23
  -3   1   7    0.89    0.31
  -3   1   7    0.89    0.25
   2  -1  -7    0.03    0.17
   2  -1  -7    0.08    0.15
   2  -1  -7    0.33    0.20
   2  -1  -7    0.36    0.23
  -2   1   7    0.24    0.23
  -2   1   7    0.26    0.20
   1  -1  -7  103.39    6.56
   1  -1  -7  103.70    6.48
   1  -1  -7  106.09    6.55
  -1   1   7   98.75    6.59
  -1   1   7  100.77    6.74
  -1   1   7  101.65    6.54
   0  -1  -7    9.36    0.70
   0  -1  -7   10.17    0.78
   0  -1  -7    9.46    0.81
   0   1   7   10.48    0.78
   0   1   7   10.20    0.81
   0   1   7    9.13    0.81
  -1  -1  -7    5.45    0.50
  -1  -1  -7    5.22    0.50
  -1  -1  -7    5.36    0.54
   1   1   7    5.37    0.54
   1   1   7    5.45    0.52
   1   1   7    5.22    0.48
  -2  -1  -7   55.35    3.46
  -2  -1  -7   56.14    3.47
   2   1   7   52.28    3.50
   2   1   7   52.27    3.56
  -3  -1  -7    0.13    0.13
  -3  -1  -7    0.48    0.17
   3   1   7    0.43    0.15
  -4  -1  -7   -0.05    0.14
   4   1   7    0.07    0.11
  -5  -1  -7    2.13    0.26
  -8   2   7    4.02    0.75
  -8   2   7    4.15    0.71
   7  -2  -7    2.57    0.53
  -7   2   7    1.67    0.50
  -7   2   7    1.89    0.50
   6  -2  -7    0.70    0.31
   6  -2  -7    1.32    0.41
  -6   2   7    1.01    0.38
   5  -2  -7   41.71    2.82
   5  -2  -7   43.83    2.82
  -5   2   7   34.42    2.79
   4  -2  -7    0.62    0.25
   4  -2  -7    0.79    0.29
   4  -2  -7    0.28    0.30
   4  -2  -7    1.09    0.33
  -4   2   7    1.28    0.33
  -4   2   7    0.88    0.32
   3  -2  -7   34.75    2.31
   3  -2  -7   30.09    2.31
   3  -2  -7   31.50    2.23
   3  -2  -7   32.30    2.26
  -3   2   7   35.41    2.36
  -3   2   7   33.56    2.31
   2  -2  -7    7.22    0.67
   2  -2  -7    7.05    0.73
   2  -2  -7    7.40    0.64
  -2   2   7    6.19    0.71
  -2   2   7    8.18    0.73
  -2   2   7    7.70    0.68
   1  -2  -7   79.12    5.50
   1  -2  -7   89.59    5.50
   1  -2  -7   87.65    5.46
  -1   2   7   89.72    5.67
  -1   2   7   91.32    5.55
  -1   2   7   75.25    5.49
   0  -2  -7    0.77    0.25
   0  -2  -7    0.74    0.22
   0   2   7    0.66    0.22
   0   2   7    0.81    0.21
   0   2   7    0.67    0.23
  -1  -2  -7   17.23    1.28
  -1  -2  -7   17.85    1.28
  -1  -2  -7   19.95    1.31
   1   2   7   19.59    1.33
   1   2   7   18.10    1.30
   1   2   7   16.72    1.29
  -2  -2  -7   -0.13    0.14
  -2  -2  -7    0.04    0.16
   2   2   7   -0.05    0.12
   2   2   7    0.52    0.18
  -3  -2  -7    0.40    0.18
   3   2   7    1.02    0.20
  -4  -2  -7   -0.05    0.14
   4   2   7    0.00    0.11
  -5  -2  -7    8.31    0.59
   5   2   7    6.97    0.57
  -8   3   7    2.45    0.64
  -8   3   7    3.39    0.69
   7  -3  -7    5.43    0.80
  -7   3   7    4.82    0.75
  -7   3   7    5.50    0.79
   5  -3  -7   -0.54    0.33
   5  -3  -7   -0.48    0.21
  -5   3   7    0.03    0.33
   4  -3  -7    9.13    0.93
   4  -3  -7    8.08    0.81
  -4   3   7   10.57    0.94
   3  -3  -7   11.00    1.01
   3  -3  -7   12.46    1.06
   3  -3  -7   13.52    1.12
  -3   3   7   14.85    1.12
  -3   3   7   11.70    1.02
  -3   3   7   13.46    1.11
   2  -3  -7   32.19    2.09
   2  -3  -7   32.26    2.08
   2  -3  -7   26.74    2.11
  -2   3   7   29.65    2.16
  -2   3   7   30.00    2.13
  -2   3   7   30.52    2.11
   1  -3  -7   17.12    1.29
   1  -3  -7   19.17    1.39
   1  -3  -7   18.46    1.35
  -1   3   7   19.88    1.37
  -1   3   7   18.87    1.39
  -1   3   7   18.65    1.42
   0  -3  -7    6.18    0.59
   0  -3  -7    6.03    0.62
   0   3   7    5.44    0.60
   0   3   7    6.05    0.57
   0   3   7    6.07    0.61
  -1  -3  -7    4.47    0.50
  -1  -3  -7    5.17    0.52
   1   3   7    4.81    0.52
   1   3   7    4.26    0.47
   1   3   7    4.52    0.50
  -2  -3  -7    2.00    0.30
  -2  -3  -7    2.06    0.31
   2   3   7    2.62    0.33
   2   3   7    1.79    0.29
  -3  -3  -7   20.42    1.34
   3   3   7   18.31    1.34
  -4  -3  -7    2.36    0.30
  -4  -3  -7    2.14    0.29
   4   3   7    2.71    0.31
  -5  -3  -7    2.62    0.30
  -5  -3  -7    4.24    0.37
   5   3   7    2.66    0.31
   8  -4  -7    0.40    0.48
  -8   4   7    0.77    0.44
  -8   4   7    0.44    0.47
   7  -4  -7    6.98    0.91
  -7   4   7    8.51    1.01
  -7   4   7    8.37    1.01
   6  -4  -7    0.74    0.39
  -6   4   7    0.74    0.36
   5  -4  -7    0.21    0.36
  -5   4   7    0.19    0.35
   4  -4  -7    2.76    0.54
  -4   4   7    2.78    0.54
   3  -4  -7   28.40    1.97
   3  -4  -7   24.88    2.02
  -3   4   7   29.09    2.00
  -3   4   7   28.78    2.04
   2  -4  -7    2.42    0.46
   2  -4  -7    1.87    0.31
   2  -4  -7    1.88    0.35
   2  -4  -7    1.42    0.37
  -2   4   7    2.40    0.45
  -2   4   7    2.87    0.43
  -2   4   7    3.45    0.49
   1  -4  -7    0.59    0.25
   1  -4  -7    0.40    0.26
  -1   4   7    0.45    0.21
  -1   4   7    0.82    0.28
  -1   4   7    0.58    0.28
   0  -4  -7   10.81    0.95
   0  -4  -7   12.68    1.00
   0   4   7   11.83    1.00
   0   4   7   12.68    0.99
   0   4   7   12.14    0.97
  -1  -4  -7   12.95    1.05
  -1  -4  -7   14.23    1.06
   1   4   7   13.36    1.08
   1   4   7   13.97    1.06
  -2  -4  -7    1.36    0.29
  -2  -4  -7    1.57    0.30
  -2  -4  -7    1.72    0.28
   2   4   7    1.87    0.30
  -3  -4  -7   21.27    1.42
  -3  -4  -7   19.07    1.41
   3   4   7   20.66    1.43
  -4  -4  -7   -0.10    0.14
  -4  -4  -7    0.06    0.17
   4   4   7   -0.22    0.15
  -5  -4  -7    1.76    0.25
  -5  -4  -7    1.47    0.22
   5   4   7    1.29    0.24
   8  -5  -7   -0.81    0.41
  -8   5   7    0.29    0.44
  -8   5   7    0.04    0.39
   7  -5  -7    3.23    0.71
  -7   5   7    3.64    0.67
  -7   5   7    3.50    0.69
   6  -5  -7    4.59    0.77
  -6   5   7    4.29    0.74
   5  -5  -7   31.73    2.28
  -5   5   7   27.88    2.22
   4  -5  -7   13.68    1.24
  -4   5   7   11.70    1.16
   3  -5  -7   28.13    2.30
   3  -5  -7   33.36    2.24
  -3   5   7   34.04    2.32
   2  -5  -7   28.74    2.11
   2  -5  -7   28.12    2.03
  -2   5   7   29.92    2.09
   1  -5  -7   11.99    1.07
   1  -5  -7   14.46    1.15
   1  -5  -7   13.15    1.08
  -1   5   7   12.23    1.12
  -1   5   7   13.73    1.12
   0  -5  -7   30.88    2.13
   0  -5  -7   32.47    2.12
   0  -5  -7   29.48    2.14
   0   5   7   33.74    2.18
   0   5   7   26.51    2.18
  -1  -5  -7    3.54    0.46
  -1  -5  -7    3.50    0.47
  -1  -5  -7    3.40    0.46
   1   5   7    2.64    0.41
   1   5   7    2.90    0.46
  -2  -5  -7    1.46    0.31
  -2  -5  -7    0.91    0.24
  -2  -5  -7    1.24    0.29
   2   5   7    1.10    0.27
  -3  -5  -7    6.05    0.60
  -3  -5  -7    4.95    0.57
   3   5   7    5.81    0.60
  -4  -5  -7    0.21    0.19
  -4  -5  -7    0.15    0.19
   8  -6  -7    1.82    0.59
  -8   6   7    1.45    0.56
  -8   6   7    2.62    0.68
  -7   6   7    0.76    0.49
  -7   6   7    0.78    0.50
   6  -6  -7    1.63    0.58
  -6   6   7    2.63    0.59
   5  -6  -7    5.58    0.83
  -5   6   7    3.50    0.62
   4  -6  -7    0.37    0.39
  -4   6   7   -0.26    0.30
   3  -6  -7    3.76    0.66
   3  -6  -7    4.72    0.63
  -3   6   7    5.25    0.73
   2  -6  -7    0.33    0.33
   2  -6  -7    0.82    0.31
  -2   6   7    0.59    0.33
   1  -6  -7   11.11    1.13
   1  -6  -7   12.91    1.08
  -1   6   7   12.93    1.09
   0  -6  -7    8.28    0.83
   0  -6  -7    8.73    0.90
   0  -6  -7    8.75    0.85
   0   6   7    9.53    0.90
  -1  -6  -7   14.69    1.13
  -1  -6  -7   14.44    1.12
  -1  -6  -7   12.92    1.10
   1   6   7   12.15    1.14
  -2  -6  -7    3.27    0.43
  -2  -6  -7    3.28    0.47
  -2  -6  -7    2.70    0.45
  -3  -6  -7    1.23    0.31
  -3  -6  -7    0.90    0.30
  -4  -6  -7    0.05    0.19
  -4  -6  -7   -0.30    0.20
   7  -7  -7    1.98    0.67
  -7   7   7    1.61    0.61
  -7   7   7    1.72    0.60
   6  -7  -7    6.74    0.96
  -6   7   7    8.41    0.99
   5  -7  -7   15.98    1.55
  -5   7   7   15.33    1.43
   4  -7  -7    1.41    0.47
  -4   7   7    1.68    0.52
   3  -7  -7    2.44    0.61
  -3   7   7    2.54    0.56
   2  -7  -7   11.65    1.02
   2  -7  -7   10.19    1.11
  -2   7   7    9.68    1.02
   1  -7  -7    0.95    0.38
   1  -7  -7    1.30    0.44
   0  -7  -7    7.75    0.85
   0  -7  -7    8.60    0.93
  -1  -7  -7   20.93    1.64
  -1  -7  -7   22.61    1.64
  -2  -7  -7   -0.40    0.24
  -2  -7  -7    0.20    0.23
  -2  -7  -7   -0.18    0.25
  -3  -7  -7   -0.01    0.25
  -3  -7  -7   -0.11    0.26
   7  -8  -7    1.93    0.62
  -7   8   7    0.53    0.58
  -7   8   7    0.88    0.53
   6  -8  -7    1.07    0.56
  -6   8   7    0.70    0.50
   5  -8  -7   14.73    1.54
  -5   8   7   14.35    1.43
   4  -8  -7   -0.23    0.46
  -4   8   7    0.09    0.37
   3  -8  -7    2.44    0.64
  -3   8   7    2.37    0.59
   2  -8  -7    1.63    0.49
   2  -8  -7    1.73    0.51
   1  -8  -7    0.61    0.44
   1  -8  -7    0.54    0.34
   0  -8  -7   28.09    2.18
   0  -8  -7   32.03    2.25
  -1  -8  -7    2.43    0.51
  -1  -8  -7    2.67    0.52
  -2  -8  -7   -0.18    0.23
  -2  -8  -7   -0.20    0.25
   6  -9  -7    7.04    1.06
  -6   9   7    6.87    1.01
   5  -9  -7    9.00    1.23
  -5   9   7    8.02    1.06
   4  -9  -7    1.90    0.69
  -4   9   7    1.43    0.52
   3  -9  -7   -0.22    0.49
   2  -9  -7    0.26    0.48
   1  -9  -7    0.49    0.35
   1  -9  -7    0.31    0.40
   0  -9  -7   25.57    1.99
   0  -9  -7   25.91    2.03
   4 -10  -7   -0.95    0.52
  -4  10   7   -0.10    0.44
   3 -10  -7    0.00    0.58
   2 -10  -7    0.12    0.51
   0  13  -8    0.24    0.39
   0 -13   8    0.03    0.62
  -1  13  -8    0.46    0.45
   1 -13   8    0.74    0.71
  -2  13  -8    0.89    0.47
   2 -13   8    0.27    0.60
  -3  13  -8    0.92    0.57
   3 -13   8    0.19    0.62
   4 -13   8    0.38    0.72
  -2 -12   8    2.84    0.85
   1  12  -8    0.87    0.47
  -1 -12   8    1.84    0.69
   0  12  -8    1.03    0.46
   0 -12   8    0.53    0.65
  -1  12  -8   -0.16    0.38
   1 -12   8   -0.47    0.49
  -2  12  -8    4.62    0.80
   2 -12   8    2.70    0.74
  -3  12  -8    2.64    0.63
   3 -12   8    2.48    0.75
  -4  12  -8    0.28    0.44
  -4  12  -8   -0.26    0.34
   4 -12   8    0.53    0.59
  -5  12  -8   -0.07    0.41
  -5  12  -8   -0.42    0.39
  -3 -11   8    0.10    0.56
   2  11  -8   -0.28    0.34
  -2 -11   8   -0.40    0.54
   1  11  -8    0.86    0.47
  -1 -11   8    0.44    0.56
   0  11  -8   -0.14    0.36
   0 -11   8   -0.17    0.48
  -1  11  -8   -0.07    0.37
   1 -11   8    0.40    0.52
  -2  11  -8    0.30    0.39
  -2  11  -8    0.12    0.30
   2 -11   8    0.07    0.49
  -3  11  -8    0.05    0.36
  -3  11  -8    0.60    0.36
   3 -11   8    0.75    0.55
  -4  11  -8   -0.11    0.34
  -4  11  -8    0.44    0.41
   4 -11   8    0.46    0.46
  -5  11  -8    0.79    0.45
  -5  11  -8    0.91    0.48
  -6  11  -8    2.89    0.63
  -6  11  -8    3.22    0.69
  -4 -10   8    2.50    0.79
   3  10  -8    1.20    0.42
  -3 -10   8    0.70    0.58
   2  10  -8    0.88    0.42
  -2 -10   8    1.37    0.60
   1  10  -8    0.15    0.33
  -1 -10   8   -0.25    0.47
   0  10  -8    0.31    0.36
   0 -10   8    0.98    0.53
  -1  10  -8    6.44    0.88
  -1  10  -8    7.70    0.70
   1 -10   8   10.12    1.18
  -2  10  -8    5.83    0.68
  -2  10  -8    6.44    0.86
   2 -10   8    6.03    0.86
  -3  10  -8    0.86    0.43
  -3  10  -8    0.68    0.38
   3 -10   8    1.02    0.48
  -4  10  -8    0.57    0.38
  -4  10  -8    0.79    0.40
   4 -10   8    0.56    0.42
  -5  10  -8   -0.17    0.35
  -5  10  -8   -0.03    0.27
  -6  10  -8    5.77    0.89
  -6  10  -8    6.26    0.85
  -5  -9   8    0.64    0.60
  -4  -9   8    1.56    0.62
   3   9  -8    6.37    0.81
  -3  -9   8    6.13    0.91
   2   9  -8    0.27    0.32
  -2  -9   8   -0.32    0.42
   1   9  -8    1.19    0.40
  -1  -9   8    0.50    0.46
   0   9  -8   -0.21    0.29
   0  -9   8   -0.17    0.39
  -1   9  -8   38.07    2.61
  -1   9  -8   39.97    2.83
   1  -9   8   42.80    2.95
  -2   9  -8    5.14    0.63
  -2   9  -8    4.53    0.69
   2  -9   8    5.81    0.86
  -3   9  -8    0.28    0.32
  -3   9  -8    0.37    0.31
   3  -9   8    0.36    0.42
  -4   9  -8    6.60    0.81
  -4   9  -8    7.73    0.89
  -4   9  -8    8.92    0.93
   4  -9   8    7.53    0.98
  -5   9  -8    0.07    0.28
  -5   9  -8    0.13    0.32
  -5   9  -8    0.21    0.38
  -6   9  -8    2.68    0.55
  -6   9  -8    3.37    0.61
  -6   9  -8    3.43    0.68
  -5  -8   8    2.18    0.68
   4   8  -8    1.63    0.46
  -4  -8   8    2.78    0.67
   3   8  -8   21.89    1.78
  -3  -8   8   23.59    1.91
   2   8  -8    1.87    0.45
  -2  -8   8    0.86    0.48
   1   8  -8   -0.19    0.27
  -1  -8   8   -0.73    0.35
   0   8  -8   34.16    2.45
   0  -8   8   34.09    2.54
  -1   8  -8   30.08    2.20
  -1   8  -8   30.18    2.05
   1  -8   8   31.07    2.29
  -2   8  -8    4.04    0.59
  -2   8  -8    4.05    0.56
  -2   8  -8    5.02    0.66
   2  -8   8    3.93    0.66
  -3   8  -8   13.41    1.14
  -3   8  -8   11.17    1.07
  -3   8  -8   14.43    1.14
   3  -8   8   12.37    1.22
  -4   8  -8    0.19    0.23
  -4   8  -8    0.65    0.36
  -4   8  -8    0.02    0.22
   4  -8   8   -0.16    0.31
  -5   8  -8   -0.24    0.22
  -5   8  -8    0.16    0.39
  -5   8  -8    0.51    0.32
  -6   8  -8    5.09    0.72
  -6   8  -8    6.05    0.89
  -6   8  -8    5.79    0.72
  -7   8  -8    0.04    0.31
  -7   8  -8   -0.19    0.28
  -7   8  -8   -0.62    0.43
  -6  -7   8    8.74    1.12
  -5  -7   8    1.11    0.52
   4   7  -8    0.81    0.40
  -4  -7   8    0.18    0.42
   3   7  -8    2.62    0.52
  -3  -7   8    1.91    0.55
   2   7  -8    0.24    0.29
  -2  -7   8    0.07    0.39
   1   7  -8    0.67    0.36
  -1  -7   8    0.43    0.37
   0   7  -8   16.69    1.34
   0   7  -8   15.04    1.23
   0  -7   8   15.57    1.39
  -1   7  -8    3.34    0.46
  -1   7  -8    3.68    0.55
  -1   7  -8    3.87    0.50
   1  -7   8    2.89    0.56
  -2   7  -8   -0.05    0.23
  -2   7  -8   -0.14    0.25
  -2   7  -8   -0.07    0.21
   2  -7   8    0.02    0.33
  -3   7  -8   12.85    1.06
  -3   7  -8   10.87    1.05
  -3   7  -8   13.52    1.10
   3  -7   8   12.22    1.16
  -4   7  -8    0.41    0.29
  -4   7  -8    0.44    0.28
  -4   7  -8    0.02    0.31
   4  -7   8    0.09    0.33
  -5   7  -8   16.55    1.33
  -5   7  -8   15.65    1.32
  -5   7  -8   17.32    1.46
  -6   7  -8    1.41    0.40
  -6   7  -8    1.49    0.57
  -6   7  -8    1.14    0.34
  -7   7  -8    0.00    0.25
  -7   7  -8   -0.39    0.43
  -7   7  -8    0.47    0.28
  -6  -6   8    4.26    0.81
   5   6  -8    8.50    0.98
  -5  -6   8   11.40    1.19
   4   6  -8    0.16    0.26
  -4  -6   8    0.22    0.36
  -4  -6   8    0.09    0.29
   3   6  -8    0.08    0.25
  -3  -6   8   -0.16    0.31
  -3  -6   8    0.22    0.30
   2   6  -8   22.39    1.68
  -2  -6   8   20.75    1.74
  -2  -6   8   21.45    1.68
   1   6  -8    6.94    0.73
   1   6  -8    7.19    0.75
   1   6  -8    8.43    0.84
  -1  -6   8    8.42    0.93
  -1  -6   8    8.05    0.82
   0   6  -8    1.20    0.28
   0   6  -8    1.34    0.35
   0   6  -8    1.07    0.29
   0  -6   8    1.51    0.41
  -1   6  -8    6.98    0.71
  -1   6  -8    6.83    0.74
  -1   6  -8    6.04    0.65
   1  -6   8    6.73    0.81
  -2   6  -8    0.88    0.32
  -2   6  -8    0.57    0.28
  -2   6  -8    0.85    0.33
  -2   6  -8    0.52    0.25
   2  -6   8    0.48    0.35
  -3   6  -8   13.33    1.23
  -3   6  -8   16.84    1.26
  -3   6  -8   16.99    1.30
  -3   6  -8   15.10    1.22
   3  -6   8   16.34    1.32
  -4   6  -8   32.09    2.32
  -4   6  -8   33.96    2.39
  -4   6  -8   34.29    2.36
  -4   6  -8   34.22    2.34
  -5   6  -8    2.84    0.63
  -5   6  -8    4.25    0.57
  -5   6  -8    3.98    0.55
  -5   6  -8    4.48    0.60
  -6   6  -8    4.86    0.64
  -6   6  -8    4.62    0.69
  -6   6  -8    5.28    0.59
  -6   6  -8    5.13    0.80
  -7   6  -8    3.02    0.44
  -7   6  -8    4.03    0.76
  -7   6  -8    2.78    0.48
  -7  -5   8   -0.70    0.42
  -6  -5   8    1.58    0.55
   5   5  -8    8.81    0.96
  -5  -5   8   10.23    1.09
  -5  -5   8    9.65    0.99
   4   5  -8    4.10    0.60
  -4  -5   8    5.71    0.78
  -4  -5   8    4.59    0.61
   3   5  -8    0.07    0.29
   3   5  -8   -0.09    0.23
  -3  -5   8   -0.26    0.30
  -3  -5   8    0.04    0.25
   2   5  -8  199.47   11.88
   2   5  -8  189.92   12.19
  -2  -5   8  189.61   11.90
  -2  -5   8  176.82   11.38
  -2  -5   8  178.94   11.80
   1   5  -8    0.05    0.24
   1   5  -8    0.19    0.20
   1   5  -8    0.31    0.18
  -1  -5   8    0.29    0.34
  -1  -5   8    0.39    0.29
  -1  -5   8    0.67    0.26
   0   5  -8   17.26    1.29
   0   5  -8   14.37    1.31
   0   5  -8   17.56    1.29
   0  -5   8   16.17    1.30
   0  -5   8   18.74    1.39
   0  -5   8   19.53    1.36
  -1   5  -8    9.83    0.85
  -1   5  -8   10.05    0.88
  -1   5  -8   10.32    0.91
   1  -5   8   10.10    0.96
   1  -5   8    9.56    0.87
  -2   5  -8    3.92    0.58
  -2   5  -8    3.36    0.50
  -2   5  -8    4.15    0.52
  -2   5  -8    4.21    0.55
   2  -5   8    4.44    0.52
   2  -5   8    2.81    0.52
  -3   5  -8   32.90    2.58
  -3   5  -8   40.85    2.64
  -3   5  -8   35.71    2.58
  -3   5  -8   36.02    2.63
   3  -5   8   43.40    2.69
   3  -5   8   42.17    2.68
  -4   5  -8    7.81    0.73
  -4   5  -8    7.08    0.69
  -4   5  -8    6.61    0.85
  -4   5  -8    6.09    0.69
  -5   5  -8   -0.34    0.36
  -5   5  -8    0.08    0.22
  -5   5  -8    0.10    0.19
  -5   5  -8    0.17    0.21
  -6   5  -8    1.75    0.38
  -6   5  -8    2.33    0.36
  -6   5  -8    1.98    0.41
  -6   5  -8    1.83    0.58
  -7   5  -8    0.45    0.52
  -7   5  -8    1.32    0.36
  -7   5  -8    1.27    0.33
  -7  -4   8    3.19    0.72
  -6  -4   8   12.91    1.31
   5   4  -8    2.45    0.51
  -5  -4   8    2.91    0.56
  -5  -4   8    2.47    0.58
   4   4  -8    6.42    0.74
  -4  -4   8    4.65    0.62
  -4  -4   8    6.47    0.79
   3   4  -8   94.17    5.84
   3   4  -8   85.34    5.97
  -3  -4   8   90.80    5.87
  -3  -4   8   87.81    5.80
   2   4  -8   19.83    1.39
   2   4  -8   19.32    1.43
   2   4  -8   19.24    1.44
  -2  -4   8   19.69    1.49
  -2  -4   8   18.44    1.41
  -2  -4   8   14.91    1.38
   1   4  -8    3.63    0.48
   1   4  -8    3.62    0.50
   1   4  -8    5.59    0.61
   1   4  -8    4.78    0.54
  -1  -4   8    3.88    0.58
  -1  -4   8    6.57    0.68
  -1  -4   8    4.47    0.52
   0   4  -8    0.02    0.24
   0   4  -8    0.33    0.23
   0   4  -8   -0.15    0.13
   0  -4   8    0.30    0.23
  -1   4  -8  180.95   10.72
  -1   4  -8  175.53   10.75
  -1   4  -8  154.10   10.78
   1  -4   8  162.22   11.09
   1  -4   8  179.93   10.83
  -2   4  -8   10.68    0.95
  -2   4  -8   10.80    0.91
  -2   4  -8   13.01    0.97
  -2   4  -8   11.91    0.82
  -2   4  -8   11.72    1.01
   2  -4   8   10.35    0.92
   2  -4   8   10.04    1.00
  -3   4  -8   15.17    1.14
  -3   4  -8   14.40    1.15
  -3   4  -8   15.31    1.26
  -3   4  -8   13.76    1.12
  -4   4  -8   24.56    1.94
  -4   4  -8   25.78    1.83
  -4   4  -8   26.87    1.86
  -4   4  -8   26.50    1.83
   4  -4   8   27.42    1.89
  -5   4  -8    8.67    0.72
  -5   4  -8    9.27    1.06
  -5   4  -8    8.52    0.78
  -5   4  -8    9.34    0.78
   5  -4   8    7.44    0.78
  -6   4  -8   -0.21    0.43
  -6   4  -8   -0.10    0.18
  -6   4  -8    0.10    0.17
  -6   4  -8   -0.09    0.17
  -7   4  -8    0.81    0.30
  -7   4  -8    0.87    0.53
  -7   4  -8    1.04    0.29
   7   3  -8    2.26    0.51
  -7  -3   8    2.18    0.51
   6   3  -8    3.81    0.66
   6   3  -8    4.10    0.61
  -6  -3   8    3.74    0.65
   5   3  -8    1.20    0.39
  -5  -3   8    0.83    0.36
  -5  -3   8    0.94    0.42
   4   3  -8   11.44    1.03
   4   3  -8   11.23    1.03
  -4  -3   8   11.19    1.03
  -4  -3   8   10.36    1.05
   3   3  -8   11.41    0.99
   3   3  -8    9.55    1.00
  -3  -3   8   11.54    1.00
  -3  -3   8    8.71    1.01
   2   3  -8    0.93    0.32
   2   3  -8    0.89    0.28
   2   3  -8    1.14    0.29
  -2  -3   8    1.05    0.27
  -2  -3   8    0.70    0.29
  -2  -3   8    0.44    0.24
   1   3  -8    7.96    0.74
   1   3  -8    8.18    0.70
   1   3  -8    8.09    0.71
  -1  -3   8    8.32    0.72
  -1  -3   8    5.21    0.70
  -1  -3   8    7.81    0.71
   0   3  -8    1.32    0.32
   0   3  -8    0.76    0.31
   0   3  -8    1.45    0.30
   0   3  -8    1.69    0.28
   0  -3   8    1.42    0.29
   0  -3   8    2.02    0.38
  -1   3  -8    6.41    0.53
  -1   3  -8    6.36    0.60
  -1   3  -8    6.74    0.65
  -1   3  -8    5.70    0.63
   1  -3   8    5.88    0.60
   1  -3   8    5.78    0.65
  -2   3  -8   -0.16    0.18
  -2   3  -8   -0.12    0.19
  -2   3  -8   -0.17    0.19
   2  -3   8   -0.14    0.18
   2  -3   8   -0.34    0.25
  -3   3  -8    0.72    0.26
  -3   3  -8    1.54    0.42
  -3   3  -8    0.87    0.26
  -3   3  -8    0.60    0.25
   3  -3   8    0.77    0.33
   3  -3   8    0.94    0.24
  -4   3  -8   35.35    2.41
  -4   3  -8   35.88    2.38
  -4   3  -8   34.72    2.38
  -4   3  -8   38.41    2.56
   4  -3   8   35.34    2.44
  -5   3  -8    4.37    0.72
  -5   3  -8    4.83    0.52
  -5   3  -8    4.91    0.55
  -5   3  -8    4.57    0.46
   5  -3   8    5.71    0.54
  -6   3  -8    0.51    0.23
  -6   3  -8    0.11    0.43
  -6   3  -8    0.62    0.23
   6  -3   8    0.84    0.26
  -7   3  -8    0.26    0.22
  -7   3  -8   -0.27    0.46
  -7   3  -8    0.32    0.23
  -8  -2   8    4.45    0.86
   7   2  -8    8.68    1.00
   6   2  -8    1.16    0.38
   6   2  -8    0.61    0.38
  -6  -2   8    0.36    0.33
  -6  -2   8    1.72    0.38
   5   2  -8    1.71    0.41
   5   2  -8    1.30    0.36
  -5  -2   8    2.30    0.51
  -5  -2   8    1.61    0.48
   4   2  -8   12.18    1.18
   4   2  -8   13.92    1.14
   4   2  -8   16.75    1.24
  -4  -2   8   12.38    1.21
   3   2  -8    8.30    0.76
   3   2  -8    7.71    0.87
   3   2  -8    8.61    0.78
   3   2  -8    7.41    0.79
  -3  -2   8    8.06    0.82
  -3  -2   8    8.91    0.86
   2   2  -8   49.43    3.11
   2   2  -8   50.08    3.14
   2   2  -8   39.64    3.15
   2   2  -8   40.03    3.05
  -2  -2   8   46.71    3.14
  -2  -2   8   50.83    3.11
  -2  -2   8   49.37    3.19
   1   2  -8    4.80    0.48
   1   2  -8    5.37    0.57
   1   2  -8    5.73    0.54
  -1  -2   8    4.47    0.55
  -1  -2   8    4.30    0.52
   0   2  -8    6.92    0.69
   0   2  -8    5.87    0.63
   0   2  -8    8.52    0.71
   0   2  -8    7.29    0.61
   0  -2   8    7.51    0.73
   0  -2   8    8.13    0.70
  -1   2  -8   18.89    1.34
  -1   2  -8   16.56    1.27
  -1   2  -8   19.60    1.38
  -1   2  -8   19.13    1.37
   1  -2   8   20.24    1.40
   1  -2   8   19.24    1.38
  -2   2  -8   33.30    2.15
  -2   2  -8   32.02    2.17
  -2   2  -8   29.26    2.15
   2  -2   8   31.45    2.19
   2  -2   8   33.22    2.18
  -3   2  -8   34.06    2.27
  -3   2  -8   33.93    2.30
  -3   2  -8   34.62    2.28
   3  -2   8   33.89    2.33
  -4   2  -8    5.79    0.58
  -4   2  -8    5.44    0.51
  -4   2  -8    5.73    0.56
   4  -2   8    5.90    0.55
  -5   2  -8    0.67    0.24
  -5   2  -8    0.68    0.44
  -5   2  -8    0.63    0.22
   5  -2   8    0.69    0.22
  -6   2  -8    2.17    0.33
  -6   2  -8    1.43    0.55
  -6   2  -8    2.28    0.35
   6  -2   8    2.81    0.36
  -7   2  -8    1.51    0.55
  -7   2  -8    0.88    0.24
  -7   2  -8    0.70    0.24
   7  -2   8    0.95    0.27
  -8  -1   8    4.85    0.80
   7   1  -8    6.45    0.91
  -7  -1   8    6.55    0.78
  -7  -1   8    4.87    0.78
   6   1  -8    5.95    0.80
   6   1  -8    7.51    0.81
  -6  -1   8    6.84    0.85
  -6  -1   8    7.32    0.76
   5   1  -8   27.85    2.06
   5   1  -8   28.95    2.11
   4   1  -8    4.56    0.61
   4   1  -8    3.25    0.49
   4   1  -8    3.33    0.56
  -4  -1   8    2.40    0.49
  -4  -1   8    4.40    0.65
   3   1  -8   20.97    1.44
   3   1  -8   21.07    1.51
   3   1  -8   15.40    1.39
   3   1  -8   19.84    1.47
  -3  -1   8   21.83    1.53
  -3  -1   8   21.75    1.48
  -3  -1   8   15.63    1.42
   2   1  -8    3.65    0.44
   2   1  -8    4.17    0.52
   2   1  -8    2.95    0.52
   2   1  -8    4.39    0.51
  -2  -1   8    3.77    0.50
  -2  -1   8    3.98    0.50
   1   1  -8   21.34    1.48
   1   1  -8   20.40    1.52
   1   1  -8   20.30    1.46
  -1  -1   8   21.63    1.55
  -1  -1   8   20.03    1.52
   0   1  -8    2.14    0.29
   0   1  -8    3.19    0.42
   0   1  -8    3.00    0.38
   0  -1   8    1.97    0.32
   0  -1   8    2.01    0.37
  -1   1  -8    4.87    0.39
  -1   1  -8    4.41    0.51
  -1   1  -8    4.87    0.54
   1  -1   8    6.00    0.55
   1  -1   8    6.17    0.61
  -2   1  -8   21.41    1.50
  -2   1  -8   20.75    1.50
  -2   1  -8   20.07    1.50
   2  -1   8   23.03    1.54
   2  -1   8   21.60    1.52
  -3   1  -8    8.69    0.70
  -3   1  -8    8.30    0.71
  -3   1  -8    7.90    0.67
   3  -1   8    7.76    0.68
  -4   1  -8   10.50    0.79
  -4   1  -8    7.40    0.77
  -4   1  -8   10.36    0.71
   4  -1   8   10.21    0.77
  -5   1  -8   -0.05    0.15
   5  -1   8    0.19    0.16
  -6   1  -8    6.50    0.59
  -6   1  -8    5.90    0.59
  -8   0   8    0.26    0.44
   7   0  -8    7.10    0.91
  -7   0   8    6.14    0.88
  -7   0   8    9.14    0.92
   6   0  -8    0.15    0.28
   6   0  -8    0.36    0.32
  -6   0   8    0.27    0.34
   5   0  -8   41.30    2.87
   5   0  -8   42.09    2.89
  -5   0   8   39.73    2.90
   4   0  -8    0.73    0.36
   4   0  -8    1.03    0.30
  -4   0   8    0.73    0.33
   3   0  -8   24.50    1.76
   3   0  -8   22.02    1.75
   3   0  -8   24.35    1.72
   3   0  -8   23.26    1.69
  -3   0   8   23.85    1.72
  -3   0   8   23.59    1.76
  -3   0   8   24.24    1.76
   2   0  -8    2.81    0.39
   2   0  -8    2.38    0.43
   2   0  -8    1.92    0.33
  -2   0   8    2.66    0.45
  -2   0   8    1.99    0.34
  -2   0   8    2.90    0.46
   1   0  -8   22.53    1.54
   1   0  -8   23.59    1.62
   1   0  -8   18.56    1.53
  -1   0   8   24.23    1.63
  -1   0   8   21.30    1.61
   0   0  -8    9.95    0.72
   0   0  -8    9.88    0.79
   0   0  -8   10.35    0.86
   0   0   8   10.88    0.85
   0   0   8    6.98    0.79
  -1   0  -8    0.64    0.23
  -1   0  -8    0.75    0.23
   1   0   8    0.80    0.24
   1   0   8    0.73    0.23
  -2   0  -8    0.69    0.22
  -2   0  -8    0.36    0.18
  -3   0  -8    2.72    0.33
  -3   0  -8    2.45    0.35
   3   0   8    2.81    0.33
  -4   0  -8    2.69    0.35
   4   0   8    3.12    0.35
  -5   0  -8   11.21    0.84
  -6   0  -8   -0.08    0.19
  -8   1   8    1.13    0.52
  -8   1   8    0.73    0.47
   7  -1  -8    8.02    1.00
  -7   1   8    7.88    1.02
  -7   1   8    7.77    0.92
   6  -1  -8    2.01    0.52
  -6   1   8    1.51    0.50
   5  -1  -8   48.95    3.14
   5  -1  -8   41.59    3.10
  -5   1   8   43.48    3.12
   4  -1  -8    2.99    0.51
   4  -1  -8    4.31    0.53
  -4   1   8    3.22    0.52
   3  -1  -8   12.19    1.03
   3  -1  -8   14.89    1.15
   3  -1  -8   12.22    1.06
   3  -1  -8   11.26    1.02
  -3   1   8   14.54    1.13
  -3   1   8   12.82    1.08
   2  -1  -8   19.80    1.55
   2  -1  -8   23.11    1.59
   2  -1  -8   22.35    1.64
  -2   1   8   19.66    1.61
  -2   1   8   25.37    1.67
   1  -1  -8    7.01    0.71
   1  -1  -8    7.61    0.66
   1  -1  -8    6.52    0.57
  -1   1   8    6.41    0.67
  -1   1   8    6.31    0.70
   0  -1  -8    0.29    0.21
   0  -1  -8    0.40    0.13
   0  -1  -8    0.42    0.25
   0   1   8    0.53    0.20
   0   1   8    0.30    0.18
   0   1   8    0.66    0.27
  -1  -1  -8   62.32    3.88
  -1  -1  -8   62.87    3.91
   1   1   8   57.87    4.00
   1   1   8   57.12    3.92
  -2  -1  -8    1.42    0.28
  -2  -1  -8    1.35    0.27
   2   1   8    1.45    0.25
   2   1   8    1.73    0.28
  -3  -1  -8   19.27    1.25
  -3  -1  -8   19.78    1.30
   3   1   8   17.76    1.28
   3   1   8   16.47    1.30
  -4  -1  -8    0.17    0.17
  -5  -1  -8    2.68    0.33
  -8   2   8    0.70    0.48
  -8   2   8    0.47    0.50
   7  -2  -8    5.37    0.85
  -7   2   8    6.88    0.91
  -7   2   8    8.08    0.93
   6  -2  -8    5.26    0.76
  -6   2   8    4.05    0.66
   5  -2  -8    1.01    0.45
  -5   2   8    0.18    0.32
   4  -2  -8    6.24    0.79
  -4   2   8    8.60    0.86
   3  -2  -8   19.75    1.64
   3  -2  -8   22.20    1.59
  -3   2   8   23.27    1.68
   2  -2  -8    5.45    0.70
   2  -2  -8    7.47    0.65
   2  -2  -8    7.76    0.71
  -2   2   8    6.91    0.68
  -2   2   8    8.66    0.78
  -2   2   8    7.48    0.77
   1  -2  -8    0.21    0.24
   1  -2  -8   -0.10    0.19
   1  -2  -8    0.09    0.14
  -1   2   8    0.09    0.18
  -1   2   8    0.17    0.20
  -1   2   8    0.23    0.22
   0  -2  -8   17.07    1.28
   0  -2  -8   17.11    1.25
   0   2   8   17.49    1.29
   0   2   8   16.37    1.24
   0   2   8   15.92    1.26
  -1  -2  -8   11.82    0.91
  -1  -2  -8   11.46    0.93
   1   2   8   10.09    0.92
   1   2   8   11.01    0.93
   1   2   8   11.74    0.90
  -2  -2  -8    1.66    0.28
  -2  -2  -8    1.28    0.27
   2   2   8    1.56    0.27
   2   2   8    1.66    0.30
  -3  -2  -8    3.16    0.34
  -3  -2  -8    3.58    0.42
   3   2   8    3.51    0.39
   3   2   8    3.29    0.39
  -4  -2  -8    8.86    0.70
   4   2   8    8.19    0.67
  -5  -2  -8    0.08    0.17
   5   2   8    0.30    0.16
   8  -3  -8    2.92    0.73
  -8   3   8    2.48    0.58
  -8   3   8    1.94    0.62
   7  -3  -8    2.39    0.60
  -7   3   8    3.24    0.64
  -7   3   8    1.85    0.52
   6  -3  -8    2.68    0.62
  -6   3   8    2.92    0.61
   5  -3  -8    0.56    0.42
  -5   3   8    0.54    0.41
   4  -3  -8   -0.54    0.27
  -4   3   8   -0.23    0.25
   3  -3  -8   16.28    1.21
   3  -3  -8   14.01    1.26
  -3   3   8   14.25    1.26
   2  -3  -8   19.85    1.46
   2  -3  -8   19.38    1.50
  -2   3   8   20.26    1.53
  -2   3   8   17.80    1.46
  -2   3   8   20.07    1.52
   1  -3  -8    0.12    0.23
   1  -3  -8    0.35    0.25
  -1   3   8    0.31    0.22
  -1   3   8    0.07    0.24
  -1   3   8   -0.11    0.17
   0  -3  -8    1.01    0.32
   0  -3  -8    0.88    0.29
   0   3   8    0.65    0.25
   0   3   8    1.03    0.30
   0   3   8    0.93    0.28
  -1  -3  -8   14.87    1.13
  -1  -3  -8   14.54    1.13
   1   3   8   14.55    1.12
   1   3   8   14.73    1.17
  -2  -3  -8   -0.09    0.18
  -2  -3  -8    0.18    0.19
   2   3   8    0.10    0.19
   2   3   8    0.00    0.16
  -3  -3  -8    3.61    0.44
   3   3   8    3.81    0.44
   3   3   8    4.09    0.46
  -4  -3  -8    1.00    0.23
  -4  -3  -8    1.02    0.25
   4   3   8    1.35    0.24
  -5  -3  -8    0.22    0.17
  -5  -3  -8   -0.16    0.13
   5   3   8    0.15    0.15
   8  -4  -8    1.10    0.50
  -8   4   8    1.25    0.53
  -8   4   8    0.66    0.48
   7  -4  -8   -0.38    0.39
  -7   4   8    0.13    0.35
   6  -4  -8    3.07    0.65
  -6   4   8    3.90    0.71
   5  -4  -8    0.56    0.43
  -5   4   8    0.32    0.38
   4  -4  -8    1.18    0.45
  -4   4   8    1.15    0.44
   3  -4  -8   37.90    2.85
   3  -4  -8   41.69    2.79
  -3   4   8   42.71    2.87
   2  -4  -8    3.22    0.55
   2  -4  -8    3.59    0.49
  -2   4   8    2.95    0.51
   1  -4  -8   21.41    1.60
   1  -4  -8   20.48    1.54
  -1   4   8   21.43    1.60
  -1   4   8   20.56    1.63
   0  -4  -8    4.52    0.51
   0  -4  -8    2.88    0.46
   0   4   8    2.80    0.44
  -1  -4  -8   23.72    1.71
  -1  -4  -8   26.15    1.73
   1   4   8   22.40    1.77
  -2  -4  -8    0.37    0.24
  -2  -4  -8    0.07    0.22
  -2  -4  -8    0.15    0.21
   2   4   8    0.10    0.21
  -3  -4  -8    8.52    0.75
  -3  -4  -8    8.16    0.74
   3   4   8    8.68    0.78
  -4  -4  -8    1.69    0.30
  -4  -4  -8    1.74    0.30
   7  -5  -8    2.10    0.64
  -7   5   8    1.76    0.52
   6  -5  -8    4.44    0.76
  -6   5   8    3.20    0.61
   5  -5  -8    0.61    0.44
  -5   5   8    0.31    0.37
   4  -5  -8    1.07    0.45
  -4   5   8    1.30    0.47
   3  -5  -8   34.73    2.48
  -3   5   8   32.94    2.45
   2  -5  -8    0.20    0.30
   2  -5  -8    0.05    0.26
  -2   5   8   -0.27    0.25
   1  -5  -8   19.96    1.54
   1  -5  -8   20.61    1.60
  -1   5   8   20.06    1.57
   0  -5  -8    2.22    0.43
   0  -5  -8    2.47    0.46
   0  -5  -8    1.80    0.38
   0   5   8    2.26    0.45
  -1  -5  -8    3.48    0.51
  -1  -5  -8    3.91    0.52
  -1  -5  -8    3.31    0.49
   1   5   8    3.30    0.51
  -2  -5  -8   -0.38    0.20
  -2  -5  -8   -0.25    0.22
  -2  -5  -8    0.06    0.23
   2   5   8   -0.10    0.24
  -3  -5  -8    1.28    0.31
  -3  -5  -8    0.80    0.27
   3   5   8    1.35    0.34
  -4  -5  -8    1.51    0.32
  -4  -5  -8    2.22    0.33
   7  -6  -8    1.55    0.63
  -7   6   8   -0.29    0.41
   6  -6  -8   -0.40    0.44
  -6   6   8    0.01    0.37
   5  -6  -8    0.79    0.48
  -5   6   8    0.87    0.42
   4  -6  -8    0.65    0.42
  -4   6   8    0.37    0.39
   3  -6  -8    0.07    0.35
  -3   6   8    0.22    0.35
   2  -6  -8    2.31    0.48
   2  -6  -8    1.08    0.41
  -2   6   8    2.76    0.52
   1  -6  -8   -0.63    0.27
   1  -6  -8    0.12    0.29
   0  -6  -8    6.15    0.72
   0  -6  -8    5.65    0.72
  -1  -6  -8    8.75    0.84
  -1  -6  -8    8.75    0.91
  -1  -6  -8    8.12    0.85
  -2  -6  -8    3.04    0.42
  -2  -6  -8    2.57    0.45
  -2  -6  -8    2.30    0.43
   2   6   8    3.17    0.51
  -3  -6  -8    2.29    0.42
  -3  -6  -8    2.78    0.46
   3   6   8    3.28    0.51
   7  -7  -8    0.49    0.60
  -7   7   8    0.79    0.51
   6  -7  -8    1.45    0.59
  -6   7   8    1.34    0.59
   5  -7  -8   21.38    1.84
  -5   7   8   18.46    1.72
   4  -7  -8    0.67    0.50
  -4   7   8    0.74    0.45
   3  -7  -8   -0.17    0.41
  -3   7   8    0.47    0.43
   2  -7  -8   -0.38    0.35
   2  -7  -8   -0.02    0.30
   1  -7  -8   -0.45    0.25
   1  -7  -8   -0.55    0.31
   0  -7  -8   -0.15    0.30
   0  -7  -8    0.35    0.35
  -1  -7  -8    6.91    0.82
  -1  -7  -8    9.00    0.87
  -2  -7  -8   -0.23    0.23
  -2  -7  -8    0.39    0.30
   6  -8  -8    6.00    1.02
  -6   8   8    4.71    0.80
   5  -8  -8    9.68    1.25
  -5   8   8   13.38    1.35
   4  -8  -8    0.51    0.51
  -4   8   8   -0.09    0.40
   3  -8  -8    0.70    0.48
   2  -8  -8    0.25    0.43
   1  -8  -8   -0.19    0.37
   1  -8  -8    0.33    0.36
   0  -8  -8    3.42    0.63
   0  -8  -8    3.76    0.61
  -1  -8  -8    1.57    0.44
  -1  -8  -8    1.84    0.46
   4  -9  -8   -0.17    0.49
  -4   9   8    0.17    0.41
   3  -9  -8    2.38    0.69
   2  -9  -8   -0.12    0.42
   1  -9  -8   -0.09    0.43
  -1  13  -9    0.08    0.42
   1 -13   9    0.38    0.60
  -2  13  -9    0.41    0.40
   2 -13   9   -0.10    0.57
   1  12  -9    2.86    0.70
  -1 -12   9    2.37    0.75
   0  12  -9    3.31    0.73
   0 -12   9    2.50    0.81
  -1  12  -9    0.76    0.47
   1 -12   9    0.49    0.60
  -2  12  -9    1.74    0.57
   2 -12   9    1.06    0.61
  -3  12  -9    1.79    0.61
   3 -12   9    1.40    0.69
  -4  12  -9   14.85    1.42
  -4  12  -9   16.72    1.62
   4 -12   9   18.10    1.81
  -3 -11   9   -0.10    0.60
   2  11  -9    3.27    0.69
  -2 -11   9    3.07    0.84
   1  11  -9   -0.24    0.34
  -1 -11   9    0.18    0.53
   0  11  -9    2.77    0.64
   0 -11   9    1.48    0.62
  -1  11  -9   -0.44    0.31
   1 -11   9    0.22    0.46
  -2  11  -9    1.35    0.49
   2 -11   9    0.60    0.57
  -3  11  -9   -0.16    0.31
  -3  11  -9   -0.19    0.40
   3 -11   9    0.43    0.50
  -4  11  -9   17.46    1.49
  -4  11  -9   18.50    1.65
   4 -11   9   17.34    1.76
  -5  11  -9    1.48    0.57
  -5  11  -9    0.55    0.40
  -4 -10   9    0.71    0.58
   3  10  -9    1.92    0.50
  -3 -10   9    1.12    0.61
   2  10  -9    0.87    0.44
  -2 -10   9    0.75    0.56
   1  10  -9    2.50    0.55
  -1 -10   9    1.70    0.61
   0  10  -9    2.59    0.59
   0 -10   9    1.84    0.68
  -1  10  -9    2.78    0.61
   1 -10   9    3.23    0.76
  -2  10  -9    3.02    0.62
  -2  10  -9    3.90    0.58
   2 -10   9    3.73    0.73
  -3  10  -9    0.19    0.34
  -3  10  -9    0.53    0.42
   3 -10   9   -0.22    0.44
  -4  10  -9    4.66    0.76
  -4  10  -9    2.25    0.58
  -5  10  -9    0.04    0.34
  -5  10  -9    0.69    0.45
  -4  -9   9    3.01    0.75
   3   9  -9   10.22    1.16
  -3  -9   9   11.94    1.36
   2   9  -9    1.12    0.48
  -2  -9   9    1.41    0.49
   1   9  -9    2.19    0.53
  -1  -9   9    2.33    0.66
   0   9  -9   11.18    1.11
   0  -9   9   10.39    1.24
  -1   9  -9    0.28    0.32
   1  -9   9   -0.02    0.42
  -2   9  -9    0.95    0.38
  -2   9  -9    1.08    0.38
   2  -9   9    1.14    0.50
  -3   9  -9    2.03    0.48
  -3   9  -9    3.20    0.54
   3  -9   9    2.44    0.60
  -4   9  -9    0.48    0.38
  -4   9  -9    0.42    0.33
  -5   9  -9    3.41    0.69
  -5   9  -9    4.28    0.70
  -5   9  -9    3.23    0.60
  -6   9  -9   -0.07    0.27
  -6   9  -9    0.95    0.51
  -6   9  -9    1.08    0.40
  -5  -8   9    0.73    0.57
   4   8  -9    5.67    0.79
   3   8  -9    4.73    0.77
  -3  -8   9    6.39    0.97
   2   8  -9   19.07    1.57
  -2  -8   9   17.43    1.65
   1   8  -9   -0.12    0.28
  -1  -8   9    0.21    0.41
   0   8  -9    0.19    0.34
   0  -8   9    0.11    0.37
  -1   8  -9    9.68    0.97
   1  -8   9    8.46    1.00
  -2   8  -9   10.60    0.99
  -2   8  -9   11.40    1.08
  -2   8  -9   11.43    1.08
   2  -8   9   12.59    1.22
  -3   8  -9    5.88    0.78
  -3   8  -9    6.46    0.79
  -3   8  -9    5.41    0.71
   3  -8   9    6.79    0.87
  -4   8  -9   11.93    1.12
  -4   8  -9   14.87    1.21
  -4   8  -9   11.32    1.16
  -5   8  -9    1.74    0.54
  -5   8  -9    1.47    0.42
  -5   8  -9    2.25    0.52
  -6   8  -9    1.77    0.45
  -6   8  -9    2.53    0.67
  -6   8  -9    2.02    0.49
  -6  -7   9    0.38    0.57
  -5  -7   9    0.40    0.50
   4   7  -9    2.18    0.52
  -4  -7   9    2.81    0.68
   3   7  -9    1.85    0.47
  -3  -7   9    1.50    0.56
   2   7  -9    0.10    0.31
  -2  -7   9    0.57    0.39
   1   7  -9   15.34    1.30
  -1  -7   9   13.88    1.34
   0   7  -9    0.42    0.35
   0  -7   9    0.21    0.41
  -1   7  -9    7.46    0.76
  -1   7  -9    7.58    0.84
   1  -7   9    6.23    0.83
  -2   7  -9    2.99    0.52
  -2   7  -9    1.77    0.41
  -2   7  -9    2.34    0.42
   2  -7   9    2.51    0.53
  -3   7  -9    6.67    0.79
  -3   7  -9    8.66    0.81
  -3   7  -9    8.41    0.89
   3  -7   9    7.23    0.87
  -4   7  -9    2.32    0.48
  -4   7  -9    3.18    0.62
  -4   7  -9    2.60    0.50
  -5   7  -9    1.24    0.53
  -5   7  -9    1.90    0.43
  -5   7  -9    2.21    0.47
  -6   7  -9    8.00    1.07
  -6   7  -9   10.05    0.89
  -6   7  -9    7.56    0.87
  -6  -6   9   -0.05    0.48
   5   6  -9   -0.14    0.32
  -5  -6   9   -0.15    0.43
   4   6  -9    5.73    0.75
  -4  -6   9    5.37    0.81
   3   6  -9   -0.07    0.28
  -3  -6   9   -0.12    0.32
   2   6  -9    0.78    0.37
  -2  -6   9    0.33    0.38
   1   6  -9   11.63    1.12
  -1  -6   9   13.54    1.22
   0   6  -9   39.01    2.68
   0   6  -9   39.76    2.75
   0  -6   9   38.65    2.79
  -1   6  -9    1.27    0.35
  -1   6  -9    2.06    0.39
   1  -6   9    1.47    0.44
  -2   6  -9    0.09    0.24
  -2   6  -9    1.03    0.35
  -2   6  -9    0.58    0.31
   2  -6   9    0.50    0.33
  -3   6  -9   26.19    1.92
  -3   6  -9   28.20    1.98
  -3   6  -9   26.03    1.90
   3  -6   9   25.79    1.98
  -4   6  -9    3.99    0.59
  -4   6  -9    5.03    0.64
  -4   6  -9    5.07    0.74
  -5   6  -9    1.80    0.56
  -5   6  -9    1.93    0.40
  -5   6  -9    1.23    0.33
  -6   6  -9    8.17    1.06
  -6   6  -9    6.77    0.73
  -6   6  -9    8.90    0.85
  -7  -5   9    0.71    0.52
  -6  -5   9    0.07    0.48
   5   5  -9   -0.22    0.31
  -5  -5   9   -0.15    0.42
   4   5  -9    4.82    0.71
  -4  -5   9    5.27    0.82
   3   5  -9    1.16    0.39
  -3  -5   9    0.99    0.41
   2   5  -9   10.73    1.00
  -2  -5   9    9.65    1.06
   1   5  -9    0.20    0.24
   1   5  -9    0.62    0.36
  -1  -5   9    0.50    0.43
   0   5  -9    2.31    0.45
   0   5  -9    3.21    0.44
   0  -5   9    4.55    0.60
  -1   5  -9   13.54    1.21
  -1   5  -9   15.28    1.17
   1  -5   9   14.97    1.28
   1  -5   9   15.15    1.21
  -2   5  -9    4.10    0.55
  -2   5  -9    3.43    0.38
  -2   5  -9    3.36    0.53
  -2   5  -9    2.91    0.45
   2  -5   9    3.40    0.58
   2  -5   9    3.98    0.51
  -3   5  -9   13.78    1.20
  -3   5  -9   12.66    1.09
  -3   5  -9   15.99    1.17
  -3   5  -9   13.16    1.11
   3  -5   9   13.21    1.21
   3  -5   9   12.97    1.12
  -4   5  -9    3.00    0.46
  -4   5  -9    2.71    0.58
  -4   5  -9    2.42    0.44
  -4   5  -9    2.21    0.42
   4  -5   9    2.61    0.43
  -5   5  -9    3.63    0.54
  -5   5  -9    5.11    0.58
  -5   5  -9    3.69    0.57
  -5   5  -9    4.95    0.77
  -6   5  -9    0.05    0.25
  -6   5  -9    0.33    0.26
  -6   5  -9    0.42    0.40
  -6   5  -9    0.19    0.20
  -7  -4   9   -0.56    0.36
   6   4  -9   11.43    1.19
  -6  -4   9   12.60    1.32
   5   4  -9   -0.05    0.32
  -5  -4   9    0.29    0.41
   4   4  -9    1.74    0.42
  -4  -4   9    0.63    0.41
   3   4  -9    0.88    0.33
  -3  -4   9    0.68    0.38
   2   4  -9    2.59    0.46
  -2  -4   9    3.57    0.63
   1   4  -9    0.33    0.25
   1   4  -9    0.42    0.24
   1   4  -9    0.07    0.30
  -1  -4   9   -0.25    0.35
   0   4  -9   40.41    2.74
   0   4  -9   38.57    2.72
   0   4  -9   41.80    2.80
   0   4  -9   46.19    2.83
   0  -4   9   39.94    2.83
   0  -4   9   37.57    2.80
  -1   4  -9   59.40    3.66
  -1   4  -9   59.95    3.69
  -1   4  -9   54.64    3.62
  -1   4  -9   45.94    3.66
   1  -4   9   55.61    3.71
   1  -4   9   57.04    3.76
  -2   4  -9   17.87    1.34
  -2   4  -9   18.09    1.38
  -2   4  -9   16.58    1.36
   2  -4   9   17.72    1.43
   2  -4   9   18.88    1.38
  -3   4  -9    2.50    0.41
  -3   4  -9    2.02    0.37
  -3   4  -9    2.17    0.41
   3  -4   9    2.35    0.39
  -4   4  -9   94.38    5.81
  -4   4  -9   88.47    5.82
  -4   4  -9   87.65    5.82
  -4   4  -9   93.84    5.81
   4  -4   9   87.29    5.98
  -5   4  -9    1.21    0.27
  -5   4  -9    1.16    0.50
  -5   4  -9    1.03    0.30
  -5   4  -9    0.92    0.28
   5  -4   9    0.98    0.31
  -6   4  -9    0.76    0.53
  -6   4  -9    0.59    0.26
  -6   4  -9    0.54    0.27
  -7  -3   9    1.30    0.45
   6   3  -9    6.17    0.85
  -6  -3   9    7.11    0.98
   5   3  -9    0.16    0.31
  -5  -3   9   -0.38    0.31
   4   3  -9    0.24    0.28
   4   3  -9   -0.67    0.24
  -4  -3   9    0.07    0.29
   3   3  -9    8.38    0.90
   3   3  -9    8.86    0.82
  -3  -3   9    7.55    0.91
   2   3  -9  117.48    7.86
   2   3  -9  124.48    7.90
   2   3  -9  115.76    7.77
  -2  -3   9  131.56    7.90
   1   3  -9    0.38    0.28
   1   3  -9    0.39    0.23
   1   3  -9    0.29    0.21
  -1  -3   9    0.11    0.17
  -1  -3   9   -0.39    0.25
   0   3  -9    3.68    0.44
   0   3  -9    3.95    0.51
   0   3  -9    2.91    0.46
   0  -3   9    3.77    0.50
   0  -3   9    4.69    0.61
  -1   3  -9    0.57    0.26
  -1   3  -9    0.44    0.16
  -1   3  -9    0.58    0.32
  -1   3  -9    0.23    0.22
   1  -3   9    0.10    0.19
   1  -3   9    0.20    0.27
  -2   3  -9    0.19    0.22
  -2   3  -9    0.07    0.25
  -2   3  -9    0.06    0.22
   2  -3   9    0.15    0.30
   2  -3   9    0.17    0.21
  -3   3  -9   37.74    2.53
  -3   3  -9   37.53    2.55
  -3   3  -9   37.76    2.52
   3  -3   9   36.54    2.58
  -4   3  -9   63.33    3.95
  -4   3  -9   51.74    3.93
  -4   3  -9   66.05    3.94
   4  -3   9   60.70    4.05
  -5   3  -9    3.69    0.50
  -5   3  -9    3.71    0.48
  -5   3  -9    4.80    0.44
  -5   3  -9    3.48    0.70
   5  -3   9    3.67    0.48
  -6   3  -9    1.08    0.29
  -6   3  -9    1.02    0.46
  -6   3  -9    0.45    0.23
   6  -3   9    0.64    0.27
   6   2  -9    7.95    0.99
  -6  -2   9    9.36    0.88
   5   2  -9    2.29    0.51
  -5  -2   9    2.69    0.59
   4   2  -9    1.53    0.38
   4   2  -9    1.86    0.44
  -4  -2   9    1.27    0.48
   3   2  -9    8.97    1.01
   3   2  -9    9.91    0.90
  -3  -2   9   11.38    1.04
   2   2  -9   47.34    3.49
   2   2  -9   58.01    3.64
   2   2  -9   52.62    3.53
   2   2  -9   54.59    3.57
  -2  -2   9   52.49    3.58
   1   2  -9    1.52    0.31
   1   2  -9    1.15    0.32
   1   2  -9    1.36    0.29
  -1  -2   9    1.88    0.37
   0   2  -9   12.85    1.02
   0   2  -9   16.09    1.14
   0   2  -9   13.26    1.08
   0  -2   9   12.56    1.11
   0  -2   9   14.73    1.15
  -1   2  -9    2.45    0.38
  -1   2  -9    2.09    0.37
  -1   2  -9    2.52    0.27
  -1   2  -9    2.59    0.42
   1  -2   9    2.26    0.40
   1  -2   9    2.07    0.35
  -2   2  -9    1.84    0.37
  -2   2  -9    1.40    0.33
  -2   2  -9    1.80    0.33
   2  -2   9    2.56    0.42
   2  -2   9    2.12    0.33
  -3   2  -9   68.30    4.24
  -3   2  -9   58.55    4.21
  -3   2  -9   63.99    4.25
   3  -2   9   70.36    4.37
  -4   2  -9    0.66    0.22
  -4   2  -9    0.63    0.27
  -4   2  -9    0.39    0.22
   4  -2   9    0.85    0.25
  -5   2  -9    1.40    0.30
  -5   2  -9    1.23    0.29
   5  -2   9    1.83    0.32
  -6   2  -9   -0.14    0.18
  -6   2  -9    0.64    0.25
   6  -2   9   -0.11    0.20
   7   1  -9    0.20    0.41
  -7  -1   9   -0.06    0.37
  -7  -1   9   -0.42    0.39
   6   1  -9    0.50    0.40
  -6  -1   9    0.29    0.39
   5   1  -9    6.90    0.81
  -5  -1   9    3.51    0.64
   4   1  -9   -0.02    0.27
  -4  -1   9    0.23    0.32
   3   1  -9    8.65    0.94
   3   1  -9    8.85    0.80
  -3  -1   9    6.01    0.78
   2   1  -9    8.11    0.88
   2   1  -9    7.86    0.72
   2   1  -9    7.03    0.75
  -2  -1   9    8.67    0.84
  -2  -1   9    6.51    0.84
   1   1  -9   29.71    1.99
   1   1  -9   28.34    1.95
   1   1  -9   24.14    1.89
  -1  -1   9   27.31    1.99
  -1  -1   9   28.91    2.00
   0   1  -9   10.98    0.84
   0   1  -9   11.18    0.94
   0   1  -9   11.35    0.95
   0  -1   9   11.42    0.96
  -1   1  -9    0.38    0.22
  -1   1  -9   -0.20    0.18
   1  -1   9    0.31    0.23
   1  -1   9   -0.01    0.19
  -2   1  -9   38.44    2.82
  -2   1  -9   46.13    2.86
   2  -1   9   43.67    2.92
  -3   1  -9   14.67    1.09
  -3   1  -9   15.18    1.09
  -3   1  -9   11.43    1.03
   3  -1   9   14.80    1.10
  -4   1  -9    3.16    0.36
  -4   1  -9    3.52    0.44
  -4   1  -9    2.91    0.42
   4  -1   9    3.18    0.40
  -5   1  -9    0.89    0.25
  -5   1  -9    0.94    0.26
   5  -1   9    1.41    0.27
  -6   1  -9    1.27    0.27
   6  -1   9    1.64    0.30
  -8   0   9   -0.07    0.49
   7   0  -9   -0.22    0.39
  -7   0   9   -0.03    0.38
  -7   0   9    0.64    0.35
   6   0  -9    5.75    0.83
  -6   0   9    5.49    0.84
   5   0  -9    6.69    0.89
  -5   0   9    7.72    0.95
   4   0  -9    0.72    0.35
  -4   0   9    0.53    0.35
   3   0  -9    0.27    0.29
   3   0  -9    0.00    0.33
  -3   0   9    0.55    0.39
   2   0  -9   74.65    4.68
   2   0  -9   73.00    4.75
  -2   0   9   68.12    4.75
   1   0  -9   32.96    2.20
   1   0  -9   32.99    2.22
   1   0  -9   30.01    2.27
  -1   0   9   32.51    2.31
  -1   0   9   32.74    2.29
   0   0  -9    8.50    0.68
   0   0  -9    9.31    0.80
   0   0   9    9.71    0.89
   0   0   9    9.01    0.83
  -1   0  -9   29.31    1.89
  -1   0  -9   27.91    1.91
   1   0   9   24.24    1.94
  -2   0  -9    1.31    0.30
  -2   0  -9    1.10    0.29
   2   0   9    1.32    0.31
  -3   0  -9    0.09    0.18
  -3   0  -9    0.24    0.23
   3   0   9    0.37    0.20
  -4   0  -9    7.25    0.67
   4   0   9    7.48    0.67
  -5   0  -9    4.83    0.54
   5   0   9    6.48    0.57
  -8   1   9    2.71    0.75
  -8   1   9    1.99    0.56
   7  -1  -9    1.25    0.51
  -7   1   9    2.21    0.56
  -7   1   9    1.64    0.57
   6  -1  -9   -0.26    0.36
  -6   1   9   -0.14    0.38
   5  -1  -9    0.38    0.34
  -5   1   9   -0.18    0.31
   4  -1  -9    6.84    0.87
  -4   1   9    8.36    0.96
   3  -1  -9    0.98    0.33
   3  -1  -9    0.78    0.37
  -3   1   9    1.24    0.43
   2  -1  -9    8.43    0.81
   2  -1  -9    8.14    0.87
  -2   1   9    7.40    0.86
   1  -1  -9    3.23    0.49
   1  -1  -9    4.40    0.45
   1  -1  -9    3.31    0.54
  -1   1   9    5.43    0.63
  -1   1   9    4.40    0.60
   0  -1  -9    0.74    0.26
   0  -1  -9    0.46    0.26
   0   1   9    0.33    0.22
  -1  -1  -9   36.18    2.59
  -1  -1  -9   38.28    2.60
   1   1   9   41.30    2.70
  -2  -1  -9    0.30    0.23
  -2  -1  -9    0.21    0.22
   2   1   9   -0.13    0.18
  -3  -1  -9    5.26    0.55
  -3  -1  -9    4.01    0.44
   3   1   9    4.37    0.51
  -4  -1  -9    1.39    0.29
   4   1   9    1.24    0.27
  -5  -1  -9   -0.20    0.18
  -8   2   9    0.11    0.46
  -8   2   9    0.79    0.53
   7  -2  -9    4.70    0.77
  -7   2   9    4.93    0.85
   6  -2  -9   -0.43    0.35
  -6   2   9   -0.26    0.34
   5  -2  -9   17.75    1.58
  -5   2   9   19.19    1.60
   4  -2  -9    8.63    0.99
  -4   2   9    8.44    0.96
   3  -2  -9    0.79    0.41
  -3   2   9    0.82    0.39
   2  -2  -9    9.06    0.93
   2  -2  -9    8.82    0.83
  -2   2   9    8.58    0.90
   1  -2  -9   14.33    1.27
   1  -2  -9   15.68    1.23
  -1   2   9   17.39    1.32
  -1   2   9   16.08    1.28
   0  -2  -9    1.69    0.37
   0  -2  -9    2.88    0.43
   0   2   9    2.35    0.44
   0   2   9    2.33    0.41
  -1  -2  -9    8.70    0.79
  -1  -2  -9    8.59    0.81
   1   2   9    8.84    0.81
  -2  -2  -9    1.48    0.32
  -2  -2  -9    1.48    0.30
   2   2   9    1.23    0.31
  -3  -2  -9    1.62    0.25
  -3  -2  -9    1.63    0.34
   3   2   9    1.70    0.34
  -4  -2  -9    0.42    0.21
   4   2   9    0.35    0.22
  -5  -2  -9    0.97    0.25
   7  -3  -9    2.30    0.62
  -7   3   9    1.84    0.61
   6  -3  -9    0.13    0.36
  -6   3   9   -0.21    0.30
   5  -3  -9    1.65    0.51
  -5   3   9    2.84    0.59
   4  -3  -9    4.49    0.66
  -4   3   9    4.51    0.66
   3  -3  -9    2.02    0.47
  -3   3   9    3.53    0.60
   2  -3  -9    5.40    0.72
   2  -3  -9    7.25    0.73
  -2   3   9    7.56    0.82
   1  -3  -9   12.12    1.05
   1  -3  -9   11.96    1.11
  -1   3   9   12.51    1.09
   0  -3  -9    0.38    0.27
   0  -3  -9   -0.05    0.25
   0   3   9    0.29    0.24
  -1  -3  -9    0.59    0.27
  -1  -3  -9    0.46    0.28
   1   3   9    0.38    0.25
  -2  -3  -9   -0.01    0.20
  -2  -3  -9    0.40    0.25
   2   3   9    0.66    0.26
  -3  -3  -9    3.25    0.45
   3   3   9    3.88    0.50
  -4  -3  -9    0.24    0.21
  -4  -3  -9    0.11    0.21
   4   3   9    0.22    0.25
   7  -4  -9    1.36    0.53
  -7   4   9    1.10    0.50
   6  -4  -9    2.18    0.59
  -6   4   9    2.68    0.64
   5  -4  -9    5.56    0.83
  -5   4   9    4.01    0.69
   4  -4  -9    0.58    0.41
  -4   4   9    0.65    0.40
   3  -4  -9    0.21    0.38
  -3   4   9    0.25    0.36
   2  -4  -9    2.02    0.49
   2  -4  -9    1.58    0.41
  -2   4   9    2.01    0.48
   1  -4  -9   30.39    2.19
   1  -4  -9   33.03    2.16
  -1   4   9   26.58    2.14
   0  -4  -9    5.63    0.68
   0  -4  -9    5.90    0.70
  -1  -4  -9    0.35    0.26
  -1  -4  -9    0.30    0.28
  -2  -4  -9    4.46    0.55
  -2  -4  -9    3.94    0.54
  -2  -4  -9    3.99    0.47
   2   4   9    4.14    0.56
  -3  -4  -9    4.26    0.51
  -3  -4  -9    3.31    0.48
   3   4   9    4.93    0.59
   7  -5  -9   -0.46    0.42
  -7   5   9   -0.04    0.38
   6  -5  -9    2.26    0.66
  -6   5   9    3.70    0.76
   5  -5  -9   -0.13    0.40
  -5   5   9    0.03    0.36
   4  -5  -9    3.39    0.68
  -4   5   9    3.36    0.69
   3  -5  -9    0.35    0.40
  -3   5   9    0.78    0.42
   2  -5  -9    9.43    0.97
   2  -5  -9   10.28    1.08
  -2   5   9    9.20    1.02
   1  -5  -9    1.08    0.38
   1  -5  -9    1.26    0.44
   0  -5  -9    0.05    0.30
   0  -5  -9   -0.19    0.31
  -1  -5  -9    1.76    0.40
  -1  -5  -9    1.16    0.37
  -2  -5  -9    0.97    0.34
  -2  -5  -9    0.39    0.24
  -2  -5  -9    0.99    0.31
   2   5   9    0.99    0.38
  -3  -5  -9    0.81    0.31
  -3  -5  -9    0.95    0.31
   3   5   9    1.78    0.37
   6  -6  -9    1.48    0.61
  -6   6   9    1.79    0.63
   5  -6  -9    0.17    0.46
  -5   6   9    0.06    0.42
   4  -6  -9    3.34    0.72
  -4   6   9    4.04    0.73
   3  -6  -9    7.31    0.99
  -3   6   9    8.04    1.00
   2  -6  -9    4.84    0.76
   1  -6  -9    3.55    0.59
   1  -6  -9    4.51    0.66
   0  -6  -9    3.73    0.57
   0  -6  -9    3.76    0.61
  -1  -6  -9   -0.16    0.27
  -1  -6  -9    0.14    0.28
  -2  -6  -9    0.24    0.29
   6  -7  -9    1.00    0.55
  -6   7   9    0.39    0.53
   5  -7  -9    1.99    0.64
  -5   7   9    2.06    0.64
   4  -7  -9   -0.37    0.44
  -4   7   9    0.35    0.42
   3  -7  -9   11.74    1.32
   2  -7  -9    0.10    0.40
   1  -7  -9    0.54    0.35
   1  -7  -9    0.00    0.37
   0  -7  -9    3.05    0.59
   0  -7  -9    2.84    0.56
  -1  -7  -9   -0.17    0.27
  -1  -7  -9   -0.39    0.31
   4  -8  -9    0.57    0.56
  -4   8   9    0.99    0.54
   3  -8  -9    2.83    0.73
   2  -8  -9    0.31    0.46
   1  -8  -9    0.35    0.43
   0  12 -10    0.45    0.48
   0 -12  10    1.72    0.72
  -1  12 -10    1.96    0.66
   1 -12  10    2.17    0.69
  -2  12 -10    0.62    0.54
   2 -12  10    0.15    0.60
  -3  12 -10    0.84    0.50
   3 -12  10    0.46    0.58
   2  11 -10    2.81    0.65
  -2 -11  10    3.07    0.88
   1  11 -10   -0.40    0.37
  -1 -11  10    0.20    0.57
   0  11 -10    0.30    0.41
   0 -11  10    0.38    0.55
  -1  11 -10    0.41    0.41
   1 -11  10   -0.06    0.56
  -2  11 -10    1.97    0.62
   2 -11  10    2.16    0.72
  -3  11 -10    3.25    0.72
  -3  11 -10    3.26    0.62
   3 -11  10    2.58    0.75
  -4  11 -10    0.60    0.45
  -4  11 -10   -0.14    0.39
   3  10 -10    2.92    0.71
  -3 -10  10    2.92    0.88
   2  10 -10    3.54    0.69
  -2 -10  10    3.72    0.82
   1  10 -10    1.92    0.58
  -1 -10  10    2.16    0.64
   0  10 -10    4.27    0.72
   0 -10  10    4.35    0.88
  -1  10 -10    0.45    0.39
   1 -10  10    0.29    0.51
  -2  10 -10    3.78    0.58
  -2  10 -10    2.53    0.65
   2 -10  10    3.98    0.85
  -3  10 -10   -0.32    0.32
  -3  10 -10   -0.35    0.32
   3 -10  10    0.32    0.41
  -4  10 -10    4.08    0.72
  -4  10 -10    3.81    0.71
  -5  10 -10    0.39    0.50
  -5  10 -10    1.18    0.47
  -4  -9  10    3.17    0.83
   3   9 -10    3.94    0.71
  -3  -9  10    5.02    0.93
   2   9 -10    2.36    0.60
  -2  -9  10    3.87    0.81
   1   9 -10    1.01    0.46
  -1  -9  10    1.19    0.47
   0   9 -10   11.18    1.11
   0  -9  10    8.73    1.11
  -1   9 -10    4.67    0.73
   1  -9  10    2.32    0.66
  -2   9 -10   -0.29    0.30
   2  -9  10    0.11    0.48
  -3   9 -10    0.10    0.36
  -3   9 -10    0.23    0.35
   3  -9  10    0.03    0.41
  -4   9 -10    2.63    0.61
  -4   9 -10    2.60    0.60
  -5   9 -10   -0.53    0.29
  -5   9 -10   -0.02    0.43
  -5  -8  10   -0.12    0.55
   4   8 -10   -0.36    0.37
  -4  -8  10   -0.30    0.50
   3   8 -10    2.12    0.52
  -3  -8  10    3.83    0.80
   2   8 -10    3.34    0.64
  -2  -8  10    4.57    0.81
   1   8 -10    0.01    0.33
  -1  -8  10   -0.04    0.43
   0   8 -10    1.95    0.51
   0  -8  10    1.04    0.50
  -1   8 -10    4.99    0.73
   1  -8  10    3.87    0.76
  -2   8 -10   -0.16    0.28
   2  -8  10   -0.26    0.37
  -3   8 -10   -0.01    0.30
  -3   8 -10    0.15    0.28
  -3   8 -10   -0.02    0.33
   3  -8  10    0.40    0.42
  -4   8 -10    2.79    0.62
  -4   8 -10    2.92    0.58
  -4   8 -10    2.98    0.55
  -5   8 -10    1.26    0.36
  -5   8 -10    1.48    0.58
  -5   8 -10    0.13    0.28
  -5  -7  10    4.29    0.84
   4   7 -10    0.78    0.46
  -4  -7  10    1.01    0.57
   3   7 -10    1.06    0.43
  -3  -7  10    2.25    0.57
   2   7 -10    0.29    0.34
  -2  -7  10    0.65    0.46
   1   7 -10    0.24    0.33
  -1  -7  10   -0.38    0.37
   0   7 -10   13.31    1.23
   0  -7  10   12.03    1.26
  -1   7 -10   22.84    1.73
   1  -7  10   19.86    1.76
  -2   7 -10    1.34    0.41
  -2   7 -10    0.85    0.34
   2  -7  10    1.17    0.51
  -3   7 -10    2.12    0.52
  -3   7 -10    1.17    0.37
  -3   7 -10    1.49    0.43
  -4   7 -10    3.32    0.57
  -4   7 -10    3.68    0.56
  -4   7 -10    3.00    0.64
  -5   7 -10    0.39    0.32
  -5   7 -10    0.31    0.29
  -5   7 -10    0.20    0.45
  -6   7 -10    4.37    0.80
  -6   7 -10    4.44    0.68
  -6   7 -10    4.29    0.62
  -6  -6  10    3.39    0.87
   5   6 -10    1.38    0.51
  -5  -6  10    0.90    0.54
   4   6 -10    3.44    0.66
  -4  -6  10    3.20    0.71
   3   6 -10   10.30    1.04
  -3  -6  10    7.91    1.05
   2   6 -10    0.60    0.31
  -2  -6  10    0.76    0.42
   1   6 -10    0.07    0.33
  -1  -6  10    0.88    0.44
   0   6 -10   15.92    1.37
   0  -6  10   15.45    1.42
  -1   6 -10   28.21    2.05
  -1   6 -10   31.09    2.14
   1  -6  10   26.07    2.14
  -2   6 -10    3.00    0.49
  -2   6 -10    3.46    0.57
   2  -6  10    2.09    0.53
  -3   6 -10    4.14    0.58
  -3   6 -10    4.88    0.63
  -4   6 -10   11.28    0.99
  -4   6 -10    9.36    0.96
  -4   6 -10   10.74    1.13
  -5   6 -10    2.93    0.52
  -5   6 -10    3.75    0.56
  -5   6 -10    3.45    0.75
  -6   6 -10    1.92    0.45
  -6   6 -10    1.97    0.41
  -6   6 -10    1.74    0.62
  -6  -5  10    8.74    1.25
   5   5 -10    0.07    0.29
  -5  -5  10   -0.03    0.44
   4   5 -10    5.34    0.72
  -4  -5  10    5.04    0.84
   3   5 -10    0.31    0.29
  -3  -5  10    0.45    0.42
   2   5 -10    0.78    0.35
  -2  -5  10    1.29    0.47
   1   5 -10    5.64    0.74
  -1  -5  10    6.22    0.81
   0   5 -10   18.48    1.48
   0   5 -10   20.19    1.57
   0  -5  10   19.35    1.60
  -1   5 -10    8.77    0.90
  -1   5 -10    7.78    0.81
   1  -5  10    9.76    1.01
  -2   5 -10    1.37    0.40
  -2   5 -10    0.84    0.32
   2  -5  10    1.17    0.43
  -3   5 -10    0.08    0.25
  -3   5 -10    0.21    0.26
  -4   5 -10    9.85    0.91
  -4   5 -10    9.29    0.91
  -4   5 -10   11.17    1.13
  -5   5 -10    3.25    0.52
  -5   5 -10    4.29    0.77
  -5   5 -10    4.23    0.54
  -6   5 -10   -0.07    0.41
  -6   5 -10    0.18    0.26
  -6   5 -10    0.75    0.27
   6   4 -10    0.25    0.43
  -6  -4  10    0.12    0.49
   5   4 -10    7.93    0.98
  -5  -4  10    8.80    1.10
   4   4 -10    6.36    0.87
  -4  -4  10    9.03    1.05
   3   4 -10    0.01    0.28
  -3  -4  10   -0.10    0.33
   2   4 -10   41.62    2.95
  -2  -4  10   43.03    3.00
   1   4 -10    5.01    0.66
   1   4 -10    4.57    0.59
  -1  -4  10    4.95    0.70
   0   4 -10   11.08    0.96
   0   4 -10   11.17    1.02
   0  -4  10    9.02    1.06
  -1   4 -10    0.45    0.23
  -1   4 -10    0.21    0.27
   1  -4  10    0.93    0.36
  -2   4 -10   19.95    1.56
  -2   4 -10   20.45    1.53
   2  -4  10   20.17    1.56
   2  -4  10   20.69    1.61
  -3   4 -10    0.31    0.27
  -3   4 -10    0.61    0.29
  -3   4 -10    0.57    0.28
   3  -4  10    0.71    0.29
  -4   4 -10    7.84    0.75
  -4   4 -10    7.88    0.78
  -4   4 -10    7.62    0.81
   4  -4  10    7.17    0.77
  -5   4 -10    1.90    0.39
  -5   4 -10    1.70    0.32
  -5   4 -10    1.32    0.34
   5  -4  10    1.09    0.36
  -6   4 -10    5.10    0.62
  -6   4 -10    4.04    0.56
  -7  -3  10    0.74    0.43
   6   3 -10    0.41    0.40
  -6  -3  10   -0.50    0.42
   5   3 -10    7.41    0.93
  -5  -3  10   10.15    1.15
   4   3 -10    5.33    0.72
  -4  -3  10    3.83    0.63
   3   3 -10    0.19    0.29
  -3  -3  10    0.16    0.33
   2   3 -10   87.40    6.17
  -2  -3  10  102.67    6.24
   1   3 -10   -0.12    0.21
   1   3 -10   -0.11    0.25
  -1  -3  10    0.09    0.35
   0   3 -10    0.38    0.31
   0   3 -10    0.78    0.32
   0  -3  10    0.78    0.36
  -1   3 -10    0.42    0.25
  -1   3 -10    0.63    0.30
  -1   3 -10    1.47    0.41
   1  -3  10    0.90    0.30
   1  -3  10    1.30    0.38
  -2   3 -10    2.06    0.41
  -2   3 -10    1.60    0.34
  -2   3 -10    1.33    0.38
   2  -3  10    1.56    0.35
  -3   3 -10    4.37    0.56
  -3   3 -10    3.98    0.54
   3  -3  10    4.90    0.57
  -4   3 -10    5.48    0.62
  -4   3 -10    3.51    0.55
  -4   3 -10    5.85    0.59
   4  -3  10    6.12    0.65
  -5   3 -10    0.78    0.29
  -5   3 -10    1.33    0.25
  -5   3 -10    1.12    0.31
   5  -3  10    0.97    0.32
  -6   3 -10    1.69    0.36
  -6   3 -10    1.86    0.38
   6  -3  10    2.59    0.43
   6   2 -10   -0.06    0.34
   5   2 -10    4.20    0.67
  -5  -2  10    3.40    0.67
   4   2 -10    6.84    0.84
  -4  -2  10    6.19    0.88
   3   2 -10   15.61    1.28
  -3  -2  10   12.84    1.28
   2   2 -10   25.13    1.89
   2   2 -10   24.40    1.90
   1   2 -10   -0.25    0.24
   1   2 -10    0.28    0.25
  -1  -2  10   -0.05    0.33
   0   2 -10    5.90    0.66
   0   2 -10    5.14    0.65
   0  -2  10    4.88    0.61
   0  -2  10    3.61    0.57
  -1   2 -10    1.66    0.36
  -1   2 -10    1.69    0.37
   1  -2  10    1.68    0.39
   1  -2  10    1.02    0.30
  -2   2 -10   -0.11    0.19
  -2   2 -10    0.08    0.23
  -2   2 -10    0.26    0.28
   2  -2  10   -0.11    0.21
  -3   2 -10    3.91    0.52
  -3   2 -10    4.21    0.56
  -3   2 -10    3.79    0.51
   3  -2  10    3.91    0.52
  -4   2 -10   21.02    1.45
  -4   2 -10   18.11    1.36
  -4   2 -10   18.57    1.43
   4  -2  10   19.63    1.47
  -5   2 -10    1.49    0.33
  -5   2 -10    1.71    0.36
   5  -2  10    2.44    0.37
   7   1 -10    3.64    0.68
  -7  -1  10    3.09    0.69
   6   1 -10    0.25    0.40
  -6  -1  10    0.24    0.39
   5   1 -10   10.39    1.14
  -5  -1  10   10.42    1.22
   4   1 -10   13.88    1.30
  -4  -1  10   13.13    1.30
   3   1 -10   30.59    2.30
  -3  -1  10   30.77    2.32
   2   1 -10    0.20    0.35
   2   1 -10    0.44    0.29
  -2  -1  10    0.21    0.33
   1   1 -10    0.87    0.29
   1   1 -10    0.89    0.32
  -1  -1  10    1.47    0.45
   0   1 -10   13.28    1.13
   0   1 -10   12.33    1.10
   0  -1  10   14.44    1.15
  -1   1 -10   -0.06    0.21
  -1   1 -10   -0.23    0.21
   1  -1  10   -0.13    0.19
   1  -1  10   -0.25    0.26
  -2   1 -10    0.05    0.20
  -2   1 -10    0.07    0.22
   2  -1  10    0.09    0.22
  -3   1 -10    7.85    0.74
  -3   1 -10    7.19    0.69
   3  -1  10    6.79    0.72
  -4   1 -10   19.89    1.48
  -4   1 -10   20.60    1.39
   4  -1  10   20.04    1.51
  -5   1 -10    0.26    0.23
   5  -1  10    0.24    0.24
   7   0 -10    2.99    0.65
  -7   0  10    2.86    0.63
  -7   0  10    2.48    0.66
   6   0 -10    7.62    0.96
  -6   0  10    6.18    0.89
   5   0 -10    0.42    0.40
  -5   0  10   -0.41    0.35
   4   0 -10   47.86    3.51
  -4   0  10   53.90    3.58
   3   0 -10    0.11    0.41
  -3   0  10   -0.29    0.34
   2   0 -10    4.24    0.68
   2   0 -10    4.61    0.60
  -2   0  10    5.67    0.76
   1   0 -10    0.27    0.33
   1   0 -10    0.45    0.28
  -1   0  10    0.88    0.36
   0   0 -10   18.00    1.44
   0   0 -10   18.37    1.42
   0   0  10   17.89    1.47
   0   0  10   20.93    1.50
  -1   0 -10    2.06    0.41
  -1   0 -10    2.64    0.42
   1   0  10    2.81    0.44
  -2   0 -10   11.57    0.91
  -2   0 -10    9.86    0.92
   2   0  10   10.45    0.94
  -3   0 -10   15.15    1.15
  -3   0 -10   15.95    1.21
   3   0  10   15.51    1.24
  -4   0 -10    5.79    0.65
   4   0  10    6.44    0.67
  -5   0 -10    0.30    0.20
   5   0  10    0.05    0.22
   7  -1 -10    2.63    0.65
  -7   1  10    2.55    0.67
   6  -1 -10    1.28    0.49
  -6   1  10    2.50    0.68
   5  -1 -10   14.49    1.36
  -5   1  10   12.84    1.35
   4  -1 -10    0.12    0.38
  -4   1  10    0.10    0.38
   3  -1 -10    4.79    0.69
  -3   1  10    4.50    0.69
   2  -1 -10    1.86    0.46
   2  -1 -10    1.37    0.39
  -2   1  10    2.17    0.52
   1  -1 -10    0.28    0.29
   1  -1 -10    0.00    0.30
  -1   1  10    0.16    0.30
   0  -1 -10    1.04    0.32
   0  -1 -10    0.75    0.31
   0   1  10    0.68    0.27
   0   1  10    0.27    0.27
  -1  -1 -10    1.79    0.39
  -1  -1 -10    2.36    0.41
   1   1  10    2.10    0.39
  -2  -1 -10    0.07    0.22
  -2  -1 -10   -0.14    0.20
   2   1  10    0.06    0.24
  -3  -1 -10    1.58    0.34
  -3  -1 -10    1.33    0.28
   3   1  10    1.13    0.31
  -4  -1 -10    0.70    0.28
   4   1  10    0.45    0.24
   7  -2 -10    2.27    0.63
  -7   2  10    2.75    0.74
   6  -2 -10    2.54    0.60
  -6   2  10    3.31    0.74
   5  -2 -10    3.48    0.64
  -5   2  10    2.67    0.58
   4  -2 -10   -0.15    0.37
  -4   2  10    0.02    0.34
   3  -2 -10    0.56    0.42
  -3   2  10    0.24    0.37
   2  -2 -10    3.92    0.64
   2  -2 -10    4.06    0.60
  -2   2  10    3.87    0.66
   1  -2 -10    0.52    0.33
   1  -2 -10    0.08    0.27
  -1   2  10    0.26    0.32
   0  -2 -10    0.37    0.30
   0  -2 -10    0.46    0.30
  -1  -2 -10    8.09    0.78
  -1  -2 -10    7.03    0.78
   1   2  10    8.53    0.83
  -2  -2 -10   -0.15    0.21
  -2  -2 -10    0.15    0.24
   2   2  10   -0.04    0.22
  -3  -2 -10    0.27    0.26
   3   2  10    0.30    0.26
  -4  -2 -10    1.39    0.33
   4   2  10    1.50    0.34
   7  -3 -10    0.15    0.46
  -7   3  10    1.46    0.62
   6  -3 -10    0.51    0.43
  -6   3  10    0.61    0.50
   5  -3 -10    2.64    0.65
  -5   3  10    1.59    0.48
   4  -3 -10    0.31    0.40
  -4   3  10    0.20    0.39
   3  -3 -10    4.97    0.78
  -3   3  10    2.99    0.59
   2  -3 -10   -0.11    0.33
   2  -3 -10   -0.14    0.27
  -2   3  10   -0.24    0.31
   1  -3 -10   11.99    1.06
   1  -3 -10   11.79    1.12
   0  -3 -10    0.24    0.31
   0  -3 -10    0.56    0.30
  -1  -3 -10   16.35    1.31
  -1  -3 -10   16.61    1.31
  -2  -3 -10    0.69    0.31
  -2  -3 -10    0.43    0.27
   2   3  10    0.75    0.32
  -3  -3 -10    0.23    0.26
   3   3  10    0.21    0.29
   6  -4 -10    0.38    0.42
  -6   4  10    0.49    0.49
   5  -4 -10    2.36    0.66
  -5   4  10    2.33    0.62
   4  -4 -10    1.47    0.54
  -4   4  10    2.88    0.65
   3  -4 -10    0.85    0.47
  -3   4  10    0.34    0.39
   2  -4 -10    7.54    0.91
   2  -4 -10    5.44    0.80
  -2   4  10    5.77    0.77
   1  -4 -10    3.65    0.57
   1  -4 -10    4.72    0.68
   0  -4 -10   25.17    1.91
   0  -4 -10   26.76    1.93
  -1  -4 -10    2.07    0.44
  -1  -4 -10    1.44    0.37
  -2  -4 -10    1.75    0.35
  -2  -4 -10    1.28    0.36
  -2  -4 -10    1.46    0.37
  -3  -4 -10    0.31    0.26
  -3  -4 -10   -0.04    0.22
   6  -5 -10   -0.78    0.39
  -6   5  10    0.25    0.35
   5  -5 -10    0.06    0.48
  -5   5  10    0.41    0.50
   4  -5 -10    1.27    0.56
  -4   5  10    0.91    0.50
   3  -5 -10    0.07    0.43
  -3   5  10    0.00    0.40
   2  -5 -10    3.24    0.63
   1  -5 -10    0.15    0.38
   1  -5 -10    0.40    0.34
   0  -5 -10   -0.05    0.32
   0  -5 -10    0.48    0.31
  -1  -5 -10    0.10    0.29
  -1  -5 -10    0.29    0.32
  -2  -5 -10   -0.16    0.27
   5  -6 -10    1.28    0.62
  -5   6  10    0.21    0.44
   4  -6 -10    0.00    0.47
  -4   6  10    0.58    0.45
   3  -6 -10    4.70    0.83
   2  -6 -10    1.48    0.55
   1  -6 -10    0.26    0.38
   1  -6 -10    0.96    0.43
   0  -6 -10    0.06    0.34
   0  -6 -10   -0.03    0.35
  -1  -6 -10    0.21    0.31
   4  -7 -10    0.07    0.49
   3  -7 -10    3.08    0.73
   2  -7 -10   -0.81    0.39
   1  -7 -10    0.83    0.42
   1  11 -11   -0.18    0.41
  -1 -11  11    0.78    0.67
   0  11 -11    0.20    0.43
   0 -11  11    0.41    0.67
  -1  11 -11    0.23    0.47
   1 -11  11    0.04    0.54
  -2  11 -11    4.84    0.91
   2 -11  11    5.61    0.95
  -3  11 -11    1.37    0.61
   2  10 -11    4.89    0.80
  -2 -10  11    3.04    0.79
   1  10 -11    0.82    0.47
  -1 -10  11    0.98    0.64
   0  10 -11    0.24    0.40
   0 -10  11    0.13    0.58
  -1  10 -11    1.99    0.56
   1 -10  11    0.75    0.63
  -2  10 -11    5.67    0.85
   2 -10  11    7.59    1.11
  -3  10 -11   -0.30    0.40
  -3  10 -11   -0.17    0.36
  -4  10 -11   12.38    1.32
  -4  10 -11   10.54    1.23
   3   9 -11    4.90    0.86
  -3  -9  11    3.40    0.83
   2   9 -11    1.19    0.48
  -2  -9  11    1.57    0.64
   1   9 -11    1.23    0.51
  -1  -9  11    0.96    0.57
   0   9 -11   -0.19    0.34
   0  -9  11    0.61    0.50
  -1   9 -11    4.08    0.72
   1  -9  11    3.53    0.73
  -2   9 -11    6.06    0.88
   2  -9  11    6.25    0.98
  -3   9 -11    1.06    0.46
  -4   9 -11   10.46    1.17
  -4   9 -11    9.94    1.16
   4   8 -11    0.72    0.48
  -4  -8  11    2.41    0.78
   3   8 -11    0.13    0.40
  -3  -8  11    0.86    0.53
   2   8 -11    0.09    0.35
  -2  -8  11    0.60    0.54
   1   8 -11    0.93    0.44
  -1  -8  11    1.02    0.55
   0   8 -11    0.14    0.38
   0  -8  11   -0.06    0.41
  -1   8 -11    1.63    0.51
   1  -8  11    2.16    0.60
  -2   8 -11    5.29    0.77
   2  -8  11    3.79    0.76
  -3   8 -11    0.24    0.31
  -4   8 -11    0.22    0.32
  -4   8 -11    0.67    0.40
  -4   8 -11    0.84    0.49
  -5   8 -11   -0.27    0.27
  -5   8 -11    0.46    0.37
  -5   8 -11   -0.11    0.44
   5   7 -11    2.53    0.67
  -5  -7  11    2.79    0.83
   4   7 -11    0.27    0.42
  -4  -7  11    1.35    0.68
   3   7 -11    0.73    0.45
  -3  -7  11    0.69    0.57
   2   7 -11    0.15    0.30
  -2  -7  11   -0.28    0.41
   1   7 -11    5.69    0.78
  -1  -7  11    5.61    0.85
   0   7 -11   -0.01    0.31
   0  -7  11   -0.14    0.39
  -1   7 -11    2.35    0.54
   1  -7  11    1.51    0.57
  -2   7 -11    1.70    0.47
   2  -7  11    1.92    0.57
  -3   7 -11    0.57    0.35
  -3   7 -11    0.79    0.36
  -4   7 -11    0.61    0.34
  -4   7 -11    0.50    0.32
  -5   7 -11   -0.18    0.39
  -5   7 -11    0.56    0.33
  -5   7 -11   -0.09    0.24
   5   6 -11    3.68    0.71
  -5  -6  11    3.56    0.82
   4   6 -11    0.29    0.41
  -4  -6  11    0.21    0.53
   3   6 -11    6.59    0.87
  -3  -6  11    9.30    1.14
   2   6 -11    4.96    0.79
  -2  -6  11    5.42    0.81
   1   6 -11    0.73    0.38
  -1  -6  11    0.69    0.42
   0   6 -11    1.97    0.52
   0  -6  11    1.72    0.54
  -1   6 -11   20.73    1.72
   1  -6  11   22.01    1.77
  -2   6 -11   19.73    1.64
  -2   6 -11   21.68    1.62
   2  -6  11   20.78    1.83
  -3   6 -11    0.11    0.27
  -3   6 -11   -0.36    0.22
  -4   6 -11    0.54    0.32
  -4   6 -11   -0.17    0.27
  -5   6 -11    0.16    0.26
  -5   6 -11   -0.17    0.27
  -6  -5  11   -0.86    0.52
   5   5 -11    2.05    0.55
  -5  -5  11    2.91    0.73
   4   5 -11   -0.14    0.32
  -4  -5  11    0.54    0.49
   3   5 -11    0.28    0.37
  -3  -5  11   -0.01    0.41
   2   5 -11    1.53    0.46
  -2  -5  11    1.83    0.54
   1   5 -11    2.68    0.54
  -1  -5  11    3.95    0.67
   0   5 -11    4.01    0.63
   0  -5  11    4.31    0.69
  -1   5 -11    0.23    0.26
  -1   5 -11    0.28    0.31
   1  -5  11    0.20    0.37
  -2   5 -11    4.18    0.61
  -2   5 -11    4.46    0.65
  -3   5 -11    0.01    0.24
  -3   5 -11    0.25    0.24
  -4   5 -11    0.70    0.33
  -4   5 -11    1.09    0.35
  -5   5 -11    1.82    0.43
  -5   5 -11    2.19    0.41
   6   4 -11   -0.16    0.43
  -6  -4  11   -0.34    0.52
   5   4 -11    0.33    0.42
  -5  -4  11    1.25    0.55
   4   4 -11   -0.41    0.31
  -4  -4  11   -0.16    0.40
   3   4 -11    1.33    0.43
  -3  -4  11    2.87    0.66
  -2  -4  11    5.45    0.81
   1   4 -11   19.79    1.60
  -1  -4  11   19.97    1.68
   0   4 -11   15.55    1.25
   0   4 -11   15.82    1.33
   0  -4  11   13.40    1.32
  -1   4 -11    5.34    0.72
  -1   4 -11    6.68    0.77
   1  -4  11    7.64    0.84
  -2   4 -11    4.25    0.60
  -2   4 -11    3.15    0.57
  -3   4 -11    4.75    0.63
  -3   4 -11    4.49    0.64
  -4   4 -11   -0.05    0.24
  -4   4 -11   -0.05    0.24
  -5   4 -11   -0.13    0.23
  -5   4 -11    0.57    0.21
   6   3 -11    1.64    0.56
  -6  -3  11    2.96    0.74
   5   3 -11    1.98    0.54
  -5  -3  11    3.34    0.69
   4   3 -11    0.01    0.33
  -4  -3  11    1.10    0.50
   3   3 -11    0.24    0.35
  -3  -3  11    0.27    0.38
   2   3 -11    4.20    0.65
  -2  -3  11    3.73    0.63
   1   3 -11    0.23    0.31
  -1  -3  11   -0.28    0.34
   0   3 -11   25.76    1.87
   0   3 -11   26.80    1.91
   0  -3  11   23.21    1.92
  -1   3 -11    0.30    0.25
  -1   3 -11    0.33    0.26
   1  -3  11   -0.18    0.27
  -2   3 -11    2.56    0.47
  -2   3 -11    2.64    0.47
  -3   3 -11    6.97    0.76
  -3   3 -11    6.17    0.70
  -4   3 -11    0.43    0.27
  -4   3 -11    0.43    0.31
  -4   3 -11    0.86    0.36
  -5   3 -11    3.70    0.53
  -5   3 -11    4.66    0.61
   6   2 -11    2.36    0.59
   5   2 -11    3.94    0.68
   4   2 -11    0.08    0.32
   3   2 -11    2.54    0.55
   2   2 -11   14.56    1.33
   1   2 -11    1.62    0.42
   1   2 -11    2.68    0.51
  -1  -2  11    2.88    0.58
   0   2 -11    5.22    0.71
   0   2 -11    5.57    0.67
   0  -2  11    8.08    0.87
  -1   2 -11    4.05    0.56
  -1   2 -11    4.14    0.56
  -2   2 -11   -0.15    0.24
  -2   2 -11    0.05    0.21
  -3   2 -11    3.53    0.49
  -3   2 -11    2.97    0.49
   3  -2  11    3.05    0.49
  -4   2 -11   31.52    2.14
  -4   2 -11   31.39    2.21
   4  -2  11   31.57    2.28
  -5   2 -11    2.84    0.46
   5  -2  11    3.08    0.46
   6   1 -11    2.43    0.59
  -6  -1  11    1.17    0.57
   5   1 -11    2.31    0.59
  -5  -1  11    2.84    0.61
   4   1 -11   10.44    1.14
  -4  -1  11    9.04    1.11
   3   1 -11    0.41    0.37
  -3  -1  11   -0.05    0.38
   2   1 -11   95.47    6.05
  -2  -1  11   88.02    6.05
   1   1 -11    6.11    0.80
   1   1 -11    7.53    0.79
   0   1 -11    0.22    0.27
   0   1 -11    0.23    0.29
   0  -1  11    0.26    0.40
  -1   1 -11    1.31    0.37
  -1   1 -11    1.29    0.36
  -2   1 -11   -0.02    0.25
  -2   1 -11   -0.16    0.24
  -3   1 -11    3.00    0.47
  -3   1 -11    3.28    0.45
   3  -1  11    2.36    0.45
  -4   1 -11   27.45    2.06
   4  -1  11   30.69    2.13
   6   0 -11    1.89    0.59
  -6   0  11    2.13    0.63
   5   0 -11    6.01    0.83
  -5   0  11    4.79    0.82
   4   0 -11   11.14    1.16
  -4   0  11    7.46    1.03
   3   0 -11    8.23    0.97
  -3   0  11    5.67    0.83
   2   0 -11   27.75    2.21
  -2   0  11   29.23    2.21
   1   0 -11    1.30    0.42
   1   0 -11    0.84    0.35
  -1   0  11    0.59    0.39
   0   0 -11    0.40    0.31
   0   0 -11    0.60    0.34
  -1   0 -11    2.12    0.40
  -1   0 -11    1.51    0.36
  -2   0 -11    3.68    0.54
  -2   0 -11    4.23    0.55
   2   0  11    4.07    0.62
  -3   0 -11   16.63    1.23
  -3   0 -11   16.76    1.30
   3   0  11   15.30    1.32
  -4   0 -11   -0.19    0.26
   4   0  11    0.39    0.30
   6  -1 -11    0.92    0.48
  -6   1  11   -0.10    0.42
   5  -1 -11   -0.20    0.40
  -5   1  11   -0.19    0.41
   4  -1 -11    0.62    0.40
  -4   1  11    0.69    0.40
   3  -1 -11    5.32    0.82
  -3   1  11   10.16    1.05
   2  -1 -11   12.70    1.26
  -2   1  11   12.57    1.25
   1  -1 -11    2.99    0.53
   1  -1 -11    2.55    0.56
  -1   1  11    2.64    0.49
   0  -1 -11   -0.38    0.25
   0  -1 -11    0.20    0.28
  -1  -1 -11   -0.09    0.23
  -1  -1 -11    0.40    0.28
  -2  -1 -11    5.36    0.66
  -2  -1 -11    5.33    0.62
  -3  -1 -11    2.77    0.50
  -3  -1 -11    2.36    0.39
   3   1  11    2.83    0.50
   6  -2 -11    0.86    0.53
  -6   2  11    2.44    0.70
   5  -2 -11    0.75    0.50
  -5   2  11    0.84    0.51
   4  -2 -11    2.30    0.57
  -4   2  11    3.48    0.68
   3  -2 -11   -0.23    0.38
  -3   2  11   -0.40    0.33
   2  -2 -11    6.96    0.89
  -2   2  11    9.53    1.07
   1  -2 -11    8.70    0.92
   1  -2 -11    8.86    0.99
   0  -2 -11    0.65    0.34
   0  -2 -11    0.21    0.29
  -1  -2 -11    0.77    0.33
  -1  -2 -11    0.92    0.34
  -2  -2 -11   10.03    0.94
  -2  -2 -11    9.50    0.87
  -3  -2 -11    0.73    0.31
   6  -3 -11    2.15    0.59
  -6   3  11    1.39    0.53
   5  -3 -11    5.40    0.86
  -5   3  11    2.90    0.64
   4  -3 -11    2.63    0.64
  -4   3  11    3.09    0.66
   3  -3 -11    1.08    0.48
  -3   3  11    1.02    0.46
   2  -3 -11    1.69    0.52
  -2   3  11    2.15    0.57
   1  -3 -11    0.21    0.34
   1  -3 -11    1.08    0.42
   0  -3 -11   -0.19    0.30
   0  -3 -11   -0.08    0.29
  -1  -3 -11    3.81    0.57
  -1  -3 -11    3.40    0.51
  -2  -3 -11    1.41    0.34
  -2  -3 -11    1.25    0.39
   5  -4 -11    5.74    0.95
  -5   4  11    5.35    0.91
   4  -4 -11    5.31    0.91
  -4   4  11    3.65    0.76
   3  -4 -11   -0.45    0.39
  -3   4  11    0.38    0.45
   2  -4 -11   -0.24    0.40
   1  -4 -11    6.11    0.80
   1  -4 -11    6.26    0.79
   0  -4 -11    2.92    0.55
   0  -4 -11    2.82    0.53
  -1  -4 -11    1.98    0.47
  -1  -4 -11    2.12    0.45
   5  -5 -11    0.80    0.48
  -5   5  11    0.15    0.48
   4  -5 -11    0.14    0.40
  -4   5  11   -0.03    0.39
   3  -5 -11    0.01    0.48
   2  -5 -11    1.90    0.56
   1  -5 -11    0.27    0.34
   0  -5 -11    0.16    0.34
   0  -5 -11    0.36    0.37
   3  -6 -11    0.52    0.51
   2  -6 -11    0.75    0.55
   1  10 -12    7.01    1.02
  -1 -10  12    6.76    1.08
   0  10 -12    0.76    0.47
   0 -10  12    0.47    0.59
  -1  10 -12    1.05    0.57
   1 -10  12    0.18    0.59
  -2  10 -12    1.81    0.60
   2 -10  12    2.14    0.74
   2   9 -12    4.40    0.78
  -2  -9  12    5.20    0.96
   1   9 -12    0.23    0.44
  -1  -9  12    0.35    0.61
   0   9 -12    0.89    0.48
   0  -9  12    1.03    0.53
  -1   9 -12    1.03    0.48
   1  -9  12    0.71    0.60
  -2   9 -12   -0.16    0.35
  -3   9 -12   -0.38    0.38
   3   8 -12    0.45    0.47
  -3  -8  12    0.22    0.59
   2   8 -12    0.99    0.53
  -2  -8  12    1.66    0.65
   1   8 -12    1.40    0.51
  -1  -8  12    0.77    0.54
   0   8 -12   -0.40    0.33
   0  -8  12    0.14    0.52
  -1   8 -12    2.39    0.61
   1  -8  12    1.75    0.49
  -2   8 -12    0.02    0.38
  -3   8 -12    0.61    0.44
  -4   8 -12    9.78    1.10
   4   7 -12   -0.30    0.41
  -4  -7  12    0.51    0.64
   3   7 -12    1.27    0.59
  -3  -7  12    1.47    0.67
   2   7 -12    0.52    0.37
  -2  -7  12   -0.36    0.42
   1   7 -12    0.74    0.41
  -1  -7  12   -0.15    0.45
   0   7 -12    3.81    0.73
   0  -7  12    3.03    0.72
  -1   7 -12   -0.03    0.39
   1  -7  12    0.72    0.52
  -2   7 -12    0.91    0.42
  -3   7 -12   -0.11    0.31
  -4   7 -12    9.85    1.06
  -4   7 -12   11.22    1.12
   4   6 -12   -0.08    0.43
  -4  -6  12   -0.36    0.49
   3   6 -12    0.89    0.48
  -3  -6  12    1.00    0.57
   2   6 -12    3.15    0.61
  -2  -6  12    3.77    0.73
   1   6 -12   -0.27    0.33
  -1  -6  12    0.38    0.42
   0   6 -12    0.14    0.37
   0  -6  12   -0.06    0.38
  -1   6 -12    2.78    0.61
   1  -6  12    2.55    0.63
  -2   6 -12   14.84    1.30
  -2   6 -12   13.86    1.31
  -3   6 -12    1.81    0.48
  -3   6 -12    1.93    0.47
  -4   6 -12    0.03    0.31
  -4   6 -12   -0.12    0.28
   5   5 -12   15.06    1.55
  -5  -5  12   17.13    1.78
   4   5 -12    0.88    0.47
  -4  -5  12    1.70    0.63
   3   5 -12    0.86    0.47
  -3  -5  12    1.20    0.57
   2   5 -12    0.43    0.38
  -2  -5  12    0.26    0.44
   1   5 -12    0.57    0.39
  -1  -5  12    0.42    0.43
   0   5 -12    1.17    0.46
   0  -5  12    3.16    0.60
  -1   5 -12   34.74    2.55
  -2   5 -12    0.48    0.32
  -2   5 -12    0.47    0.33
  -3   5 -12   -0.01    0.26
  -3   5 -12    0.02    0.27
  -4   5 -12    0.44    0.32
  -4   5 -12    0.70    0.32
   5   4 -12    3.32    0.70
  -5  -4  12    4.64    0.83
   4   4 -12    0.50    0.44
  -4  -4  12    0.24    0.51
   3   4 -12   -0.11    0.32
  -3  -4  12    0.37    0.45
   2   4 -12    0.47    0.35
  -2  -4  12    0.35    0.39
   1   4 -12    1.15    0.43
  -1  -4  12    1.26    0.50
   0   4 -12    1.71    0.48
   0  -4  12    2.16    0.54
  -1   4 -12    0.06    0.26
  -1   4 -12    0.08    0.30
  -2   4 -12    0.28    0.28
  -2   4 -12    0.10    0.30
  -3   4 -12    0.81    0.33
  -3   4 -12    0.67    0.34
  -4   4 -12    1.27    0.39
  -4   4 -12    1.39    0.38
   5   3 -12    0.16    0.41
  -5  -3  12    0.55    0.54
   4   3 -12    2.71    0.59
  -4  -3  12    4.82    0.82
   3   3 -12    1.02    0.45
  -3  -3  12    1.80    0.57
   2   3 -12    0.24    0.36
  -2  -3  12    0.55    0.42
   1   3 -12    4.75    0.73
  -1  -3  12    5.33    0.81
   0   3 -12   -0.07    0.27
   0   3 -12    0.05    0.34
   0  -3  12   -0.17    0.39
  -1   3 -12   -0.27    0.27
  -1   3 -12    0.38    0.33
  -2   3 -12    0.18    0.28
  -2   3 -12    0.16    0.28
  -3   3 -12    1.14    0.38
  -3   3 -12    1.56    0.39
  -4   3 -12    0.60    0.34
  -4   3 -12    1.56    0.35
   6   2 -12   -0.43    0.43
   5   2 -12    2.28    0.60
   4   2 -12   10.65    1.18
   3   2 -12    0.23    0.35
   2   2 -12    0.64    0.38
  -2  -2  12    0.84    0.45
   1   2 -12   13.30    1.25
  -1  -2  12   13.10    1.27
   0   2 -12    6.66    0.82
   0   2 -12    6.32    0.79
  -1   2 -12    0.54    0.32
  -1   2 -12    0.00    0.28
  -2   2 -12    1.16    0.35
  -2   2 -12    0.91    0.35
  -3   2 -12   -0.19    0.24
  -3   2 -12    0.10    0.30
  -4   2 -12    0.94    0.31
   6   1 -12   -0.16    0.46
  -6  -1  12   -0.37    0.43
   5   1 -12    7.80    1.03
  -5  -1  12    9.03    1.15
   4   1 -12    0.16    0.42
  -4  -1  12    0.30    0.44
   3   1 -12    0.74    0.44
  -3  -1  12    0.54    0.48
   2   1 -12   28.73    2.20
   1   1 -12    3.09    0.57
   0   1 -12    2.12    0.50
   0   1 -12    2.79    0.54
  -1   1 -12    0.69    0.33
  -2   1 -12    0.31    0.30
  -2   1 -12    0.33    0.26
  -3   1 -12    1.43    0.36
  -3   1 -12    1.68    0.40
   6   0 -12    0.20    0.49
  -6   0  12   -0.38    0.46
   5   0 -12    0.69    0.53
  -5   0  12    0.09    0.50
   4   0 -12   -0.50    0.38
  -4   0  12    0.56    0.48
   3   0 -12    0.75    0.49
  -3   0  12    1.39    0.55
   2   0 -12    2.53    0.60
  -2   0  12    2.65    0.60
   1   0 -12    0.69    0.39
   0   0 -12    1.94    0.43
   0   0 -12    1.07    0.39
  -1   0 -12    0.89    0.35
  -1   0 -12    0.58    0.28
  -2   0 -12    0.33    0.28
  -2   0 -12    0.51    0.28
  -3   0 -12    0.32    0.31
  -3   0 -12    0.65    0.26
   5  -1 -12   -0.58    0.41
  -5   1  12   -0.01    0.39
   4  -1 -12    1.02    0.53
  -4   1  12    0.62    0.41
   3  -1 -12    2.62    0.64
  -3   1  12    4.61    0.81
   2  -1 -12    6.68    0.91
  -2   1  12    6.07    0.88
   1  -1 -12    0.22    0.37
   0  -1 -12    1.86    0.47
   0  -1 -12    1.87    0.47
  -1  -1 -12    0.05    0.29
  -1  -1 -12   -0.04    0.30
  -2  -1 -12    0.00    0.26
  -2  -1 -12    0.21    0.28
   5  -2 -12    1.20    0.59
  -5   2  12    1.16    0.55
   4  -2 -12    4.66    0.80
  -4   2  12    5.70    0.96
   3  -2 -12    0.27    0.44
  -3   2  12   -0.05    0.38
   2  -2 -12    5.24    0.80
   1  -2 -12    0.60    0.44
   0  -2 -12    9.60    1.00
   0  -2 -12   10.02    1.02
  -1  -2 -12    0.76    0.37
  -1  -2 -12    1.23    0.38
  -2  -2 -12    1.73    0.45
  -2  -2 -12    0.96    0.35
   5  -3 -12   -0.16    0.45
  -5   3  12    0.86    0.47
   4  -3 -12   -0.06    0.49
  -4   3  12    0.07    0.40
   3  -3 -12    0.41    0.46
  -3   3  12    0.85    0.48
   2  -3 -12    0.23    0.45
   1  -3 -12    1.81    0.52
   0  -3 -12    0.10    0.33
   0  -3 -12    0.73    0.36
  -1  -3 -12    1.35    0.41
  -1  -3 -12    1.51    0.45
   4  -4 -12    0.64    0.43
  -4   4  12    0.72    0.55
   3  -4 -12    0.87    0.54
   2  -4 -12    1.00    0.51
   1  -4 -12    2.78    0.62
  -1  -9  13    2.27    0.83
   0   9 -13   -0.15    0.44
   0  -9  13    1.27    0.50
  -1   9 -13    1.07    0.53
   1  -9  13   -0.69    0.54
   2   8 -13    1.05    0.53
  -2  -8  13    1.30    0.71
   1   8 -13    4.06    0.82
  -1  -8  13    5.23    0.96
   0   8 -13    0.09    0.43
   0  -8  13   -0.76    0.47
  -1   8 -13    0.38    0.46
  -2   8 -13    3.70    0.73
   3   7 -13    0.62    0.54
  -3  -7  13    1.38    0.74
   2   7 -13    5.19    0.86
  -2  -7  13    6.24    1.01
  -1  -7  13    2.67    0.71
   0   7 -13   -0.01    0.41
   0  -7  13    0.15    0.52
  -1   7 -13    4.76    0.81
  -2   7 -13    2.32    0.58
  -3   7 -13   -0.35    0.32
   3   6 -13    2.13    0.63
  -3  -6  13    0.54    0.63
   2   6 -13    0.53    0.43
  -2  -6  13    0.51    0.53
   1   6 -13    1.72    0.56
  -1  -6  13    2.55    0.71
   0   6 -13    0.12    0.41
   0  -6  13   -0.10    0.46
  -1   6 -13   -0.24    0.37
  -2   6 -13    0.50    0.39
  -3   6 -13    1.66    0.47
   4   5 -13    2.05    0.59
  -4  -5  13    2.17    0.73
   3   5 -13    2.42    0.60
  -3  -5  13    2.52    0.79
   2   5 -13    0.60    0.42
  -2  -5  13    0.39    0.43
   1   5 -13    1.94    0.51
  -1  -5  13    2.42    0.65
   0   5 -13    0.54    0.40
   0  -5  13    1.15    0.51
  -1   5 -13    0.06    0.34
  -2   5 -13    0.59    0.39
  -3   5 -13    2.58    0.54
  -3   5 -13    3.15    0.56
   4   4 -13    0.60    0.45
  -4  -4  13    0.46    0.62
   3   4 -13    2.45    0.59
  -3  -4  13    3.53    0.74
   2   4 -13   -0.17    0.34
  -2  -4  13    0.53    0.46
   1   4 -13   -0.27    0.34
  -1  -4  13    0.32    0.49
   0   4 -13    0.17    0.35
  -1   4 -13    4.44    0.70
  -2   4 -13    0.15    0.30
  -2   4 -13   -0.01    0.32
  -3   4 -13    0.73    0.37
  -3   4 -13    0.89    0.37
   4   3 -13   -0.51    0.37
  -4  -3  13    0.06    0.40
   3   3 -13    4.21    0.75
  -3  -3  13    4.08    0.70
   2   3 -13   -0.24    0.34
  -2  -3  13    0.01    0.44
   1   3 -13    2.65    0.60
  -1  -3  13    2.86    0.66
   0   3 -13    0.26    0.37
  -1   3 -13   21.17    1.65
  -1   3 -13   18.37    1.58
  -2   3 -13    2.25    0.50
  -2   3 -13    1.98    0.47
  -3   3 -13   -0.01    0.26
  -3   3 -13    0.20    0.30
   5   2 -13    5.60    0.91
  -5  -2  13    4.60    0.99
   4   2 -13    2.72    0.66
  -4  -2  13    2.57    0.82
   3   2 -13    3.87    0.74
  -3  -2  13    4.61    0.82
   2   2 -13    0.74    0.43
  -2  -2  13    1.04    0.55
   1   2 -13    0.75    0.43
   0   2 -13    1.58    0.52
  -1   2 -13   11.17    1.06
  -1   2 -13    8.37    0.99
  -2   2 -13    0.19    0.31
  -2   2 -13   -0.17    0.30
  -5  -1  13    2.13    0.61
   4   1 -13    1.67    0.53
  -4  -1  13    1.16    0.49
   3   1 -13    1.03    0.50
   2   1 -13    0.28    0.40
   1   1 -13    3.67    0.66
   0   1 -13    7.04    0.86
  -1   1 -13    0.91    0.41
  -1   1 -13    1.54    0.44
  -2   1 -13    0.60    0.30
  -2   1 -13    0.33    0.31
   4   0 -13    0.64    0.55
  -4   0  13    0.21    0.48
   3   0 -13    0.64    0.48
  -3   0  13    0.68    0.54
   2   0 -13    0.91    0.47
   1   0 -13    4.91    0.77
   0   0 -13   -0.02    0.35
   0   0 -13    0.57    0.36
  -1   0 -13    0.28    0.34
  -1   0 -13    0.21    0.35
   4  -1 -13    0.54    0.53
  -4   1  13    1.15    0.49
   3  -1 -13    0.61    0.53
  -3   1  13    0.80    0.50
   2  -1 -13   28.41    2.27
   1  -1 -13    0.29    0.41
   0  -1 -13    0.02    0.33
   0  -1 -13    0.06    0.35
  -1  -1 -13    1.06    0.40
  -1  -1 -13    1.54    0.40
   3  -2 -13    2.27    0.67
   2  -2 -13    7.74    1.02
   1  -2 -13    0.17    0.42
  -2  -6  14    0.42    0.58
   1   6 -14    5.12    0.85
  -1  -6  14    6.36    1.02
   0   6 -14    1.18    0.54
  -1   6 -14   -0.45    0.37
   2   5 -14    1.69    0.62
  -2  -5  14    3.22    0.73
   1   5 -14    0.97    0.48
  -1  -5  14    0.15    0.52
   0   5 -14    0.11    0.36
  -1   5 -14    0.58    0.41
   3   4 -14   -0.19    0.42
  -3  -4  14    0.22    0.51
   2   4 -14   -0.03    0.43
  -2  -4  14   -0.36    0.52
   1   4 -14    1.15    0.51
   0   4 -14    0.68    0.45
  -1   4 -14    0.91    0.48
   3   3 -14    1.25    0.60
  -3  -3  14    1.17    0.62
   2   3 -14    1.57    0.52
  -2  -3  14    0.45    0.54
   1   3 -14    3.93    0.72
   0   3 -14    1.37    0.50
  -1   3 -14    2.30    0.50
   3   2 -14    2.46    0.65
  -3  -2  14    2.93    0.76
   2   2 -14    1.36    0.55
   1   2 -14    0.65    0.44
   0   2 -14    1.29    0.51
   2   1 -14    0.13    0.38
   1   1 -14    2.39    0.60
   0   0   0    0.00    0.00
;
_shelx_hkl_checksum              11505
_shelx_res_file
;
    red.res created by SHELXL-2014/7
TITL RED in P-1
CELL 0.71073 7.4119 10.9633 11.0697 105.124 95.633 104.398
ZERR 2 0.0024 0.004 0.0039 0.018 0.018 0.017
LATT 1
SFAC C H Cl N O
UNIT 40 32 2 2 4
L.S. 10
PLAN  10
TEMP 25(2)
HTAB
BOND $H
CONF
MORE -1
fmap 2
acta
OMIT 0 50
REM <olex2.extras>
REM <HklSrc "%.\\RED.hkl">
REM </olex2.extras>
WGHT    0.058800    0.166700
FVAR       0.50558
CL1   3   -0.149991    0.549457    0.244039    11.00000    0.04475    0.07446 =
         0.06243    0.02007    0.00931    0.02061
O1    5    0.385440    0.453960    0.342407    11.00000    0.06653    0.05832 =
         0.05785    0.01989    0.00598    0.03563
O2    5    0.588755    0.713959    0.458867    11.00000    0.04655    0.07277 =
         0.07084    0.02447    0.01263    0.01402
N1    4    0.039831    0.665008    0.100970    11.00000    0.04331    0.05263 =
         0.04727    0.00913    0.00204    0.02465
C1    1    0.683130    0.836828   -0.119841    11.00000    0.06755    0.07696 =
         0.07447    0.02557    0.02034    0.02180
AFIX 137
H1A   2    0.789981    0.813864   -0.085931    11.00000   -1.50000
H1B   2    0.713578    0.930837   -0.102029    11.00000   -1.50000
H1C   2    0.652032    0.796066   -0.210095    11.00000   -1.50000
AFIX   0
C2    1    0.516556    0.789327   -0.059402    11.00000    0.05413    0.05390 =
         0.04794    0.00984    0.00652    0.01853
C3    1    0.522551    0.713314    0.019564    11.00000    0.04381    0.05709 =
         0.04699    0.00723    0.00165    0.02244
AFIX  43
H3    2    0.632212    0.689510    0.036474    11.00000   -1.20000
AFIX   0
C4    1    0.365669    0.669629    0.076575    11.00000    0.04327    0.04561 =
         0.03908    0.00464   -0.00012    0.01916
C5    1    0.367000    0.593743    0.160963    11.00000    0.04519    0.05096 =
         0.04455    0.00948   -0.00156    0.02529
AFIX  43
H5    2    0.474807    0.569034    0.180921    11.00000   -1.20000
AFIX   0
C6    1    0.211921    0.555908    0.213943    11.00000    0.04431    0.04257 =
         0.04015    0.00494   -0.00026    0.01809
C7    1    0.209414    0.477924    0.305243    11.00000    0.05095    0.04276 =
         0.05367    0.01255    0.00459    0.01893
AFIX  13
H7    2    0.094841    0.405169    0.293150    11.00000   -1.20000
AFIX   0
C8    1    0.316352    0.537922    0.436192    11.00000    0.05121    0.05145 =
         0.04865    0.02148    0.00906    0.02149
AFIX  13
H8    2    0.264377    0.500914    0.501225    11.00000   -1.20000
AFIX   0
C9    1    0.428999    0.680906    0.480295    11.00000    0.04521    0.05402 =
         0.04003    0.02074    0.00143    0.01351
C10   1    0.334472    0.776425    0.545843    11.00000    0.04717    0.04789 =
         0.03687    0.01715    0.00371    0.00854
C11   1    0.141924    0.740001    0.549871    11.00000    0.04669    0.04737 =
         0.05576    0.00826    0.00433    0.00568
AFIX  43
H11   2    0.071707    0.652027    0.516079    11.00000   -1.20000
AFIX   0
C12   1    0.054175    0.832612    0.603265    11.00000    0.04784    0.05851 =
         0.06119    0.00776    0.00697    0.01312
AFIX  43
H12   2   -0.074876    0.806427    0.604332    11.00000   -1.20000
AFIX   0
C13   1    0.154540    0.963490    0.655149    11.00000    0.07288    0.05451 =
         0.04566    0.01411    0.00930    0.02260
C14   1    0.057654    1.065544    0.710064    11.00000    0.10437    0.07116 =
         0.08875    0.01243    0.02149    0.03980
AFIX 137
H14A  2   -0.070738    1.038597    0.666440    11.00000   -1.50000
H14B  2    0.123139    1.148639    0.699998    11.00000   -1.50000
H14C  2    0.058793    1.074459    0.798764    11.00000   -1.50000
AFIX   0
C15   1    0.347426    0.823443   -0.084812    11.00000    0.06758    0.06223 =
         0.05645    0.02361    0.00721    0.02823
AFIX  43
H15   2    0.341477    0.875307   -0.138671    11.00000   -1.20000
AFIX   0
C16   1    0.194204    0.782420   -0.032635    11.00000    0.05662    0.06259 =
         0.05864    0.02151    0.00473    0.03309
AFIX  43
H16   2    0.085203    0.806227   -0.051559    11.00000   -1.20000
AFIX   0
C17   1    0.197617    0.704819    0.049240    11.00000    0.04549    0.04659 =
         0.04071    0.00510   -0.00056    0.02256
C18   1    0.051765    0.596018    0.177941    11.00000    0.04112    0.04392 =
         0.04068    0.00353    0.00056    0.01615
C19   1    0.347568    0.999289    0.653017    11.00000    0.07729    0.04186 =
         0.05850    0.01420    0.01288    0.00352
AFIX  43
H19   2    0.418084    1.086972    0.688768    11.00000   -1.20000
AFIX   0
C20   1    0.436013    0.907876    0.599247    11.00000    0.05497    0.05277 =
         0.05123    0.01927    0.01090    0.00272
AFIX  43
H20   2    0.565172    0.934287    0.598606    11.00000   -1.20000
AFIX   0
HKLF 4
REM  RED in P-1
REM R1 =  0.0422 for    2411 Fo > 4sig(Fo)  and  0.0511 for all    2880 data
REM    219 parameters refined using      0 restraints
END
WGHT      0.0588      0.1667
REM No hydrogen bonds found for HTAB generation
REM Highest difference peak  0.226,  deepest hole -0.178,  1-sigma level  0.049
Q1    1  -0.0804  1.0333  0.7544  11.00000  0.05    0.23
Q2    1   0.7710  0.9045 -0.0635  11.00000  0.05    0.21
Q3    1  -0.0366  0.5884  0.2148  11.00000  0.05    0.20
Q4    1   0.2408  0.7677  0.5291  11.00000  0.05    0.19
Q5    1   0.5986  0.8243 -0.1023  11.00000  0.05    0.18
Q6    1   0.4413  0.8047 -0.0674  11.00000  0.05    0.18
Q7    1   0.3749  0.8424  0.5394  11.00000  0.05    0.18
Q8    1   0.3824  0.8149  0.5844  11.00000  0.05    0.17
Q9    1   0.1574  1.1579  0.7860  11.00000  0.05    0.17
Q10   1   0.6619  0.9043 -0.1812  11.00000  0.05    0.16
;
_shelx_res_checksum              94987
loop_
_space_group_symop_operation_xyz
'x, y, z'
'-x, -y, -z'
loop_
_atom_site_type_symbol
_atom_site_label
_atom_site_fract_x
_atom_site_fract_y
_atom_site_fract_z
_atom_site_U_iso_or_equiv
_atom_site_adp_type
_atom_site_calc_flag
_atom_site_occupancy
Cl Cl1 -0.14999(6) 0.54946(5) 0.24404(5) 0.0599(2) Uani d 1
O O1 0.38544(19) 0.45396(13) 0.34241(13) 0.0574(4) Uani d 1
O O2 0.58876(19) 0.71396(15) 0.45887(14) 0.0631(4) Uani d 1
N N1 0.0398(2) 0.66501(15) 0.10097(14) 0.0472(4) Uani d 1
C C1 0.6831(3) 0.8368(3) -0.1198(2) 0.0716(6) Uani d 1
H H1A 0.7900 0.8139 -0.0859 0.107 Uiso calc 1
H H1B 0.7136 0.9308 -0.1020 0.107 Uiso calc 1
H H1C 0.6520 0.7961 -0.2101 0.107 Uiso calc 1
C C2 0.5166(3) 0.7893(2) -0.05940(18) 0.0526(5) Uani d 1
C C3 0.5226(3) 0.7133(2) 0.01956(18) 0.0499(5) Uani d 1
H H3 0.6322 0.6895 0.0365 0.060 Uiso calc 1
C C4 0.3657(2) 0.66963(18) 0.07658(16) 0.0435(4) Uani d 1
C C5 0.3670(3) 0.59374(18) 0.16096(17) 0.0463(5) Uani d 1
H H5 0.4748 0.5690 0.1809 0.056 Uiso calc 1
C C6 0.2119(2) 0.55591(17) 0.21394(16) 0.0433(4) Uani d 1
C C7 0.2094(3) 0.47792(18) 0.30524(18) 0.0488(5) Uani d 1
H H7 0.0948 0.4052 0.2931 0.059 Uiso calc 1
C C8 0.3164(3) 0.53792(19) 0.43619(18) 0.0478(4) Uani d 1
H H8 0.2644 0.5009 0.5012 0.057 Uiso calc 1
C C9 0.4290(2) 0.68091(19) 0.48030(16) 0.0456(4) Uani d 1
C C10 0.3345(2) 0.77642(18) 0.54584(16) 0.0443(4) Uani d 1
C C11 0.1419(3) 0.7400(2) 0.54987(19) 0.0531(5) Uani d 1
H H11 0.0717 0.6520 0.5161 0.064 Uiso calc 1
C C12 0.0542(3) 0.8326(2) 0.6033(2) 0.0584(5) Uani d 1
H H12 -0.0749 0.8064 0.6043 0.070 Uiso calc 1
C C13 0.1545(3) 0.9635(2) 0.65515(19) 0.0571(5) Uani d 1
C C14 0.0577(4) 1.0655(3) 0.7101(3) 0.0872(8) Uani d 1
H H14A -0.0707 1.0386 0.6664 0.131 Uiso calc 1
H H14B 0.1231 1.1486 0.7000 0.131 Uiso calc 1
H H14C 0.0588 1.0745 0.7988 0.131 Uiso calc 1
C C15 0.3474(3) 0.8234(2) -0.0848(2) 0.0593(5) Uani d 1
H H15 0.3415 0.8753 -0.1387 0.071 Uiso calc 1
C C16 0.1942(3) 0.7824(2) -0.0326(2) 0.0559(5) Uani d 1
H H16 0.0852 0.8062 -0.0516 0.067 Uiso calc 1
C C17 0.1976(2) 0.70482(18) 0.04924(16) 0.0446(4) Uani d 1
C C18 0.0518(2) 0.59602(18) 0.17794(17) 0.0434(4) Uani d 1
C C19 0.3476(3) 0.9993(2) 0.6530(2) 0.0618(6) Uani d 1
H H19 0.4181 1.0870 0.6888 0.074 Uiso calc 1
C C20 0.4360(3) 0.9079(2) 0.59925(18) 0.0545(5) Uani d 1
H H20 0.5652 0.9343 0.5986 0.065 Uiso calc 1
loop_
_atom_site_aniso_label
_atom_site_aniso_U_11
_atom_site_aniso_U_22
_atom_site_aniso_U_33
_atom_site_aniso_U_12
_atom_site_aniso_U_13
_atom_site_aniso_U_23
Cl1 0.0448(3) 0.0745(4) 0.0624(4) 0.0206(2) 0.0093(2) 0.0201(3)
O1 0.0665(9) 0.0583(8) 0.0578(8) 0.0356(7) 0.0060(7) 0.0199(7)
O2 0.0465(8) 0.0728(10) 0.0708(10) 0.0140(7) 0.0126(7) 0.0245(8)
N1 0.0433(8) 0.0526(9) 0.0473(9) 0.0246(7) 0.0020(7) 0.0091(7)
C1 0.0675(14) 0.0770(16) 0.0745(16) 0.0218(12) 0.0203(12) 0.0256(13)
C2 0.0541(11) 0.0539(11) 0.0479(11) 0.0185(9) 0.0065(9) 0.0098(9)
C3 0.0438(10) 0.0571(12) 0.0470(11) 0.0224(9) 0.0017(8) 0.0072(9)
C4 0.0433(9) 0.0456(10) 0.0391(9) 0.0192(8) -0.0001(7) 0.0046(8)
C5 0.0452(10) 0.0510(11) 0.0445(10) 0.0253(8) -0.0016(8) 0.0095(8)
C6 0.0443(9) 0.0426(10) 0.0402(9) 0.0181(8) -0.0003(7) 0.0049(8)
C7 0.0509(10) 0.0428(10) 0.0537(11) 0.0189(8) 0.0046(9) 0.0126(9)
C8 0.0512(10) 0.0514(11) 0.0486(10) 0.0215(8) 0.0091(8) 0.0215(9)
C9 0.0452(10) 0.0540(11) 0.0400(10) 0.0135(8) 0.0014(8) 0.0207(8)
C10 0.0472(10) 0.0479(10) 0.0369(9) 0.0085(8) 0.0037(7) 0.0172(8)
C11 0.0467(10) 0.0474(11) 0.0558(11) 0.0057(8) 0.0043(9) 0.0083(9)
C12 0.0478(11) 0.0585(12) 0.0612(12) 0.0131(9) 0.0070(9) 0.0078(10)
C13 0.0729(13) 0.0545(12) 0.0457(11) 0.0226(10) 0.0093(10) 0.0141(9)
C14 0.104(2) 0.0712(16) 0.0887(19) 0.0398(15) 0.0215(16) 0.0124(14)
C15 0.0676(13) 0.0622(13) 0.0564(12) 0.0282(11) 0.0072(10) 0.0236(10)
C16 0.0566(11) 0.0626(13) 0.0586(12) 0.0331(10) 0.0047(9) 0.0215(10)
C17 0.0455(10) 0.0466(10) 0.0407(10) 0.0226(8) -0.0006(8) 0.0051(8)
C18 0.0411(9) 0.0439(10) 0.0407(9) 0.0162(8) 0.0006(7) 0.0035(8)
C19 0.0773(15) 0.0419(11) 0.0585(13) 0.0035(10) 0.0129(11) 0.0142(9)
C20 0.0550(11) 0.0528(12) 0.0512(11) 0.0027(9) 0.0109(9) 0.0193(9)
loop_
_atom_type_symbol
_atom_type_description
_atom_type_scat_dispersion_real
_atom_type_scat_dispersion_imag
_atom_type_scat_source
C C 0.0033 0.0016 'International Tables Vol C Tables 4.2.6.8 and 6.1.1.4'
H H 0.0000 0.0000 'International Tables Vol C Tables 4.2.6.8 and 6.1.1.4'
Cl Cl 0.1484 0.1585 'International Tables Vol C Tables 4.2.6.8 and 6.1.1.4'
N N 0.0061 0.0033 'International Tables Vol C Tables 4.2.6.8 and 6.1.1.4'
O O 0.0106 0.0060 'International Tables Vol C Tables 4.2.6.8 and 6.1.1.4'
loop_
_geom_angle_atom_site_label_1
_geom_angle_atom_site_label_2
_geom_angle_atom_site_label_3
_geom_angle
C8 O1 C7 62.16(12)
C18 N1 C17 117.07(15)
H1A C1 H1B 109.5
H1A C1 H1C 109.5
H1B C1 H1C 109.5
C2 C1 H1A 109.5
C2 C1 H1B 109.5
C2 C1 H1C 109.5
C3 C2 C1 121.85(19)
C3 C2 C15 118.32(19)
C15 C2 C1 119.8(2)
C2 C3 H3 119.2
C2 C3 C4 121.51(17)
C4 C3 H3 119.2
C3 C4 C17 119.07(17)
C5 C4 C3 123.48(16)
C5 C4 C17 117.45(17)
C4 C5 H5 119.6
C6 C5 C4 120.71(16)
C6 C5 H5 119.6
C5 C6 C7 122.20(16)
C5 C6 C18 116.50(17)
C18 C6 C7 121.30(17)
O1 C7 C6 115.74(16)
O1 C7 H7 116.2
O1 C7 C8 58.52(12)
C6 C7 H7 116.2
C8 C7 C6 121.17(16)
C8 C7 H7 116.2
O1 C8 C7 59.32(12)
O1 C8 H8 116.4
O1 C8 C9 115.69(16)
C7 C8 H8 116.4
C7 C8 C9 120.34(16)
C9 C8 H8 116.4
O2 C9 C8 120.14(17)
O2 C9 C10 122.79(17)
C10 C9 C8 117.05(16)
C11 C10 C9 121.83(16)
C20 C10 C9 119.83(17)
C20 C10 C11 118.24(18)
C10 C11 H11 119.6
C12 C11 C10 120.79(18)
C12 C11 H11 119.6
C11 C12 H12 119.5
C11 C12 C13 121.02(19)
C13 C12 H12 119.5
C12 C13 C14 121.1(2)
C12 C13 C19 118.09(19)
C19 C13 C14 120.8(2)
C13 C14 H14A 109.5
C13 C14 H14B 109.5
C13 C14 H14C 109.5
H14A C14 H14B 109.5
H14A C14 H14C 109.5
H14B C14 H14C 109.5
C2 C15 H15 119.2
C16 C15 C2 121.7(2)
C16 C15 H15 119.2
C15 C16 H16 119.5
C15 C16 C17 120.95(18)
C17 C16 H16 119.5
N1 C17 C4 121.97(17)
N1 C17 C16 119.55(16)
C16 C17 C4 118.47(18)
N1 C18 Cl1 115.87(13)
N1 C18 C6 126.28(18)
C6 C18 Cl1 117.85(15)
C13 C19 H19 119.3
C20 C19 C13 121.31(19)
C20 C19 H19 119.3
C10 C20 H20 119.7
C19 C20 C10 120.54(19)
C19 C20 H20 119.7
loop_
_geom_bond_atom_site_label_1
_geom_bond_atom_site_label_2
_geom_bond_distance
Cl1 C18 1.750(2)
O1 C7 1.436(2)
O1 C8 1.424(2)
O2 C9 1.215(2)
N1 C17 1.376(2)
N1 C18 1.289(2)
C1 H1A 0.9600
C1 H1B 0.9600
C1 H1C 0.9600
C1 C2 1.506(3)
C2 C3 1.361(3)
C2 C15 1.417(3)
C3 H3 0.9300
C3 C4 1.416(3)
C4 C5 1.405(3)
C4 C17 1.420(2)
C5 H5 0.9300
C5 C6 1.364(3)
C6 C7 1.483(3)
C6 C18 1.421(2)
C7 H7 0.9800
C7 C8 1.476(3)
C8 H8 0.9800
C8 C9 1.504(3)
C9 C10 1.477(3)
C10 C11 1.392(3)
C10 C20 1.386(3)
C11 H11 0.9300
C11 C12 1.376(3)
C12 H12 0.9300
C12 C13 1.377(3)
C13 C14 1.506(3)
C13 C19 1.391(3)
C14 H14A 0.9600
C14 H14B 0.9600
C14 H14C 0.9600
C15 H15 0.9300
C15 C16 1.355(3)
C16 H16 0.9300
C16 C17 1.398(3)
C19 H19 0.9300
C19 C20 1.371(3)
C20 H20 0.9300
loop_
_geom_hbond_atom_site_label_D
_geom_hbond_atom_site_label_H
_geom_hbond_atom_site_label_A
_geom_hbond_site_symmetry_A
_geom_hbond_distance_DH
_geom_hbond_distance_HA
_geom_hbond_distance_DA
_geom_hbond_angle_DHA
_geom_hbond_publ_flag
C5 H5 Cl1 1_655 0.93 2.87 3.788(2) 168 yes
C12 H12 O2 1_455 0.93 2.63 3.426(3) 144 yes
loop_
_geom_torsion_atom_site_label_1
_geom_torsion_atom_site_label_2
_geom_torsion_atom_site_label_3
_geom_torsion_atom_site_label_4
_geom_torsion
O1 C7 C8 C9 103.70(19)
O1 C8 C9 O2 -16.3(2)
O1 C8 C9 C10 161.95(14)
O2 C9 C10 C11 168.50(18)
O2 C9 C10 C20 -7.9(3)
C1 C2 C3 C4 179.65(18)
C1 C2 C15 C16 179.8(2)
C2 C3 C4 C5 -178.43(17)
C2 C3 C4 C17 0.8(3)
C2 C15 C16 C17 0.3(3)
C3 C2 C15 C16 0.0(3)
C3 C4 C5 C6 179.25(16)
C3 C4 C17 N1 179.65(16)
C3 C4 C17 C16 -0.4(3)
C4 C5 C6 C7 -178.83(16)
C4 C5 C6 C18 0.7(3)
C5 C4 C17 N1 -1.1(3)
C5 C4 C17 C16 178.81(16)
C5 C6 C7 O1 4.9(2)
C5 C6 C7 C8 72.2(2)
C5 C6 C18 Cl1 -179.95(13)
C5 C6 C18 N1 -0.4(3)
C6 C7 C8 O1 -102.98(19)
C6 C7 C8 C9 0.7(3)
C7 O1 C8 C9 -111.49(18)
C7 C6 C18 Cl1 -0.4(2)
C7 C6 C18 N1 179.09(17)
C7 C8 C9 O2 -84.3(2)
C7 C8 C9 C10 93.9(2)
C8 O1 C7 C6 112.25(18)
C8 C9 C10 C11 -9.7(2)
C8 C9 C10 C20 173.97(16)
C9 C10 C11 C12 -175.15(17)
C9 C10 C20 C19 175.67(17)
C10 C11 C12 C13 -0.6(3)
C11 C10 C20 C19 -0.8(3)
C11 C12 C13 C14 178.1(2)
C11 C12 C13 C19 -0.5(3)
C12 C13 C19 C20 1.0(3)
C13 C19 C20 C10 -0.3(3)
C14 C13 C19 C20 -177.7(2)
C15 C2 C3 C4 -0.6(3)
C15 C16 C17 N1 179.83(18)
C15 C16 C17 C4 -0.1(3)
C17 N1 C18 Cl1 178.95(12)
C17 N1 C18 C6 -0.6(3)
C17 C4 C5 C6 0.0(3)
C18 N1 C17 C4 1.3(3)
C18 N1 C17 C16 -178.55(16)
C18 C6 C7 O1 -174.58(15)
C18 C6 C7 C8 -107.3(2)
C20 C10 C11 C12 1.3(3)

_cod_database_fobs_code 1545650
