#------------------------------------------------------------------------------
#$Date: 2017-03-16 03:30:29 +0200 (Thu, 16 Mar 2017) $
#$Revision: 194278 $
#$URL: file:///home/coder/svn-repositories/cod/cif/1/54/55/1545577.cif $
#------------------------------------------------------------------------------
#
# This file is available in the Crystallography Open Database (COD),
# http://www.crystallography.net/
#
# All data on this site have been placed in the public domain by the
# contributors.
#
data_1545577
loop_
_publ_author_name
'Ketels, Marthe'
'Konrad, David B.'
'Karaghiosoff, Konstantin'
'Trauner, Dirk'
'Knochel, Paul'
_publ_section_title
;
 Selective Lithiation, Magnesiation, and Zincation of Unsymmetrical
 Azobenzenes Using Continuous Flow
;
_journal_name_full               'Organic Letters'
_journal_paper_doi               10.1021/acs.orglett.7b00460
_journal_year                    2017
_chemical_formula_moiety         'C16 H13 Cl4 I N2'
_chemical_formula_sum            'C16 H13 Cl4 I N2'
_chemical_formula_weight         501.98
_chemical_name_systematic
;
(E)-1-(4-butyl-2,6-dichlorophenyl)-2-(2,6-dichloro-3-iodophenyl)diazene
;
_space_group_crystal_system      triclinic
_space_group_IT_number           2
_space_group_name_Hall           '-P 1'
_space_group_name_H-M_alt        'P -1'
_symmetry_space_group_name_Hall  '-P 1'
_symmetry_space_group_name_H-M   'P -1'
_atom_sites_solution_hydrogens   geom
_audit_creation_method           SHELXL-2014
_cell_angle_alpha                63.992(2)
_cell_angle_beta                 87.106(2)
_cell_angle_gamma                77.999(2)
_cell_formula_units_Z            2
_cell_length_a                   8.1132(2)
_cell_length_b                   10.9951(3)
_cell_length_c                   11.5650(3)
_cell_measurement_reflns_used    6689
_cell_measurement_temperature    173(2)
_cell_measurement_theta_max      31.8900
_cell_measurement_theta_min      4.5750
_cell_volume                     905.95(4)
_computing_cell_refinement
;
CrysAlisPro, Agilent Technologies,
Version 1.171.37.33 (release 27-03-2014 CrysAlis171 .NET)
(compiled Mar 27 2014,17:12:48)
;
_computing_data_collection
;
CrysAlisPro, Agilent Technologies,
Version 1.171.37.33 (release 27-03-2014 CrysAlis171 .NET)
(compiled Mar 27 2014,17:12:48)
;
_computing_data_reduction
;
CrysAlisPro, Agilent Technologies,
Version 1.171.37.33 (release 27-03-2014 CrysAlis171 .NET)
(compiled Mar 27 2014,17:12:48)
;
_computing_molecular_graphics
;
'ORTEP (M. N. Burnett, C. K. Johnson, ORTEP-III: Oak Ridge Thermal Ellipsoid
# Plot Program for Crystal Structure Illustrations, Oak Ridge National
# Laboratory Report ORNL-6895, 1996). Windows version (L. J. Farrugia, Univ.
# Glasgow) used --- SCHAKAL (E. Keller, University of  Freiburg (Breisgau),
# Germany, 1995)'
;
_computing_publication_material
;
PLATON (A. L. Spek, Acta Crystallogr, Sect. A, 1990, 46, C34, 1995 version).
# --- T.B.Cohen, Pure Appl. Chem. 1996,68,2339-2359 (atomic masses).
;
_computing_structure_refinement  'SHELXL-2014 (Sheldrick, 2014)'
_computing_structure_solution    'SHELXS-97 (Sheldrick, 1990)'
_diffrn_ambient_temperature      173(2)
_diffrn_detector_area_resol_mean 15.9809
_diffrn_measured_fraction_theta_full 0.992
_diffrn_measured_fraction_theta_max 0.995
_diffrn_measurement_device_type  'Xcalibur, Sapphire3'
_diffrn_measurement_method       '\w scans'
_diffrn_radiation_type           MoK\a
_diffrn_radiation_wavelength     0.71073
_diffrn_reflns_av_R_equivalents  0.0234
_diffrn_reflns_av_unetI/netI     0.0234
_diffrn_reflns_Laue_measured_fraction_full 0.992
_diffrn_reflns_Laue_measured_fraction_max 0.995
_diffrn_reflns_limit_h_max       11
_diffrn_reflns_limit_h_min       -11
_diffrn_reflns_limit_k_max       15
_diffrn_reflns_limit_k_min       -15
_diffrn_reflns_limit_l_max       16
_diffrn_reflns_limit_l_min       -16
_diffrn_reflns_number            18484
_diffrn_reflns_point_group_measured_fraction_full 0.992
_diffrn_reflns_point_group_measured_fraction_max 0.995
_diffrn_reflns_theta_full        25.242
_diffrn_reflns_theta_max         30.506
_diffrn_reflns_theta_min         4.216
_diffrn_source                   'Enhance (Mo) X-ray Source'
_exptl_absorpt_coefficient_mu    2.356
_exptl_absorpt_correction_T_max  1.00000
_exptl_absorpt_correction_T_min  0.70244
_exptl_absorpt_correction_type   multi-scan
_exptl_absorpt_process_details
;
CrysAlisPro, Agilent Technologies,
Version 1.171.37.33 (release 27-03-2014 CrysAlis171 .NET)
(compiled Mar 27 2014,17:12:48)
Empirical absorption correction using spherical harmonics,
implemented in SCALE3 ABSPACK scaling algorithm.
;
_exptl_crystal_colour            'orange red'
_exptl_crystal_density_diffrn    1.840
_exptl_crystal_description       block
_exptl_crystal_F_000             488
_exptl_crystal_size_max          0.424
_exptl_crystal_size_mid          0.239
_exptl_crystal_size_min          0.069
_refine_diff_density_max         1.252
_refine_diff_density_min         -0.708
_refine_diff_density_rms         0.087
_refine_ls_extinction_method     none
_refine_ls_goodness_of_fit_ref   1.033
_refine_ls_hydrogen_treatment    mixed
_refine_ls_matrix_type           full
_refine_ls_number_parameters     214
_refine_ls_number_reflns         5511
_refine_ls_number_restraints     0
_refine_ls_restrained_S_all      1.033
_refine_ls_R_factor_all          0.0402
_refine_ls_R_factor_gt           0.0315
_refine_ls_shift/su_max          0.000
_refine_ls_shift/su_mean         0.000
_refine_ls_structure_factor_coef Fsqd
_refine_ls_weighting_details
'w=1/[\s^2^(Fo^2^)+(0.0383P)^2^+0.7189P] where P=(Fo^2^+2Fc^2^)/3'
_refine_ls_weighting_scheme      calc
_refine_ls_wR_factor_gt          0.0761
_refine_ls_wR_factor_ref         0.0818
_reflns_Friedel_coverage         0.000
_reflns_number_gt                4670
_reflns_number_total             5511
_reflns_threshold_expression     'I > 2\s(I)'
_cod_data_source_file            ol7b00460_si_003.cif
_cod_data_source_block           test1
_cod_database_code               1545577
_shelx_space_group_comment
;
The symmetry employed for this shelxl refinement is uniquely defined
by the following loop, which should always be used as a source of
symmetry information in preference to the above space-group names.
They are only intended as comments.
;
_shelx_estimated_absorpt_t_min   0.435
_shelx_estimated_absorpt_t_max   0.854
_shelxl_version_number           2014-3
_shelx_res_file
;
TITL SIR2004 run in space group P -1
CELL  0.71073   8.1132  10.9951  11.5650   63.992   87.106   77.999
ZERR     2.00   0.0002   0.0003   0.0003    0.002    0.002    0.002
LATT   1
SFAC  C    H    N    CL   I
UNIT 32 26 4 8 2
LIST 4 ! automatically inserted. Change 6 to 4 for CHECKCIF!!
MERG   2
OMIT -2 3 4
OMIT 3 2 4
OMIT -3 2 1
OMIT -1 0 5
OMIT -3 0 1
OMIT -2 3 6
OMIT 1 -5 1
OMIT 0 4 5
OMIT -1 3 5
OMIT -4 2 1
OMIT 2 0 4
SHEL 1000 0.70
FMAP   2
PLAN   25
ACTA
BOND   $H
CONF
SIZE 0.069 0.239 0.424
L.S.  40
TEMP  -100.00
WGHT    0.038300    0.718900
FVAR       0.14181
I1    5    0.307875    0.115456    0.812247    11.00000    0.04781    0.04627 =
         0.02596   -0.02018   -0.00333   -0.00849
CL3   4   -0.152808    0.512642    0.171544    11.00000    0.03254    0.03776 =
         0.03969   -0.02372    0.00000   -0.00117
CL1   4    0.520438    0.224081    0.222689    11.00000    0.03856    0.04188 =
         0.02624   -0.00949    0.00923   -0.00885
CL4   4    0.204895    0.056931    0.131908    11.00000    0.04861    0.03668 =
         0.03103   -0.01937   -0.01277    0.00964
CL2   4    0.065766    0.093390    0.591229    11.00000    0.03103    0.05874 =
         0.02848   -0.02154    0.00519   -0.01752
N2    3    0.130203    0.279135    0.240441    11.00000    0.02699    0.02849 =
         0.02288   -0.01144   -0.00147   -0.00526
C1    1    0.300898    0.167006    0.415476    11.00000    0.02697    0.02253 =
         0.02093   -0.00807   -0.00159   -0.00520
C7    1    0.012734    0.283276    0.150421    11.00000    0.02518    0.02705 =
         0.01839   -0.00790    0.00134   -0.00752
N1    3    0.179163    0.162743    0.331713    11.00000    0.03163    0.03015 =
         0.01912   -0.00974   -0.00125   -0.00891
C12   1   -0.123750    0.395505    0.105417    11.00000    0.02561    0.02959 =
         0.02254   -0.01119    0.00328   -0.00819
C13   1   -0.361688    0.326775   -0.126812    11.00000    0.03101    0.08225 =
         0.05251   -0.04507   -0.01336    0.00340
AFIX  24
H13A  2   -0.361215    0.234158   -0.116550    11.00000   -1.20000
H13B  2   -0.470328    0.360661   -0.100557    11.00000   -1.20000
AFIX   0
C6    1    0.258775    0.137160    0.542554    11.00000    0.02524    0.02504 =
         0.02373   -0.01071   -0.00066   -0.00567
C5    1    0.371120    0.141777    0.626747    11.00000    0.03387    0.02738 =
         0.02257   -0.01043   -0.00400   -0.00579
C2    1    0.459528    0.193241    0.376886    11.00000    0.03023    0.02575 =
         0.02314   -0.00640    0.00112   -0.00547
C3    1    0.575118    0.191585    0.462349    11.00000    0.02755    0.03435 =
         0.03464   -0.00873   -0.00209   -0.00883
AFIX  44
H3    2    0.684326    0.206487    0.436087    11.00000   -1.20000
AFIX   0
C11   1   -0.240318    0.413875    0.013221    11.00000    0.02199    0.03792 =
         0.02456   -0.01165    0.00053   -0.00345
AFIX  44
H11   2   -0.333942    0.495888   -0.018144    11.00000   -1.20000
AFIX   0
C14   1   -0.347835    0.415289   -0.263688    11.00000    0.07561    0.07819 =
         0.05342   -0.03163   -0.02382   -0.00061
AFIX  23
H14A  2   -0.449185    0.419646   -0.310711    11.00000   -1.20000
H14B  2   -0.350566    0.509969   -0.274016    11.00000   -1.20000
AFIX   0
C10   1   -0.226012    0.316602   -0.035767    11.00000    0.02701    0.04977 =
         0.02463   -0.01780   -0.00033   -0.00752
C4    1    0.529859    0.168117    0.585595    11.00000    0.03265    0.03562 =
         0.03126   -0.00925   -0.01000   -0.00868
AFIX  44
H4    2    0.606019    0.169870    0.641913    11.00000   -1.20000
AFIX   0
C9    1   -0.089087    0.207296    0.004707    11.00000    0.03293    0.03889 =
         0.02493   -0.01601    0.00099   -0.01068
AFIX  44
H9    2   -0.074859    0.138739   -0.032396    11.00000   -1.20000
AFIX   0
C8    1    0.029388    0.190426    0.095846    11.00000    0.02762    0.02552 =
         0.02178   -0.00832   -0.00249   -0.00321
C15   1   -0.200368    0.375767   -0.325665    11.00000    0.06300    0.07250 =
         0.05581   -0.02039   -0.01313   -0.01756
AFIX  23
H15A  2   -0.185968    0.276426   -0.304146    11.00000   -1.20000
H15B  2   -0.099615    0.387561   -0.290006    11.00000   -1.20000
AFIX   0
C16   1   -0.208666    0.460325   -0.475522    11.00000    0.09395    0.06440 =
         0.05089   -0.02052    0.00648   -0.02137
AFIX 137
H16A  2   -0.319799    0.467363   -0.510235    11.00000   -1.50000
H16B  2   -0.121143    0.413349   -0.512218    11.00000   -1.50000
H16C  2   -0.190258    0.553256   -0.498030    11.00000   -1.50000
AFIX   0
HKLF    4

REM  SIR2004 run in space group P -1
REM R1 =  0.0315 for    4670 Fo > 4sig(Fo)  and  0.0402 for all    5511 data
REM    214 parameters refined using      0 restraints

END

WGHT      0.0383      0.7189

REM Highest difference peak  1.252,  deepest hole -0.708,  1-sigma level  0.087
Q1    1  -0.2342  0.4781 -0.3600  11.00000  0.05    1.25
Q2    1  -0.2982  0.3317 -0.2631  11.00000  0.05    1.15
Q3    1  -0.3556  0.4604 -0.4030  11.00000  0.05    1.05
Q4    1  -0.2852  0.4701 -0.5317  11.00000  0.05    0.53
Q5    1   0.3306  0.1727  0.7593  11.00000  0.05    0.53
Q6    1  -0.3076  0.3728 -0.1763  11.00000  0.05    0.51
Q7    1  -0.1736  0.4623  0.2283  11.00000  0.05    0.50
Q8    1  -0.3433  0.3977 -0.1679  11.00000  0.05    0.48
Q9    1   0.2151  0.0906  0.8012  11.00000  0.05    0.45
Q10   1   0.0637  0.1653  0.5591  11.00000  0.05    0.43
Q11   1   0.4349  0.1349  0.8158  11.00000  0.05    0.43
Q12   1   0.2202  0.1560  0.7935  11.00000  0.05    0.43
Q13   1  -0.0744  0.3479 -0.5592  11.00000  0.05    0.42
Q14   1   0.2718  0.1715  0.4662  11.00000  0.05    0.41
Q15   1   0.2796  0.0173  0.8826  11.00000  0.05    0.39
Q16   1  -0.1682  0.2838 -0.2420  11.00000  0.05    0.39
Q17   1   0.2412  0.1212  0.0951  11.00000  0.05    0.38
Q18   1   0.3086  0.1367  0.5867  11.00000  0.05    0.38
Q19   1   0.4503  0.1391  0.6071  11.00000  0.05    0.37
Q20   1   0.3699  0.1996  0.3936  11.00000  0.05    0.36
Q21   1   0.5056  0.1969  0.4205  11.00000  0.05    0.34
Q22   1   0.1465  0.0616  0.1205  11.00000  0.05    0.32
Q23   1  -0.0357  0.2149  0.0434  11.00000  0.05    0.32
Q24   1   0.1059  0.0675  0.5925  11.00000  0.05    0.32
Q25   1   0.2815  0.0422  0.8127  11.00000  0.05    0.31
;
_shelx_res_checksum              84455
_shelx_hkl_file
;
   0   0  -3  291.53    1.73
   0   0   3  287.65    1.64
   0   0   3  292.42    1.68
   0   0  -3  289.88    1.88
   0   0  -3  291.79    1.84
   0   0  -4   20.40    0.58
   0   0   4   20.54    0.33
   0   0  -4   20.60    0.38
   0   0   4   20.52    0.52
   0   0  -4   20.48    0.57
   0   0  -4   21.46    0.55
   0   0   4   19.68    0.50
   0   0   5  197.36    1.80
   0   0  -5  202.03    2.07
   0   0  -5  200.94    2.00
   0   0   5  207.59    1.87
   0   0   5  209.12    1.17
   0   0  -5  201.77    1.34
   0   0  -5  202.43    1.92
   0   0   6   30.69    0.81
   0   0  -6   30.86    0.83
   0   0  -6   31.70    0.91
   0   0   6   30.14    0.43
   0   0  -6   29.77    0.86
   0   0   6   30.27    0.48
   0   0   6   31.08    0.80
   0   0   6   30.19    0.78
   0   0   7    0.02    0.03
   0   0   7    0.07    0.12
   0   0  -7    0.00    0.08
   0   0  -7    0.05    0.15
   0   0   7    0.08    0.03
   0   0  -7    0.31    0.16
   0   0   8   17.03    0.73
   0   0   8   17.14    0.40
   0   0  -8   17.36    0.78
   0   0  -8   15.89    0.70
   0   0   9    0.08    0.13
   0   0  -9    0.17    0.11
   0   0  -9    0.19    0.18
   0   0 -10   17.23    0.83
   0   0  10   16.24    0.82
   0   0 -10   18.98    0.95
   0   0  11    2.72    0.37
   0   0 -11    3.28    0.40
   0   0 -11    3.59    0.46
   0   0  12    0.28    0.17
   0   0 -12    0.22    0.20
   0   0 -12    0.31    0.15
   0   0  13    4.60    0.53
   0   0 -13    4.29    0.55
   0   0 -14    4.91    0.64
   0   0  14    3.97    0.54
   0   0 -15    1.23    0.35
   0   1 -14    2.62    0.48
   0  -1  14    2.50    0.44
   0   1 -14    2.53    0.49
   0   1 -13    8.03    0.77
   0  -1  13    8.68    0.75
   0   1 -12   14.66    0.98
   0  -1  12   13.94    0.89
   0   1 -11    0.11    0.18
   0   1 -11    0.45    0.17
   0  -1  11    0.15    0.13
   0  -1  10   43.77    1.38
   0   1 -10   45.34    1.31
   0   1 -10   45.39    1.53
   0   1  -9   18.15    0.91
   0   1  -9   17.22    0.77
   0  -1   9   17.85    0.83
   0   1  -8   41.43    1.28
   0   1  -8   40.68    1.10
   0  -1   8   40.70    1.13
   0  -1   8   38.52    0.74
   0  -1   8   40.18    1.15
   0   1  -7   38.42    0.99
   0   1  -7   38.74    1.15
   0  -1   7   37.30    0.70
   0  -1   7   38.53    1.01
   0   1  -6    9.57    0.55
   0  -1   6    8.88    0.33
   0  -1   6    9.62    0.47
   0   1  -6    8.68    0.43
   0   1  -5  103.64    1.59
   0   1  -5   98.75    1.32
   0  -1   5  102.65    1.38
   0   1  -5  101.77    1.15
   0  -1   5  102.48    1.04
   0  -1   4    0.08    0.04
   0   1  -4    0.15    0.05
   0   1  -4    0.23    0.10
   0   1  -4    0.23    0.08
   0  -1   4    0.10    0.07
   0   1  -3   51.02    0.89
   0   1  -3   50.05    0.68
   0  -1   3   51.80    0.63
   0   1  -3   51.61    0.72
   0  -1   3   51.20    0.77
   0   1  -2   16.94    0.33
   0   1  -2   16.59    0.44
   0   1  -2   16.40    0.35
   0  -1   2   17.45    0.33
   0  -1   2   16.44    0.37
   0  -1  -3   36.15    0.64
   0  -1  -3   34.49    0.56
   0   1   3   35.77    0.56
   0   1   3   35.94    0.60
   0   1   4  162.59    1.48
   0   1   4  162.36    1.41
   0  -1  -4  161.61    1.43
   0  -1  -4  162.47    1.59
   0   1   5   36.40    0.76
   0  -1  -5   36.73    0.86
   0  -1  -5   34.71    0.77
   0   1   5   36.55    0.79
   0   1   6   12.54    0.20
   0  -1  -6   13.83    0.55
   0   1   6   13.98    0.53
   0   1   6   13.83    0.54
   0  -1  -6   14.14    0.57
   0  -1  -6   14.99    0.61
   0   1   7   27.84    0.84
   0  -1  -7   28.21    0.86
   0  -1  -7   28.14    0.87
   0  -1  -7   28.65    0.93
   0   1   7   28.43    0.83
   0  -1  -8   -0.10    0.14
   0   1   8    0.08    0.12
   0   1   8    0.00    0.12
   0  -1  -8    0.11    0.14
   0  -1  -8    0.25    0.17
   0   1   9   29.27    0.99
   0  -1  -9   31.38    1.13
   0  -1  -9   30.00    1.05
   0   1   9   29.67    1.01
   0  -1  -9   29.09    1.04
   0  -1 -10    0.22    0.11
   0  -1 -10    0.28    0.16
   0   1  10    0.28    0.18
   0   1  11    2.93    0.37
   0  -1 -11    3.27    0.43
   0  -1 -11    2.98    0.38
   0   1  12    5.91    0.55
   0  -1 -12    6.31    0.58
   0  -1 -12    6.86    0.63
   0  -1 -13    1.47    0.30
   0   1  13    1.38    0.33
   0  -1 -13    1.34    0.35
   0   1  14    9.93    0.79
   0  -1 -14   10.09    0.86
   0  -1 -15   -0.01    0.18
   0   1  15   -0.05    0.17
   0   2 -14   -0.17    0.28
   0   2 -14    0.29    0.20
   0   2 -13    7.72    0.79
   0  -2  13    6.75    0.70
   0   2 -13    6.48    0.69
   0   2 -12    6.64    0.69
   0   2 -12    6.44    0.67
   0  -2  12    6.33    0.63
   0  -2  11   -0.02    0.16
   0   2 -11   -0.17    0.21
   0   2 -10   13.62    0.88
   0  -2  10   12.84    0.78
   0  -2   9    8.10    0.58
   0   2  -9    8.79    0.54
   0   2  -9    8.79    0.67
   0  -2   8    7.40    0.38
   0  -2   8    7.04    0.50
   0   2  -8    7.46    0.59
   0   2  -8    6.69    0.44
   0  -2   7    2.79    0.29
   0  -2   7    2.74    0.23
   0   2  -7    2.72    0.27
   0   2  -7    2.52    0.35
   0  -2   6    8.60    0.48
   0  -2   6    8.55    0.38
   0   2  -6    8.33    0.42
   0   2  -6    9.68    0.58
   0  -2   5    0.22    0.13
   0   2  -5    0.24    0.14
   0  -2   5    0.08    0.06
   0   2  -5    0.26    0.08
   0  -2   4   62.77    1.04
   0   2  -4   63.34    0.97
   0   2  -4   64.17    0.93
   0   2  -4   63.50    1.24
   0  -2   4   62.83    0.92
   0  -2   3   11.37    0.37
   0   2  -3   11.13    0.48
   0  -2   3   11.53    0.40
   0   2  -3   11.60    0.39
   0   2  -3   11.84    0.35
   0  -2   2    8.05    0.30
   0   2  -2    8.54    0.32
   0  -2   2    8.20    0.29
   0   2  -2    8.87    0.38
   0   2  -2    8.91    0.26
   0   2  -1   33.35    0.39
   0   2  -1   33.14    0.48
   0  -2   1   32.83    0.54
   0   2  -1   32.69    0.55
   0  -2   1   31.84    0.51
   0   2   0    3.26    0.16
   0   2   0    3.48    0.11
   0   2   2   19.02    0.39
   0   2   2   18.96    0.32
   0   2   2   19.53    0.37
   0   2   3   63.84    0.68
   0   2   3   60.05    0.82
   0  -2  -3   60.41    0.74
   0   2   3   61.09    0.71
   0   2   4  403.53    2.42
   0  -2  -4  413.81    2.20
   0   2   4  426.83    1.81
   0  -2  -4  406.66    2.47
   0   2   5    5.34    0.21
   0  -2  -5    4.93    0.32
   0   2   5    4.97    0.27
   0  -2  -5    5.11    0.28
   0   2   5    5.11    0.31
   0   2   6  204.10    1.92
   0  -2  -6  198.18    1.94
   0   2   6  197.20    2.07
   0  -2  -6  199.43    2.18
   0   2   6  201.22    1.28
   0   2   7   86.19    0.83
   0  -2  -7   90.41    1.46
   0  -2  -7   89.04    1.60
   0   2   7   88.62    1.52
   0   2   7   87.68    1.39
   0   2   8    0.31    0.13
   0  -2  -8    0.19    0.15
   0   2   8    0.05    0.03
   0  -2  -8   -0.12    0.14
   0  -2  -8    0.11    0.14
   0   2   8    0.19    0.11
   0  -2  -9  144.56    2.40
   0  -2  -9  145.68    2.20
   0   2   9  144.56    2.26
   0  -2  -9  140.72    2.30
   0   2   9  146.38    2.11
   0   2  10   16.84    0.83
   0   2  10   18.18    0.81
   0  -2 -10   17.70    0.90
   0  -2 -10   17.97    0.85
   0  -2 -10   18.23    0.89
   0  -2 -11   12.88    0.79
   0   2  11   12.82    0.73
   0  -2 -11   13.47    0.79
   0  -2 -12   25.14    1.17
   0   2  12   26.47    1.11
   0  -2 -12   26.25    1.17
   0  -2 -13    0.15    0.15
   0   2  13    0.39    0.19
   0  -2 -13    0.37    0.18
   0  -2 -14    8.47    0.77
   0   2  14    8.24    0.71
   0  -2 -14    9.63    0.80
   0  -2 -15    1.23    0.35
   0   2  15    1.75    0.37
   0  -2 -15    0.97    0.27
   0  -2 -16    0.57    0.29
   0  -3  13    0.68    0.25
   0   3 -13    0.45    0.24
   0   3 -12    1.96    0.44
   0   3 -12    1.40    0.32
   0  -3  12    2.10    0.40
   0  -3  11    8.37    0.71
   0   3 -11    7.98    0.75
   0   3 -11    7.05    0.66
   0   3 -10   -0.09    0.20
   0  -3  10   -0.16    0.16
   0   3 -10   -0.26    0.21
   0  -3   9   23.97    1.01
   0  -3   9   23.46    1.03
   0   3  -9   22.68    1.04
   0   3  -9   24.28    1.16
   0  -3   8   19.32    0.85
   0   3  -8   19.94    0.73
   0  -3   8   18.89    0.68
   0   3  -8   19.23    0.98
   0  -3   7    1.14    0.17
   0   3  -7    1.67    0.21
   0  -3   7    1.18    0.21
   0   3  -7    1.13    0.26
   0   3  -6   84.87    1.29
   0  -3   6   82.78    1.32
   0  -3   6   83.47    1.52
   0   3  -6   83.37    1.78
   0   3  -5   71.01    1.54
   0  -3   5   68.48    1.15
   0  -3   5   68.20    1.26
   0   3  -5   69.66    1.07
   0  -3   4  120.27    1.54
   0  -3   4  116.37    1.44
   0   3  -4  116.34    1.23
   0   3  -4  119.85    1.86
   0   3  -4  119.64    1.52
   0   3  -3   97.04    0.99
   0  -3   3   97.40    1.25
   0   3  -3   96.71    1.54
   0   3  -3   96.39    1.26
   0   3  -3   97.11    1.29
   0  -3   3   95.69    1.25
   0  -3   2    6.74    0.31
   0   3  -2    7.13    0.24
   0   3  -2    6.64    0.32
   0  -3   2    6.85    0.32
   0   3  -2    6.68    0.29
   0  -3   1  109.00    1.12
   0   3  -1  109.93    1.37
   0  -3   1  112.67    1.21
   0   3  -1  110.82    1.01
   0   3  -1  109.99    1.21
   0   3  -1  114.90    0.83
   0   3  -1  111.83    0.71
   0   3   0  326.23    1.92
   0   3   0  329.54    1.43
   0   3   0  323.62    1.89
   0  -3   0  319.76    1.85
   0   3   0  334.32    1.29
   0   3   0  319.04    2.20
   0  -3   0  322.27    1.93
   0   3   1  533.95    1.91
   0   3   1  540.25    2.27
   0   3   1  513.14    2.52
   0   3   1  532.95    2.39
   0   3   2    6.18    0.26
   0   3   2    6.37    0.26
   0   3   2    6.75    0.21
   0   3   2    6.30    0.24
   0   3   3    1.27    0.11
   0   3   3    1.51    0.14
   0   3   3    1.44    0.14
   0   3   3    1.59    0.14
   0  -3  -4  238.78    1.75
   0   3   4  242.01    1.61
   0   3   4  243.73    1.93
   0   3   4  246.02    1.62
   0   3   5   99.32    1.37
   0  -3  -5   98.83    1.23
   0  -3  -5   99.98    1.37
   0   3   5  100.48    1.19
   0   3   5  101.01    1.05
   0  -3  -6   26.99    0.79
   0  -3  -6   27.44    0.72
   0   3   6   27.14    0.78
   0   3   6   27.48    0.69
   0   3   6   27.21    0.54
   0  -3  -6   26.31    0.31
   0   3   7   81.20    0.92
   0   3   7   83.10    1.32
   0  -3  -7   82.04    1.35
   0   3   7   80.56    1.46
   0  -3  -7   80.98    1.49
   0  -3  -8   43.09    1.19
   0  -3  -8   41.29    1.05
   0   3   8   43.59    0.65
   0   3   8   42.19    1.15
   0   3   8   41.44    1.02
   0   3   9   26.81    0.89
   0  -3  -9   29.27    1.06
   0  -3  -9   27.79    0.94
   0  -3  -9   26.28    1.01
   0   3   9   27.40    1.01
   0  -3 -10   59.73    1.62
   0   3  10   62.14    1.61
   0  -3 -10   63.70    1.53
   0   3  10   62.09    1.45
   0  -3 -10   63.27    1.67
   0  -3 -11   12.44    0.80
   0  -3 -11   14.18    0.78
   0   3  11   12.37    0.70
   0   3  11   14.16    0.82
   0  -3 -11   13.53    0.84
   0   3  12    0.58    0.22
   0   3  12    0.24    0.16
   0  -3 -12    0.31    0.20
   0  -3 -12    0.71    0.23
   0  -3 -13   13.88    0.89
   0   3  13   12.21    0.79
   0  -3 -13   12.95    0.91
   0  -3 -14    0.13    0.18
   0  -3 -14    0.08    0.20
   0   3  14    0.01    0.12
   0   3  15    2.26    0.39
   0  -3 -15    2.41    0.42
   0  -3 -15    2.53    0.47
   0  -3 -16    0.97    0.32
   0  -3 -16    0.78    0.26
   0   3  16    1.21    0.31
   0   4 -13    1.80    0.40
   0   4 -12    0.74    0.27
   0  -4  12    0.76    0.28
   0  -4  11    9.31    0.80
   0   4 -11    9.32    0.77
   0   4 -10    8.84    0.72
   0  -4  10    8.22    0.70
   0  -4   9   10.83    0.72
   0   4  -9    9.57    0.70
   0   4  -8   24.82    1.05
   0  -4   8   24.34    1.00
   0   4  -8   24.52    1.15
   0  -4   8   25.21    0.87
   0  -4   7   -0.02    0.15
   0  -4   7   -0.03    0.10
   0   4  -7    0.03    0.12
   0   4  -7   -0.01    0.17
   0   4  -6   28.42    0.73
   0  -4   6   28.46    0.87
   0  -4   6   29.57    0.96
   0   4  -6   29.54    0.99
   0  -4   5   39.97    1.04
   0  -4   5   40.66    1.00
   0   4  -5   40.19    0.79
   0   4  -5   39.69    1.05
   0  -4   4   11.20    0.51
   0   4  -4   10.56    0.50
   0   4  -4   10.91    0.37
   0  -4   4   10.52    0.49
   0   4  -3    1.42    0.17
   0  -4   3    1.81    0.20
   0  -4   3    1.68    0.21
   0   4  -3    1.66    0.14
   0  -4   2   12.08    0.48
   0   4  -2   12.22    0.49
   0  -4   2   11.94    0.45
   0   4  -2   12.36    0.43
   0   4  -2   12.10    0.55
   0   4  -2   11.90    0.31
   0  -4   1    1.77    0.17
   0   4  -1    1.91    0.19
   0   4  -1    1.72    0.10
   0  -4   1    1.66    0.18
   0   4  -1    1.59    0.14
   0   4  -1    1.51    0.19
   0   4   0   87.41    0.75
   0   4   0   87.59    1.15
   0  -4   0   85.49    1.17
   0  -4   0   83.67    1.09
   0   4   0   87.41    1.16
   0   4   0   87.15    1.33
   0   4   1   20.71    0.55
   0   4   1   21.37    0.42
   0   4   1   20.65    0.61
   0   4   1   21.26    0.54
   0  -4  -1   21.14    0.56
   0  -4  -1   20.71    0.50
   0   4   2    1.91    0.18
   0   4   2    1.95    0.15
   0   4   2    1.94    0.17
   0  -4  -2    1.84    0.13
   0   4   3   20.42    0.55
   0   4   3   20.81    0.55
   0   4   3   21.26    0.44
   0   4   3   21.51    0.53
   0  -4  -4    8.60    0.36
   0   4   4    8.74    0.35
   0   4   4    8.73    0.31
   0   4   4    8.63    0.38
   0  -4  -5   12.71    0.46
   0   4   5   12.19    0.49
   0   4   5   12.05    0.40
   0   4   5   12.94    0.43
   0   4   6    8.15    0.44
   0   4   6    8.06    0.34
   0  -4  -6    7.83    0.39
   0  -4  -6    8.16    0.43
   0  -4  -6    8.28    0.25
   0   4   6    8.21    0.37
   0   4   7    7.44    0.46
   0   4   7    8.08    0.40
   0  -4  -7    7.55    0.21
   0  -4  -7    7.58    0.42
   0  -4  -7    8.22    0.47
   0   4   7    8.07    0.33
   0  -4  -8   39.89    1.02
   0   4   8   40.53    1.14
   0   4   8   40.06    0.73
   0   4   8   40.46    0.98
   0  -4  -8   41.32    1.14
   0  -4  -9    4.90    0.40
   0   4   9    4.25    0.35
   0  -4  -9    4.40    0.41
   0   4   9    4.63    0.42
   0   4   9    4.79    0.24
   0   4  10   27.72    1.08
   0  -4 -10   28.93    1.01
   0  -4 -10   28.87    1.14
   0  -4 -10   29.65    1.12
   0   4  10   28.12    0.95
   0   4  11    6.95    0.51
   0  -4 -11    7.46    0.56
   0   4  11    6.68    0.57
   0  -4 -11    7.27    0.61
   0  -4 -11    7.64    0.63
   0  -4 -12    2.77    0.39
   0   4  12    2.11    0.36
   0   4  12    2.17    0.32
   0  -4 -12    2.30    0.39
   0  -4 -12    2.01    0.35
   0  -4 -13   51.84    1.82
   0  -4 -13   54.32    1.71
   0   4  13   54.30    1.82
   0   4  13   52.49    1.56
   0  -4 -14    7.24    0.68
   0  -4 -14    6.96    0.73
   0   4  14    6.72    0.60
   0  -4 -15    5.25    0.66
   0  -4 -15    5.04    0.60
   0   4  15    4.49    0.53
   0  -4 -16    6.93    0.74
   0   4  16    7.35    0.70
   0  -4 -16    6.26    0.74
   0  -4 -17    0.67    0.28
   0   5 -12   -0.24    0.22
   0   5 -11    0.32    0.21
   0  -5  11    0.19    0.23
   0   5 -10    0.36    0.22
   0  -5  10    0.20    0.17
   0  -5   9   11.33    0.77
   0   5  -9   10.31    0.74
   0   5  -8    8.51    0.63
   0  -5   8   10.33    0.70
   0  -5   7    0.05    0.15
   0  -5   7    0.08    0.11
   0   5  -7    0.11    0.12
   0  -5   6    3.70    0.35
   0   5  -6    4.67    0.42
   0  -5   6    5.18    0.43
   0  -5   5   32.18    1.00
   0  -5   5   32.44    1.00
   0   5  -5   32.06    0.98
   0   5  -4    1.92    0.23
   0   5  -4    1.80    0.16
   0  -5   4    1.97    0.25
   0   5  -4    1.62    0.27
   0  -5   4    1.80    0.24
   0   5  -3   43.52    0.67
   0   5  -3   42.96    1.18
   0   5  -3   40.88    0.53
   0   5  -3   41.73    0.94
   0  -5   3   43.05    1.01
   0  -5   3   41.43    1.05
   0   5  -2   98.31    0.77
   0  -5   2  101.44    1.56
   0   5  -2   96.77    1.28
   0   5  -2  103.91    1.76
   0  -5   2  100.48    1.43
   0  -5   1   14.28    0.57
   0  -5   1   14.89    0.53
   0   5  -1   14.68    0.31
   0   5  -1   13.82    0.43
   0   5  -1   14.50    0.63
   0   5   0   59.49    1.08
   0   5   0   58.71    0.68
   0  -5   0   59.68    1.11
   0  -5   0   58.76    1.02
   0   5   0   59.28    1.22
   0  -5  -1  108.43    1.42
   0   5   1  106.10    1.02
   0   5   1  107.87    1.57
   0   5   1  106.35    1.42
   0  -5  -1  103.48    1.29
   0   5   2   -0.02    0.09
   0   5   2    0.05    0.05
   0  -5  -2   -0.01    0.07
   0   5   3  186.99    1.84
   0   5   3  183.82    1.45
   0   5   3  185.21    1.64
   0  -5  -3  181.72    1.69
   0   5   3  183.97    1.87
   0  -5  -4   78.32    1.06
   0   5   4   79.12    1.18
   0   5   4   80.31    0.98
   0   5   4   79.31    1.23
   0   5   4   80.82    1.20
   0   5   5   68.18    1.10
   0   5   5   65.49    1.16
   0  -5  -5   66.55    1.12
   0   5   5   67.19    0.96
   0  -5  -5   66.56    0.93
   0   5   6   84.29    1.17
   0  -5  -6   84.52    1.33
   0  -5  -6   81.06    0.98
   0   5   6   83.39    1.21
   0   5   6   83.27    1.42
   0   5   7    2.61    0.28
   0  -5  -7    2.50    0.16
   0  -5  -7    2.25    0.24
   0   5   7    2.87    0.25
   0  -5  -7    2.35    0.24
   0   5   7    2.55    0.21
   0  -5  -8   80.98    1.46
   0  -5  -8   81.28    1.57
   0   5   8   79.69    1.16
   0  -5  -8   76.69    0.79
   0   5   8   79.32    1.61
   0   5   8   76.27    1.32
   0  -5  -9   39.88    1.11
   0   5   9   38.39    1.19
   0   5   9   37.43    1.00
   0  -5  -9   39.86    1.19
   0   5   9   39.97    0.80
   0  -5 -10   12.51    0.67
   0   5  10   10.98    0.70
   0  -5 -10   11.47    0.70
   0   5  10   11.31    0.59
   0  -5 -11   29.96    1.18
   0   5  11   29.31    1.20
   0  -5 -11   31.35    1.13
   0  -5 -11   29.59    1.25
   0   5  11   28.41    0.99
   0   5  12    3.70    0.46
   0  -5 -12    3.82    0.46
   0   5  12    3.31    0.38
   0  -5 -12    4.15    0.45
   0  -5 -12    3.58    0.47
   0  -5 -13   37.38    1.40
   0  -5 -13   35.75    1.54
   0   5  13   35.27    1.25
   0   5  13   37.29    1.52
   0  -5 -13   39.77    1.54
   0   5  14   16.74    1.09
   0   5  14   15.45    0.89
   0  -5 -14   18.01    1.04
   0  -5 -14   14.79    1.05
   0   5  15   -0.06    0.17
   0  -5 -15    0.13    0.19
   0  -5 -16    7.89    0.78
   0  -5 -16    7.87    0.85
   0   5  16    7.68    0.71
   0  -5 -17    8.08    0.82
   0  -5 -17    7.68    0.86
   0   6 -11    3.45    0.53
   0   6 -11    2.71    0.44
   0  -6  11    3.04    0.51
   0   6 -10    3.05    0.44
   0  -6  10    2.78    0.46
   0   6 -10    3.88    0.54
   0   6  -9    3.17    0.47
   0   6  -9    2.61    0.39
   0  -6   9    3.04    0.43
   0   6  -8    0.97    0.26
   0   6  -8    1.28    0.27
   0  -6   8    1.04    0.26
   0   6  -7    4.38    0.44
   0   6  -7    5.05    0.54
   0  -6   7    4.57    0.46
   0  -6   7    4.91    0.47
   0   6  -6    8.90    0.58
   0  -6   6    9.59    0.62
   0  -6   6    7.72    0.56
   0   6  -6    9.02    0.69
   0   6  -5    7.28    0.59
   0   6  -5    6.86    0.48
   0  -6   5    7.20    0.51
   0  -6   5    7.24    0.54
   0  -6   4   50.87    1.33
   0   6  -4   50.45    1.46
   0  -6   4   53.49    1.28
   0   6  -4   50.78    1.18
   0   6  -3    5.43    0.36
   0  -6   3    5.66    0.41
   0   6  -3    5.48    0.47
   0  -6   3    5.18    0.41
   0  -6   2   54.88    1.16
   0  -6   2   53.82    1.27
   0   6  -2   53.68    1.39
   0   6  -2   52.89    1.00
   0   6  -2   50.92    0.55
   0   6  -1   58.80    0.96
   0  -6   1   60.24    1.29
   0   6  -1   58.96    1.38
   0  -6   1   60.07    1.17
   0   6  -1   58.55    0.65
   0  -6   0    3.11    0.26
   0   6   0    3.10    0.32
   0   6   0    3.26    0.17
   0  -6   0    3.36    0.31
   0   6   1  175.37    2.22
   0  -6  -1  169.55    1.84
   0   6   1  173.01    1.40
   0  -6  -1  172.82    2.03
   0   6   1  174.48    2.02
   0   6   2   17.51    0.67
   0   6   2   17.18    0.63
   0   6   2   18.07    0.50
   0  -6  -2   17.54    0.55
   0  -6  -2   17.64    0.63
   0  -6  -3    1.90    0.17
   0   6   3    1.98    0.23
   0   6   3    2.15    0.19
   0   6   3    2.07    0.23
   0  -6  -3    2.20    0.23
   0  -6  -4   81.00    1.24
   0   6   4   82.82    1.39
   0   6   4   85.10    1.09
   0   6   4   84.73    1.26
   0   6   4   83.82    1.36
   0   6   5    0.06    0.05
   0   6   5   -0.01    0.08
   0   6   5    0.02    0.08
   0   6   5   -0.02    0.09
   0  -6  -5   -0.03    0.08
   0  -6  -6   11.50    0.52
   0   6   6   12.76    0.53
   0   6   6   12.74    0.46
   0   6   6   12.77    0.58
   0  -6  -6   12.53    0.45
   0   6   7   30.41    0.94
   0  -6  -7   30.62    0.67
   0  -6  -7   29.44    0.86
   0   6   7   30.31    0.77
   0  -6  -7   32.74    0.92
   0   6   7   30.18    0.80
   0  -6  -8    0.04    0.12
   0  -6  -8    0.00    0.12
   0  -6  -8    0.08    0.06
   0   6   8    0.09    0.08
   0   6   8   -0.18    0.17
   0   6   8    0.01    0.06
   0   6   9   13.98    0.53
   0  -6  -9   13.09    0.64
   0   6   9   12.99    0.59
   0  -6  -9   14.84    0.71
   0   6   9   15.07    0.76
   0   6  10    0.21    0.13
   0  -6 -10    0.02    0.11
   0   6  10    0.30    0.12
   0   6  10    0.06    0.06
   0  -6 -10    0.11    0.13
   0   6  11   10.92    0.74
   0  -6 -11   10.96    0.66
   0   6  11   10.30    0.59
   0  -6 -11   10.64    0.70
   0  -6 -12   13.59    0.84
   0   6  12   12.86    0.70
   0  -6 -12   12.51    0.76
   0   6  12   14.00    0.89
   0  -6 -12   12.22    0.86
   0  -6 -13   -0.08    0.15
   0   6  13    0.23    0.18
   0  -6 -13    0.00    0.17
   0  -6 -13    0.04    0.16
   0   6  13   -0.04    0.15
   0  -6 -14    4.58    0.53
   0   6  14    4.58    0.58
   0   6  14    3.61    0.42
   0  -6 -14    4.86    0.57
   0  -6 -14    4.14    0.57
   0   6  15    1.18    0.27
   0  -6 -15    1.49    0.38
   0  -6 -15    1.10    0.29
   0   6  16    1.30    0.32
   0  -6 -16    0.73    0.28
   0   7 -10    0.80    0.30
   0  -7  10    1.50    0.37
   0   7  -9    4.25    0.57
   0  -7   9    4.28    0.53
   0   7  -8    0.48    0.24
   0  -7   8    0.13    0.14
   0  -7   7    1.46    0.30
   0   7  -7    1.67    0.28
   0   7  -7    1.30    0.31
   0  -7   7    1.70    0.32
   0   7  -6    1.87    0.35
   0  -7   6    2.12    0.33
   0  -7   6    2.73    0.37
   0   7  -6    2.40    0.32
   0   7  -5    2.06    0.35
   0  -7   5    1.69    0.29
   0  -7   5    1.87    0.30
   0   7  -5    1.95    0.27
   0   7  -4    6.44    0.44
   0  -7   4    6.27    0.53
   0  -7   4    7.17    0.51
   0   7  -4    6.73    0.57
   0  -7   3    0.78    0.20
   0   7  -3    0.71    0.15
   0   7  -3    0.72    0.21
   0  -7   3    0.63    0.19
   0  -7   2    1.05    0.20
   0   7  -2    0.92    0.21
   0  -7   2    1.11    0.23
   0   7  -2    1.16    0.17
   0   7  -1   14.46    0.75
   0  -7   1   14.88    0.71
   0  -7   1   14.72    0.63
   0  -7   0    0.73    0.19
   0   7   0    0.90    0.10
   0  -7   0    0.68    0.16
   0   7   0    0.83    0.21
   0   7   1   54.58    0.83
   0  -7  -1   51.00    1.10
   0  -7  -1   51.28    1.22
   0   7   1   52.45    1.32
   0   7   2    2.88    0.31
   0  -7  -2    2.45    0.24
   0   7   2    2.50    0.20
   0   7   2    2.41    0.28
   0  -7  -2    2.59    0.28
   0  -7  -3    0.67    0.12
   0   7   3    0.97    0.19
   0   7   3    0.72    0.12
   0  -7  -3    1.00    0.19
   0   7   3    0.71    0.17
   0   7   4   69.47    1.36
   0  -7  -4   66.99    1.07
   0   7   4   70.69    1.20
   0  -7  -4   68.80    1.27
   0   7   4   67.38    1.39
   0   7   5   15.12    0.63
   0   7   5   16.49    0.62
   0  -7  -5   15.55    0.59
   0   7   5   15.31    0.66
   0   7   5   15.92    0.52
   0   7   6    4.32    0.28
   0  -7  -6    4.28    0.30
   0   7   6    4.32    0.35
   0   7   6    4.50    0.37
   0   7   6    4.26    0.34
   0  -7  -6    4.35    0.35
   0  -7  -7   33.35    0.80
   0   7   7   33.62    1.01
   0   7   7   34.06    0.82
   0  -7  -7   32.61    0.97
   0   7   7   31.81    0.90
   0   7   8    9.14    0.56
   0   7   8    9.12    0.48
   0   7   8    9.78    0.47
   0  -7  -8   10.04    0.56
   0  -7  -8    9.59    0.41
   0  -7  -8    9.89    0.54
   0   7   9   24.95    0.78
   0  -7  -9   22.80    0.87
   0   7   9   23.81    0.79
   0   7   9   22.27    0.93
   0  -7  -9   23.42    0.88
   0   7  10    8.20    0.45
   0   7  10    8.82    0.64
   0  -7 -10    8.62    0.56
   0  -7 -10    9.51    0.61
   0   7  10    8.57    0.50
   0   7  11    1.12    0.25
   0  -7 -11    1.29    0.25
   0  -7 -11    0.87    0.21
   0   7  11    1.03    0.21
   0   7  12   12.11    0.83
   0  -7 -12   12.50    0.75
   0  -7 -12   12.60    0.79
   0   7  12   10.95    0.64
   0   7  13    8.14    0.71
   0   7  13    7.56    0.57
   0  -7 -13    7.67    0.74
   0  -7 -13    7.95    0.67
   0  -7 -13    7.84    0.64
   0   7  14    7.26    0.73
   0  -7 -14    6.33    0.64
   0   7  14    5.98    0.54
   0  -7 -14    6.35    0.71
   0  -7 -14    5.91    0.60
   0  -7 -15    7.10    0.72
   0  -7 -15    7.16    0.69
   0   7  15    7.08    0.62
   0   7  15    7.68    0.79
   0  -7 -15    7.41    0.80
   0  -7 -16   -0.37    0.23
   0  -7 -16   -0.31    0.24
   0   7  16   -0.17    0.14
   0   7  17    8.06    0.73
   0  -8   9    1.54    0.39
   0   8  -9    1.43    0.36
   0  -8   9    1.22    0.33
   0   8  -8    0.91    0.27
   0  -8   8    1.09    0.29
   0   8  -7    0.16    0.14
   0  -8   7    0.19    0.20
   0  -8   7    0.11    0.14
   0   8  -6    2.44    0.41
   0  -8   6    3.01    0.43
   0  -8   5    1.35    0.27
   0  -8   5    1.13    0.27
   0   8  -5    1.44    0.31
   0  -8   4    0.53    0.18
   0   8  -4    0.76    0.23
   0  -8   4    0.58    0.20
   0   8  -3    3.42    0.31
   0  -8   3    3.98    0.40
   0  -8   3    4.36    0.46
   0   8  -3    3.84    0.45
   0   8  -2    4.16    0.45
   0  -8   2    4.43    0.46
   0  -8   2    5.11    0.43
   0  -8   1   15.16    0.79
   0   8  -1   14.92    0.82
   0  -8   1   16.40    0.71
   0   8   0    7.27    0.55
   0  -8   0    6.79    0.45
   0  -8   0    7.30    0.54
   0  -8  -1    5.32    0.45
   0   8   1    5.42    0.47
   0  -8  -1    5.91    0.41
   0   8   1    5.90    0.29
   0   8   2   64.14    1.55
   0  -8  -2   65.90    1.30
   0  -8  -2   65.10    1.46
   0   8   2   65.27    1.04
   0   8   3   46.96    1.29
   0   8   3   48.86    1.27
   0  -8  -3   47.07    1.04
   0   8   3   48.11    0.96
   0  -8  -3   48.18    1.23
   0   8   4   26.80    0.77
   0   8   4   26.73    0.93
   0  -8  -4   25.65    0.74
   0  -8  -4   25.59    0.87
   0   8   4   27.61    0.97
   0   8   5   91.31    1.76
   0  -8  -5   94.43    1.39
   0   8   5   97.93    1.74
   0  -8  -5   93.31    1.59
   0   8   5   97.11    1.55
   0   8   6   19.06    0.76
   0   8   6   17.12    0.75
   0  -8  -6   19.53    0.71
   0   8   6   18.23    0.72
   0   8   6   17.96    0.60
   0  -8  -7   44.53    1.19
   0   8   7   44.76    1.19
   0   8   7   45.89    0.99
   0   8   7   44.15    1.15
   0  -8  -7   44.29    1.02
   0   8   8  118.02    2.03
   0   8   8  117.56    1.65
   0  -8  -8  116.30    1.61
   0  -8  -8  119.31    2.00
   0  -8  -8  115.51    1.79
   0   8   8  117.16    1.85
   0  -8  -9   -0.06    0.13
   0   8   9    0.02    0.08
   0   8   9   -0.11    0.16
   0  -8  -9    0.12    0.12
   0  -8  -9    0.01    0.06
   0   8   9   -0.02    0.09
   0   8  10   18.04    0.73
   0   8  10   18.65    0.73
   0   8  10   16.76    0.86
   0  -8 -10   18.90    0.85
   0  -8 -10   18.67    0.83
   0  -8 -11   36.91    1.24
   0   8  11   35.24    1.32
   0   8  11   37.19    1.12
   0  -8 -11   35.10    1.21
   0  -8 -12    0.28    0.16
   0   8  12    0.38    0.16
   0   8  12    0.27    0.11
   0  -8 -12    0.55    0.19
   0   8  13   29.68    1.37
   0  -8 -13   30.78    1.26
   0  -8 -13   32.06    1.47
   0  -8 -13   30.73    1.28
   0   8  13   30.05    1.12
   0  -8 -14    0.17    0.16
   0   8  14    0.18    0.10
   0  -8 -14    0.11    0.17
   0   8  14    0.26    0.18
   0  -8 -14    0.37    0.17
   0  -8 -15    0.55    0.22
   0  -8 -15    0.56    0.25
   0   8  15    1.10    0.32
   0   8  15    1.15    0.28
   0  -8 -15    0.75    0.25
   0  -8 -16    5.31    0.73
   0   8  16    6.51    0.77
   0   8  16    4.71    0.53
   0  -8 -16    5.43    0.62
   0   8  17    0.67    0.23
   0   9  -8    1.23    0.36
   0  -9   7    4.15    0.56
   0   9  -7    5.30    0.64
   0  -9   6    0.35    0.21
   0   9  -6    0.61    0.24
   0  -9   6    0.30    0.17
   0  -9   5   11.55    0.78
   0  -9   5    9.84    0.80
   0   9  -5    9.11    0.78
   0   9  -4    8.30    0.72
   0  -9   4    8.87    0.64
   0  -9   4    7.56    0.66
   0  -9   3    3.54    0.45
   0   9  -3    3.49    0.45
   0  -9   3    3.89    0.41
   0  -9   2    7.81    0.65
   0  -9   2    8.60    0.58
   0   9  -2    8.28    0.66
   0   9  -1    2.03    0.33
   0  -9   1    1.75    0.27
   0  -9   1    1.49    0.29
   0   9   0    2.16    0.33
   0  -9   0    1.72    0.30
   0  -9   0    2.09    0.28
   0  -9  -1    6.55    0.46
   0   9   1    7.73    0.59
   0  -9  -1    6.85    0.55
   0  -9  -2    0.91    0.18
   0   9   2    0.63    0.18
   0  -9  -2    0.53    0.16
   0   9   2    0.71    0.12
   0   9   3    4.28    0.44
   0   9   3    4.80    0.32
   0  -9  -3    4.41    0.36
   0  -9  -3    4.22    0.41
   0  -9  -4    2.65    0.27
   0   9   4    3.11    0.28
   0   9   4    2.35    0.33
   0  -9  -4    2.41    0.30
   0   9   4    2.45    0.33
   0   9   5   17.32    0.80
   0   9   5   17.01    0.82
   0   9   5   18.19    0.70
   0  -9  -5   16.69    0.74
   0  -9  -5   18.20    0.66
   0  -9  -6    4.18    0.37
   0   9   6    3.67    0.39
   0  -9  -6    3.89    0.31
   0   9   6    3.55    0.34
   0   9   6    3.83    0.38
   0   9   7    1.74    0.28
   0   9   7    1.49    0.24
   0   9   7    1.54    0.20
   0   9   7    1.41    0.23
   0  -9  -7    1.34    0.21
   0   9   8   38.08    1.14
   0   9   8   37.08    1.17
   0  -9  -8   37.67    1.01
   0  -9  -8   39.06    1.21
   0   9   8   37.46    0.96
   0  -9  -8   38.35    1.02
   0   9   9    0.78    0.16
   0   9   9    0.90    0.20
   0  -9  -9    0.65    0.15
   0   9   9    0.57    0.16
   0  -9  -9    0.73    0.21
   0  -9  -9    0.69    0.16
   0  -9 -10    3.78    0.37
   0  -9 -10    3.73    0.40
   0   9  10    3.35    0.34
   0   9  10    3.28    0.40
   0   9  10    3.51    0.33
   0  -9 -11   18.58    0.91
   0   9  11   18.27    0.96
   0   9  11   19.00    0.78
   0   9  11   18.31    0.78
   0  -9 -11   20.69    0.92
   0  -9 -12    0.65    0.20
   0   9  12    0.83    0.25
   0  -9 -12    0.79    0.21
   0   9  12    0.70    0.19
   0  -9 -13    4.49    0.48
   0   9  13    5.28    0.47
   0   9  13    5.38    0.59
   0  -9 -13    5.77    0.57
   0  -9 -14    0.04    0.18
   0   9  14    0.07    0.10
   0   9  14    0.16    0.19
   0  -9 -14    0.26    0.17
   0  -9 -14    0.20    0.14
   0   9  15   -0.16    0.23
   0   9  15    0.19    0.13
   0  -9 -15    0.05    0.15
   0  -9 -15   -0.10    0.24
   0  -9 -15    0.40    0.21
   0   9  16    3.87    0.60
   0  -9 -16    3.03    0.48
   0   9  16    4.27    0.51
   0  -9 -16    3.65    0.60
   0   9  17    2.05    0.38
   0 -10   6    0.33    0.21
   0  10  -6    0.05    0.17
   0 -10   5    2.61    0.46
   0  10  -5    4.61    0.59
   0 -10   4    1.03    0.31
   0  10  -4    0.98    0.28
   0  10  -3    1.60    0.33
   0 -10   3    1.12    0.30
   0 -10   2    4.40    0.53
   0  10  -2    4.01    0.49
   0  10  -1    0.60    0.22
   0 -10   1    0.52    0.20
   0 -10   0    6.89    0.61
   0  10   0    6.65    0.60
   0 -10   0    7.22    0.52
   0  10   1   11.62    0.76
   0 -10  -1   11.84    0.77
   0 -10  -1   11.71    0.64
   0 -10  -2    0.55    0.22
   0  10   2    0.39    0.17
   0 -10  -2    0.83    0.19
   0 -10  -3    3.29    0.33
   0 -10  -3    2.66    0.36
   0  10   3    3.12    0.39
   0  10   4    1.58    0.21
   0  10   4    1.42    0.28
   0 -10  -4    1.27    0.26
   0 -10  -4    1.54    0.23
   0 -10  -5    6.31    0.50
   0 -10  -5    6.04    0.42
   0  10   5    6.06    0.53
   0  10   5    6.68    0.44
   0 -10  -6    3.18    0.35
   0  10   6    3.56    0.40
   0  10   6    3.79    0.43
   0 -10  -6    3.56    0.32
   0  10   6    3.93    0.36
   0  10   7    1.22    0.24
   0  10   7    1.71    0.29
   0  10   7    1.49    0.24
   0 -10  -7    1.23    0.23
   0 -10  -7    1.53    0.22
   0 -10  -8   12.28    0.64
   0  10   8   12.28    0.70
   0  10   8   12.79    0.59
   0  10   8   11.96    0.69
   0 -10  -8   12.88    0.74
   0  10   9   12.53    0.60
   0  10   9   11.57    0.70
   0 -10  -9   12.07    0.72
   0 -10  -9   12.48    0.62
   0  10   9   12.19    0.69
   0  10  10    1.04    0.23
   0 -10 -10    0.62    0.16
   0  10  10    1.16    0.24
   0  10  10    1.00    0.19
   0 -10 -10    0.74    0.20
   0 -10 -11   23.15    0.95
   0  10  11   22.58    0.92
   0 -10 -11   22.15    1.03
   0  10  11   23.40    1.10
   0  10  11   22.79    0.88
   0  10  12   27.50    1.01
   0  10  12   25.67    1.21
   0 -10 -12   24.35    1.03
   0 -10 -12   24.70    1.13
   0 -10 -13    1.96    0.32
   0  10  13    1.49    0.26
   0  10  13    1.58    0.35
   0 -10 -13    2.15    0.36
   0 -10 -14   17.44    0.98
   0  10  14   18.51    0.92
   0 -10 -14   18.78    1.05
   0  10  14   20.26    1.19
   0 -10 -14   19.40    1.22
   0 -10 -15   11.04    0.97
   0  10  15   10.46    0.73
   0  10  15   10.89    0.92
   0 -10 -15   10.20    0.81
   0 -10 -15   10.45    0.81
   0 -10 -16    1.58    0.42
   0  10  16    1.89    0.46
   0  10  16    0.91    0.24
   0 -10 -16    1.05    0.29
   0 -11   6    0.41    0.24
   0 -11   5    0.07    0.19
   0  11  -5    0.40    0.20
   0 -11   4    1.18    0.35
   0  11  -4    1.57    0.37
   0  11  -3    1.96    0.38
   0 -11   3    1.04    0.33
   0 -11   2    0.47    0.22
   0  11  -2    0.88    0.26
   0  11  -1   13.19    0.89
   0 -11   1   12.10    0.90
   0 -11   0    1.18    0.30
   0  11   0    1.30    0.30
   0 -11  -1    1.00    0.27
   0  11   1    0.82    0.25
   0 -11  -2   12.38    0.83
   0  11   2   12.97    0.84
   0  11   3    0.51    0.18
   0 -11  -3    0.57    0.21
   0 -11  -4   16.32    0.90
   0  11   4   16.37    0.92
   0 -11  -5   10.09    0.68
   0  11   5   11.86    0.78
   0  11   5   10.73    0.58
   0  11   6    0.01    0.15
   0  11   6   -0.02    0.08
   0 -11  -6   -0.05    0.13
   0 -11  -7   20.88    0.93
   0  11   7   20.19    1.02
   0  11   7   22.73    0.92
   0  11   8    0.49    0.17
   0 -11  -8    0.69    0.21
   0 -11  -8    0.84    0.20
   0 -11  -9   14.42    0.83
   0  11   9   14.04    0.80
   0 -11  -9   13.90    0.72
   0  11  10    1.54    0.29
   0 -11 -10    2.19    0.35
   0  11  11    0.13    0.14
   0 -11 -11    0.06    0.13
   0 -11 -12   20.82    1.07
   0  11  12   20.73    1.10
   0 -11 -13    1.43    0.30
   0  11  13    1.95    0.37
   0 -11 -14    6.35    0.63
   0 -11 -14    8.23    0.80
   0  11  14    7.19    0.72
   0  11  15    5.09    0.63
   0 -11 -15    4.45    0.62
   0 -11 -15    3.69    0.52
   0 -11 -16    0.56    0.24
   0 -12   4    0.27    0.21
   0 -12   3    2.32    0.49
   0  12  -3    3.09    0.49
   0 -12   2   -0.11    0.25
   0  12  -2    0.35    0.22
   0  12  -1    2.89    0.45
   0 -12   1    2.39    0.46
   0  12   0    1.52    0.32
   0 -12   0    1.45    0.36
   0  12   1    0.00    0.11
   0 -12  -1   -0.03    0.19
   0  12   2    6.54    0.63
   0 -12  -2    6.35    0.66
   0 -12  -3    1.40    0.31
   0  12   3    1.37    0.30
   0 -12  -4    2.93    0.42
   0  12   4    2.99    0.42
   0 -12  -5    2.26    0.36
   0  12   5    2.31    0.38
   0  12   6    0.69    0.23
   0 -12  -6    0.82    0.23
   0 -12  -7    2.33    0.36
   0  12   7    2.14    0.30
   0  12   7    2.10    0.37
   0  12   8    0.33    0.15
   0  12   8    0.53    0.21
   0 -12  -8    0.28    0.14
   0  12   9    4.57    0.47
   0 -12  -9    5.06    0.48
   0 -12  -9    4.56    0.52
   0  12  10    0.18    0.11
   0 -12 -10    0.18    0.14
   0  12  11    0.07    0.15
   0 -12 -11    0.18    0.12
   0 -12 -12    5.17    0.57
   0  12  12    4.87    0.55
   0 -12 -13    0.04    0.16
   0  12  13   -0.04    0.16
   0 -12 -14    3.83    0.51
   0 -12 -14    3.86    0.56
   0  12  14    3.73    0.53
   0 -12 -15    1.76    0.37
   0  12  15    2.38    0.46
   0 -12 -15    1.71    0.41
   0 -13   2   -0.07    0.29
   0  13  -2    0.10    0.16
   0 -13   1    2.78    0.52
   0  13  -1    3.38    0.50
   0  13   0    1.50    0.34
   0 -13   0    1.55    0.36
   0 -13  -1    0.14    0.19
   0  13   1    0.11    0.12
   0 -13  -2    5.82    0.67
   0  13   2    5.17    0.59
   0 -13  -3    3.44    0.51
   0  13   3    3.56    0.49
   0  13   4    1.30    0.29
   0 -13  -4    1.67    0.38
   0  13   5    6.80    0.67
   0 -13  -5    5.68    0.60
   0 -13  -6    5.61    0.59
   0  13   6    4.62    0.57
   0  13   7    0.12    0.16
   0 -13  -7    0.06    0.11
   0  13   8   12.28    0.75
   0 -13  -8   11.67    0.80
   0  13   8   11.85    0.88
   0 -13  -9    4.02    0.46
   0  13   9    5.25    0.51
   0 -13  -9    4.46    0.53
   0 -13 -10    0.34    0.19
   0  13  10    0.62    0.22
   0 -13 -11   13.62    0.93
   0  13  11   13.58    0.89
   0 -13 -12    1.37    0.32
   0  13  12    1.19    0.32
   0 -13 -13    2.06    0.38
   0  13  13    2.29    0.43
   0 -13 -14    1.04    0.30
   0 -13 -14    0.68    0.25
   0  13  14    0.98    0.28
   0 -13 -15   -0.05    0.13
   0 -14  -1    0.93    0.30
   0  14   1    0.55    0.23
   0 -14  -2   -0.16    0.24
   0  14   2    0.21    0.16
   0  14   3    3.63    0.52
   0 -14  -3    3.82    0.57
   0 -14  -4    2.60    0.48
   0  14   4    4.19    0.55
   0  14   5   -0.01    0.11
   0 -14  -5    0.04    0.17
   0 -14  -6    2.76    0.45
   0  14   6    2.28    0.41
   0  14   7    2.92    0.46
   0 -14  -7    2.78    0.44
   0 -14  -8    3.13    0.45
   0  14   8    3.30    0.50
   0 -14  -9    4.96    0.54
   0 -14  -9    4.99    0.60
   0 -14 -10   -0.04    0.11
   0  14  10   -0.10    0.15
   0 -14 -11    0.34    0.18
   0  14  11    0.22    0.14
   0 -14 -12    2.62    0.45
   0  14  12    2.31    0.40
   0 -14 -13    1.25    0.31
   0  14  13    1.42    0.33
   0 -14 -14    1.14    0.30
   0 -15  -4    0.16    0.22
   0  15   4    0.10    0.13
   0  15   5    1.01    0.29
   0 -15  -5    0.75    0.28
   0  15   6    2.11    0.42
   0 -15  -6    2.87    0.48
   0  15   7    1.72    0.40
   0 -15  -7    0.87    0.28
   0 -15  -8    2.25    0.41
   0  15   8    2.39    0.44
   0 -15  -9    2.15    0.43
   0 -15  -9    2.50    0.41
   0 -15 -10   -0.02    0.13
   0 -15 -11    0.31    0.20
   0 -15 -12    4.32    0.58
   0  15  12    3.96    0.52
   0 -16  -9    0.39    0.18
  -1  15  12    0.32    0.18
   1 -15 -10    0.90    0.29
   1 -15  -9    0.28    0.21
   1 -15  -8    0.82    0.28
  -1  15   8    0.95    0.29
   1 -15  -7    0.40    0.24
  -1  15   7    0.01    0.15
   1 -15  -6    0.00    0.17
  -1  15   6    0.20    0.16
   1 -15  -5    0.99    0.31
   1 -14 -13    0.49    0.24
  -1  14  13    0.67    0.25
   1 -14 -12    2.74    0.47
  -1  14  12    2.84    0.46
  -1  14  11   -0.01    0.13
   1 -14 -11    0.16    0.16
   1 -14 -10   -0.04    0.14
  -1  14  10    0.17    0.14
   1 -14  -9    1.59    0.33
   1 -14  -9    1.56    0.35
  -1  14   8   -0.09    0.13
   1 -14  -8   -0.09    0.18
  -1  14   7    0.35    0.21
   1 -14  -7   -0.05    0.17
  -1  14   6    0.04    0.16
   1 -14  -6    0.03    0.16
   1 -14  -5    0.02    0.16
  -1  14   5    0.09    0.15
   1 -14  -4   -0.29    0.28
  -1  14   4    0.50    0.23
  -1  14   3    0.24    0.18
   1 -14  -3   -0.05    0.26
  -1  14   2    3.40    0.52
   1 -14  -2    4.24    0.62
   1 -13 -14    4.61    0.60
  -1  13  14    5.58    0.66
   1 -13 -13   -0.01    0.19
  -1  13  13    0.32    0.22
  -1  13  12    9.36    0.79
   1 -13 -12    9.41    0.81
  -1  13  11    2.08    0.36
   1 -13 -11    1.82    0.38
   1 -13 -10    0.23    0.18
  -1  13  10    0.58    0.22
   1 -13  -9   10.33    0.84
  -1  13   9    9.63    0.71
   1 -13  -9    7.89    0.64
  -1  13   8    0.17    0.15
  -1  13   8    0.10    0.14
   1 -13  -8    0.25    0.19
   1 -13  -8    0.29    0.18
   1 -13  -7    5.63    0.58
  -1  13   7    5.58    0.62
   1 -13  -6    4.18    0.50
  -1  13   6    4.60    0.57
   1 -13  -5   -0.11    0.25
  -1  13   5    0.01    0.17
  -1  13   4    5.71    0.63
   1 -13  -4    6.24    0.66
  -1  13   3   -0.04    0.14
   1 -13  -3    0.04    0.16
  -1  13   2    1.31    0.31
   1 -13  -2    0.95    0.32
   1 -13  -1    0.68    0.30
  -1  13   1    1.25    0.32
   1 -13   0    0.18    0.20
  -1  13   0    0.28    0.16
   1 -13   1    2.78    0.51
  -1  13  -1    2.86    0.49
   1 -12 -15    1.24    0.32
  -1  12  14   13.20    0.99
   1 -12 -14   12.02    0.93
  -1  12  13    4.29    0.56
   1 -12 -13    5.82    0.63
  -1  12  12    2.08    0.38
   1 -12 -12    2.68    0.42
  -1  12  11    8.00    0.68
   1 -12 -11    7.92    0.71
  -1  12  10    3.22    0.42
   1 -12 -10    3.88    0.50
   1 -12  -9    3.28    0.45
   1 -12  -9    4.14    0.44
  -1  12   9    3.27    0.41
   1 -12  -8    8.93    0.72
   1 -12  -8    9.15    0.66
  -1  12   8    8.35    0.62
  -1  12   8    7.92    0.69
   1 -12  -7    3.76    0.44
  -1  12   7    3.84    0.49
  -1  12   7    4.06    0.42
  -1  12   6    0.12    0.13
   1 -12  -6    0.18    0.13
   1 -12  -5    6.45    0.60
  -1  12   5    6.92    0.65
  -1  12   4    0.07    0.14
   1 -12  -4    0.26    0.18
  -1  12   3   -0.21    0.18
   1 -12  -3   -0.13    0.16
  -1  12   2    5.34    0.59
   1 -12  -2    5.83    0.62
   1 -12  -1   -0.12    0.23
  -1  12   1   -0.07    0.13
  -1  12   0    0.55    0.21
   1 -12   0    0.18    0.20
   1 -12   1   -0.22    0.25
  -1  12  -1    0.47    0.24
  -1  12  -2   -0.05    0.12
   1 -12   2   -0.30    0.28
   1 -12   3    0.96    0.34
  -1  12  -3    1.07    0.31
   1 -11 -16    0.55    0.26
   1 -11 -15   -0.02    0.19
  -1  11  15    0.03    0.14
   1 -11 -14    0.20    0.19
  -1  11  14    0.46    0.24
   1 -11 -13    0.26    0.16
  -1  11  13    0.83    0.26
   1 -11 -12    0.25    0.19
  -1  11  12    0.11    0.14
   1 -11 -11    2.79    0.42
  -1  11  11    2.42    0.39
  -1  11  10    2.17    0.34
   1 -11 -10    2.56    0.38
  -1  11   9    1.44    0.28
   1 -11  -9    2.13    0.29
   1 -11  -9    1.65    0.31
  -1  11   8   14.82    0.80
  -1  11   8   14.86    0.88
   1 -11  -8   15.09    0.89
   1 -11  -8   15.62    0.79
  -1  11   7    2.38    0.38
  -1  11   7    2.13    0.31
   1 -11  -7    2.19    0.31
  -1  11   6    2.32    0.36
   1 -11  -6    2.62    0.35
  -1  11   6    1.88    0.27
   1 -11  -5   18.32    0.93
  -1  11   5   17.66    0.96
  -1  11   5   17.98    0.78
   1 -11  -4    0.41    0.20
  -1  11   4    0.37    0.16
   1 -11  -3    8.41    0.67
  -1  11   3    7.07    0.64
  -1  11   2   19.54    1.05
   1 -11  -2   19.15    1.04
  -1  11   1    1.94    0.35
   1 -11  -1    1.82    0.37
   1 -11   0    4.18    0.52
  -1  11   0    5.14    0.58
   1 -11   1   -0.12    0.22
  -1  11  -1    0.08    0.13
   1 -11   2    0.46    0.18
  -1  11  -2    0.99    0.28
   1 -11   3    1.84    0.41
  -1  11  -3    2.09    0.40
   1 -11   4    0.87    0.31
  -1  11  -4    1.37    0.36
   1 -11   5    1.29    0.38
   1 -10 -16    0.86    0.29
   1 -10 -16    0.46    0.20
   1 -10 -15    6.32    0.67
  -1  10  15    5.86    0.69
   1 -10 -15    5.62    0.62
   1 -10 -14    2.50    0.41
   1 -10 -14    2.40    0.40
  -1  10  14    3.39    0.51
  -1  10  13   11.03    0.86
   1 -10 -13   11.04    0.82
   1 -10 -13   10.05    0.75
   1 -10 -12    4.93    0.53
   1 -10 -12    6.16    0.56
  -1  10  12    6.17    0.62
   1 -10 -11    3.02    0.41
  -1  10  11    2.18    0.37
   1 -10 -11    2.96    0.37
  -1  10  10   26.70    1.14
   1 -10 -10   29.72    1.22
   1 -10 -10   28.41    1.07
  -1  10   9    3.42    0.41
   1 -10  -9    4.03    0.37
   1 -10  -9    3.63    0.43
  -1  10   8   30.63    1.12
   1 -10  -8   29.89    1.01
   1 -10  -8   29.63    1.18
  -1  10   7   26.58    1.10
  -1  10   7   29.36    1.05
   1 -10  -7   27.38    1.00
  -1  10   6   -0.01    0.13
   1 -10  -6    0.02    0.11
  -1  10   6    0.03    0.09
   1 -10  -5   32.17    1.14
  -1  10   5   33.68    1.03
  -1  10   5   33.19    1.24
  -1  10   4   13.97    0.82
   1 -10  -4   13.96    0.77
  -1  10   4   13.71    0.63
   1 -10  -3    4.78    0.48
  -1  10   3    4.81    0.36
  -1  10   3    4.22    0.47
  -1  10   2    7.52    0.63
   1 -10  -2    8.16    0.63
  -1  10   1    8.91    0.69
   1 -10  -1    8.81    0.68
  -1  10   0    0.55    0.20
   1 -10   0    0.70    0.21
  -1  10  -1    5.05    0.54
   1 -10   1    4.19    0.49
  -1  10  -2    1.68    0.35
   1 -10   2    1.27    0.30
   1 -10   3    0.01    0.16
  -1  10  -3   -0.16    0.16
  -1  10  -4    3.19    0.48
   1 -10   4    3.15    0.50
  -1  10  -5    0.72    0.26
   1 -10   5    0.63    0.27
  -1  10  -6    0.22    0.14
   1 -10   6   -0.10    0.18
   1  -9 -16    0.63    0.26
  -1   9  16    1.31    0.39
   1  -9 -16    0.96    0.33
   1  -9 -16    0.10    0.15
   1  -9 -15    4.06    0.61
  -1   9  15    4.22    0.60
   1  -9 -15    5.13    0.61
   1  -9 -15    3.40    0.51
  -1   9  14   12.36    0.73
  -1   9  14   11.79    0.93
   1  -9 -14   12.19    0.88
   1  -9 -14   13.26    0.92
  -1   9  13    0.04    0.10
   1  -9 -13    0.00    0.14
   1  -9 -13    0.02    0.14
  -1   9  13    0.00    0.14
  -1   9  12    1.32    0.23
   1  -9 -12    1.18    0.26
   1  -9 -12    1.69    0.31
  -1   9  12    1.35    0.29
  -1   9  11    0.21    0.10
   1  -9 -11    0.39    0.19
   1  -9 -11   -0.03    0.14
  -1   9  11    0.19    0.14
   1  -9 -10    0.00    0.13
  -1   9  10   -0.03    0.08
   1  -9 -10   -0.03    0.11
   1  -9  -9    4.45    0.35
   1  -9  -9    5.35    0.49
  -1   9   9    5.32    0.36
  -1   9   9    5.24    0.49
   1  -9  -8    0.24    0.14
  -1   9   8    0.39    0.15
   1  -9  -8    0.19    0.09
  -1   9   8    0.30    0.11
  -1   9   7    0.11    0.12
  -1   9   7    0.20    0.12
   1  -9  -7    0.00    0.09
  -1   9   7   -0.01    0.07
   1  -9  -7   -0.05    0.13
  -1   9   6    8.18    0.52
  -1   9   6    8.19    0.58
   1  -9  -6    8.65    0.42
   1  -9  -6    7.94    0.51
   1  -9  -5    4.65    0.41
  -1   9   5    4.88    0.45
  -1   9   5    4.74    0.38
   1  -9  -5    4.65    0.31
   1  -9  -4   28.09    1.01
  -1   9   4   28.37    0.87
  -1   9   4   26.93    1.06
   1  -9  -3    4.73    0.43
  -1   9   3    4.70    0.34
  -1   9   3    3.70    0.40
  -1   9   2    7.32    0.41
   1  -9  -2    7.31    0.55
  -1   9   2    7.09    0.57
   1  -9  -1   29.19    1.13
  -1   9   1   28.34    1.15
  -1   9   0    1.03    0.25
   1  -9   0    1.12    0.25
  -1   9  -1    6.72    0.61
   1  -9   1    6.32    0.57
  -1   9  -2    5.36    0.56
   1  -9   2    4.14    0.48
   1  -9   3    2.10    0.36
  -1   9  -3    1.73    0.33
  -1   9  -4    5.02    0.58
   1  -9   4    4.64    0.55
   1  -9   5    0.36    0.21
  -1   9  -5    0.32    0.14
   1  -9   6    0.86    0.28
  -1   9  -6    1.17    0.31
   1  -9   7    2.22    0.44
  -1   9  -7    1.96    0.41
  -1   8  17    1.53    0.32
   1  -8 -16    0.92    0.31
  -1   8  16    1.41    0.37
   1  -8 -16    0.49    0.28
   1  -8 -16    0.50    0.24
  -1   8  16    0.39    0.19
  -1   8  15    0.95    0.24
   1  -8 -15    0.77    0.27
  -1   8  15    0.71    0.28
   1  -8 -15    0.44    0.22
   1  -8 -15    0.45    0.22
  -1   8  14   10.82    0.69
   1  -8 -14   10.08    0.82
  -1   8  14   11.23    0.91
   1  -8 -14   11.15    0.83
  -1   8  13    1.93    0.38
   1  -8 -13    2.61    0.40
   1  -8 -13    2.24    0.38
  -1   8  13    2.72    0.34
   1  -8 -12    3.55    0.45
   1  -8 -12    2.77    0.39
  -1   8  12    2.63    0.31
  -1   8  12    2.58    0.41
  -1   8  11   18.78    0.76
  -1   8  11   18.50    0.98
   1  -8 -11   19.09    0.93
   1  -8 -11   21.13    1.01
   1  -8 -10    8.30    0.60
   1  -8 -10    7.65    0.58
  -1   8  10    7.58    0.61
  -1   8  10    8.33    0.48
  -1   8   9   14.81    0.79
   1  -8  -9   16.03    0.80
  -1   8   9   15.60    0.61
   1  -8  -8    6.34    0.39
  -1   8   8    6.53    0.50
   1  -8  -8    6.47    0.50
  -1   8   8    6.19    0.36
   1  -8  -7    0.79    0.15
  -1   8   7    0.62    0.12
   1  -8  -7    0.78    0.19
  -1   8   7    0.72    0.18
  -1   8   6   27.46    0.96
  -1   8   6   28.51    0.93
   1  -8  -6   27.96    0.87
  -1   8   6   28.67    0.70
  -1   8   5    1.28    0.20
  -1   8   5    1.17    0.22
   1  -8  -5    1.22    0.15
   1  -8  -5    1.96    0.25
   1  -8  -4   55.70    1.29
  -1   8   4   59.05    1.21
  -1   8   4   56.33    1.42
   1  -8  -4   57.33    1.01
   1  -8  -3    7.94    0.51
   1  -8  -3    7.83    0.40
  -1   8   3    8.09    0.43
  -1   8   3    6.73    0.50
   1  -8  -2    2.68    0.24
   1  -8  -2    3.10    0.34
  -1   8   2    2.53    0.32
  -1   8   2    2.55    0.23
   1  -8  -1  145.06    1.74
  -1   8   1  149.95    2.50
   1  -8  -1  148.05    2.33
  -1   8   1  154.23    1.68
  -1   8   0    4.39    0.45
   1  -8   0    4.64    0.33
  -1   8   0    4.68    0.28
   1  -8   0    4.27    0.43
   1  -8   1   22.64    0.97
  -1   8  -1   24.17    1.06
   1  -8   1   23.53    0.76
   1  -8   2   23.53    1.02
   1  -8   2   24.97    0.83
  -1   8  -2   25.47    1.13
   1  -8   3    5.84    0.54
  -1   8  -3    5.91    0.57
   1  -8   3    6.26    0.45
  -1   8  -4   15.38    0.94
   1  -8   4   15.19    0.88
   1  -8   4   18.62    0.81
  -1   8  -4   16.82    0.77
   1  -8   5    8.13    0.67
  -1   8  -5    7.40    0.54
   1  -8   5    7.49    0.55
  -1   8  -5    8.27    0.73
  -1   8  -6    0.21    0.19
   1  -8   6    0.03    0.16
  -1   8  -7    0.46    0.22
   1  -8   7    0.67    0.24
   1  -8   8    1.11    0.28
  -1   8  -8    1.38    0.36
   1  -8   9    0.21    0.22
  -1   7  17    2.55    0.42
   1  -7 -17    2.68    0.49
   1  -7 -16   14.14    1.17
   1  -7 -16   13.60    1.08
  -1   7  16   14.32    1.14
  -1   7  16   12.02    0.84
   1  -7 -16   12.44    0.98
   1  -7 -15    5.52    0.67
   1  -7 -15    4.49    0.56
   1  -7 -15    5.42    0.69
  -1   7  15    5.94    0.70
  -1   7  15    4.67    0.50
   1  -7 -14   17.89    1.18
   1  -7 -14   19.69    1.16
  -1   7  14   17.20    0.89
   1  -7 -14   16.67    1.02
  -1   7  14   17.79    1.15
   1  -7 -13   37.53    1.43
  -1   7  13   38.92    1.58
  -1   7  13   36.99    1.23
   1  -7 -13   39.33    1.56
   1  -7 -12    0.23    0.14
  -1   7  12    0.32    0.14
   1  -7 -12    0.35    0.20
  -1   7  12    0.17    0.17
  -1   7  11   48.69    1.58
   1  -7 -11   49.80    1.56
   1  -7 -11   50.82    1.49
  -1   7  11   46.45    1.20
  -1   7  10   65.79    1.34
   1  -7 -10   67.01    1.63
   1  -7 -10   70.37    1.76
  -1   7  10   65.85    1.74
  -1   7   9   13.24    0.57
  -1   7   9   12.89    0.74
   1  -7  -9   14.15    0.72
  -1   7   8   50.45    1.01
   1  -7  -8   50.82    0.97
   1  -7  -8   51.79    1.33
  -1   7   8   51.15    1.36
   1  -7  -7   13.56    0.66
  -1   7   7   13.77    0.49
  -1   7   7   13.27    0.66
   1  -7  -7   13.88    0.53
  -1   7   6    5.23    0.40
  -1   7   6    5.34    0.40
  -1   7   6    5.09    0.28
   1  -7  -6    5.30    0.35
   1  -7  -6    5.12    0.40
  -1   7   5   44.65    1.13
   1  -7  -5   43.97    1.01
  -1   7   5   44.32    0.79
  -1   7   5   43.42    1.06
  -1   7   4    0.44    0.15
   1  -7  -4    0.39    0.13
  -1   7   4    0.36    0.11
   1  -7  -4    0.24    0.07
  -1   7   3    3.85    0.36
  -1   7   3    3.80    0.29
   1  -7  -3    3.49    0.32
   1  -7  -3    3.70    0.25
  -1   7   2    1.29    0.23
  -1   7   2    1.42    0.18
   1  -7  -2    1.08    0.16
   1  -7  -2    0.91    0.20
   1  -7  -1    0.66    0.12
  -1   7   1    1.21    0.24
  -1   7   1    0.67    0.12
   1  -7  -1    0.81    0.20
  -1   7   0   15.92    0.79
   1  -7   0   16.29    0.73
   1  -7   0   15.78    0.54
  -1   7   0   15.59    0.49
  -1   7  -1    0.15    0.06
   1  -7   1    0.31    0.11
  -1   7  -1    0.05    0.17
   1  -7   1    0.23    0.15
  -1   7  -2    0.51    0.15
   1  -7   2    0.65    0.15
   1  -7   2    0.20    0.16
   1  -7   3   17.70    0.84
  -1   7  -3   18.53    0.73
  -1   7  -3   18.88    0.95
   1  -7   3   18.74    0.72
   1  -7   4    0.49    0.16
   1  -7   4    0.24    0.16
  -1   7  -4    0.59    0.17
  -1   7  -4    0.47    0.20
   1  -7   5   10.40    0.70
  -1   7  -5   10.74    0.78
  -1   7  -5   11.23    0.65
   1  -7   5   11.33    0.64
   1  -7   6    5.33    0.53
  -1   7  -6    4.98    0.56
   1  -7   6    4.84    0.45
  -1   7  -6    5.19    0.48
   1  -7   7    0.29    0.19
   1  -7   7    0.80    0.21
  -1   7  -7    0.39    0.17
  -1   7  -7    0.58    0.23
  -1   7  -8    4.00    0.47
   1  -7   8    3.84    0.50
  -1   7  -8    3.85    0.53
   1  -7   9    2.24    0.42
  -1   7  -9    3.19    0.51
   1  -7  10   -0.13    0.17
  -1   6  16    1.40    0.30
   1  -6 -16    2.37    0.46
  -1   6  16    1.62    0.44
   1  -6 -16    1.70    0.36
   1  -6 -16    1.73    0.43
   1  -6 -15    4.07    0.58
  -1   6  15    3.79    0.46
   1  -6 -15    3.42    0.55
  -1   6  15    4.50    0.61
   1  -6 -15    4.04    0.55
  -1   6  14    1.05    0.24
   1  -6 -14    1.60    0.37
   1  -6 -14    1.32    0.33
  -1   6  14    1.53    0.36
   1  -6 -14    1.58    0.38
   1  -6 -13    9.63    0.73
  -1   6  13    9.75    0.65
   1  -6 -13   10.39    0.82
  -1   6  13    9.37    0.79
  -1   6  12   -0.05    0.11
   1  -6 -12   -0.03    0.13
   1  -6 -12    0.22    0.20
  -1   6  12    0.04    0.14
   1  -6 -11    3.12    0.42
  -1   6  11    2.68    0.38
  -1   6  11    2.41    0.29
   1  -6 -11    2.25    0.33
  -1   6  10   17.46    0.70
  -1   6  10   18.98    0.93
   1  -6 -10   18.89    0.85
   1  -6 -10   17.29    0.89
   1  -6  -9    1.88    0.25
   1  -6  -9    1.57    0.27
  -1   6   9    2.07    0.24
  -1   6   9    2.07    0.31
   1  -6  -8    9.90    0.56
   1  -6  -8   10.19    0.38
  -1   6   8   10.34    0.46
  -1   6   8   10.03    0.61
   1  -6  -7   14.02    0.64
  -1   6   7   14.25    0.50
  -1   6   7   13.77    0.66
   1  -6  -7   13.60    0.47
  -1   6   6   32.08    0.68
   1  -6  -6   32.08    0.93
   1  -6  -6   32.41    0.75
  -1   6   6   32.70    0.95
   1  -6  -5   48.64    0.95
  -1   6   5   50.00    0.79
  -1   6   5   48.96    1.10
  -1   6   5   48.05    1.09
  -1   6   4    7.96    0.30
  -1   6   4    8.37    0.43
   1  -6  -4    7.73    0.40
  -1   6   4    8.41    0.46
   1  -6  -3    0.30    0.10
  -1   6   3    0.48    0.12
  -1   6   3    0.15    0.10
   1  -6  -3    0.46    0.08
  -1   6   2    1.18    0.19
   1  -6  -2    1.13    0.13
  -1   6   2    1.08    0.14
   1  -6  -2    0.95    0.17
  -1   6   1   47.72    0.85
   1  -6  -1   44.60    0.81
   1  -6  -1   46.60    1.08
  -1   6   1   48.03    1.22
  -1   6   0   52.12    0.86
   1  -6   0   52.44    0.89
   1  -6   0   53.00    1.20
  -1   6   0   52.65    1.32
   1  -6   1    6.77    0.35
  -1   6  -1    7.13    0.51
  -1   6  -1    6.64    0.30
   1  -6   1    6.71    0.45
  -1   6  -2    3.45    0.29
   1  -6   2    2.39    0.29
   1  -6   2    2.83    0.25
  -1   6  -2    3.43    0.38
  -1   6  -2    3.51    0.22
  -1   6  -3   17.72    0.86
   1  -6   3   18.08    0.66
  -1   6  -3   17.82    0.69
   1  -6   3   17.58    0.77
  -1   6  -3   18.64    0.50
  -1   6  -3   18.61    0.57
   1  -6   4   10.45    0.54
  -1   6  -4    9.94    0.55
   1  -6   4    9.38    0.59
  -1   6  -4    9.45    0.66
  -1   6  -5   22.25    1.05
  -1   6  -5   21.97    0.88
   1  -6   5   23.06    0.85
   1  -6   5   21.63    0.92
  -1   6  -6   18.02    0.99
   1  -6   6   16.07    0.82
  -1   6  -6   17.42    0.84
   1  -6   6   17.75    0.80
  -1   6  -7    1.63    0.30
  -1   6  -7    1.30    0.31
   1  -6   7    1.39    0.26
   1  -6   7    1.29    0.26
  -1   6  -8    8.50    0.66
   1  -6   8    8.43    0.68
  -1   6  -8    8.35    0.74
   1  -6   9    4.65    0.55
  -1   6  -9    4.49    0.57
  -1   6  -9    4.43    0.52
   1  -6  10    2.06    0.40
  -1   6 -10    1.47    0.33
  -1   6 -10    2.09    0.41
  -1   6 -11    2.83    0.46
   1  -6  11    2.32    0.44
   1  -5 -17    0.03    0.16
   1  -5 -16   -0.01    0.20
  -1   5  16    0.73    0.27
   1  -5 -16    0.58    0.25
   1  -5 -15    5.08    0.62
  -1   5  15    5.02    0.64
   1  -5 -15    4.53    0.62
  -1   5  15    5.41    0.57
   1  -5 -15    5.32    0.67
   1  -5 -14    5.42    0.64
   1  -5 -14    4.16    0.57
  -1   5  14    4.74    0.60
  -1   5  14    4.58    0.49
   1  -5 -14    4.91    0.58
   1  -5 -13    3.29    0.49
   1  -5 -13    3.89    0.53
  -1   5  13    3.13    0.38
  -1   5  13    3.56    0.49
   1  -5 -13    3.92    0.48
   1  -5 -12    9.49    0.68
  -1   5  12    9.53    0.75
  -1   5  12    8.66    0.58
   1  -5 -12    9.73    0.76
   1  -5 -11    1.44    0.27
  -1   5  11    1.03    0.25
  -1   5  11    1.06    0.20
   1  -5 -11    1.16    0.29
   1  -5 -10   41.64    1.38
  -1   5  10   41.11    1.10
   1  -5 -10   41.35    1.25
  -1   5  10   40.89    1.35
   1  -5  -9   63.74    1.45
  -1   5   9   67.18    1.62
   1  -5  -9   61.74    1.59
  -1   5   9   60.77    1.24
  -1   5   8    9.85    0.59
   1  -5  -8    8.80    0.51
  -1   5   8    9.61    0.46
   1  -5  -8    9.28    0.28
  -1   5   7   92.97    1.28
   1  -5  -7   93.84    1.57
   1  -5  -7   92.31    1.02
  -1   5   7   95.46    1.71
   1  -5  -6   95.40    1.51
   1  -5  -6   96.91    1.12
  -1   5   6   94.08    1.16
  -1   5   6   96.90    1.59
   1  -5  -5  151.73    1.83
  -1   5   5  151.75    1.32
  -1   5   5  153.56    1.88
   1  -5  -5  150.39    1.48
  -1   5   5  153.17    1.78
  -1   5   4  231.07    2.14
   1  -5  -4  228.05    1.91
  -1   5   4  232.36    2.14
  -1   5   4  228.93    1.49
  -1   5   3    7.20    0.36
  -1   5   3    6.73    0.37
   1  -5  -3    6.65    0.34
  -1   5   2   21.99    0.70
   1  -5  -2   21.94    0.48
  -1   5   2   22.18    0.59
   1  -5  -2   21.57    0.64
  -1   5   1  332.77    2.89
  -1   5   1  337.80    2.16
   1  -5  -1  327.00    1.95
   1  -5  -1  343.18    2.64
  -1   5   0   31.89    0.94
   1  -5   0   31.73    0.62
  -1   5   0   31.17    0.63
   1  -5   0   31.94    0.85
  -1   5  -1   14.19    0.66
   1  -5   1   14.37    0.59
  -1   5  -1   13.84    0.50
   1  -5   1   14.05    0.44
  -1   5  -1   13.44    0.41
  -1   5  -2    1.25    0.22
  -1   5  -2    1.45    0.19
  -1   5  -2    1.53    0.15
   1  -5   2    1.53    0.18
   1  -5   2    1.15    0.18
  -1   5  -2    1.49    0.16
   1  -5   3    8.54    0.49
  -1   5  -3    9.41    0.48
  -1   5  -3    9.51    0.40
   1  -5   3    9.65    0.45
  -1   5  -3    9.54    0.60
   1  -5   4   36.12    1.04
   1  -5   4   38.17    0.96
  -1   5  -4   38.67    0.85
  -1   5  -4   38.61    1.04
  -1   5  -4   37.75    1.21
  -1   5  -5    3.21    0.34
   1  -5   5    2.38    0.27
  -1   5  -5    2.95    0.26
   1  -5   5    2.77    0.31
   1  -5   6   12.87    0.65
   1  -5   6   11.94    0.65
  -1   5  -6   12.54    0.69
   1  -5   7    6.12    0.49
  -1   5  -7    5.40    0.49
   1  -5   7    5.42    0.46
  -1   5  -8    1.31    0.28
   1  -5   8    1.47    0.30
   1  -5   8    1.46    0.26
   1  -5   9   19.69    1.04
  -1   5  -9   18.82    1.02
  -1   5 -10    3.45    0.48
   1  -5  10    3.70    0.51
   1  -5  11   -0.03    0.13
  -1   5 -11    0.20    0.16
  -1   5 -12    1.52    0.35
  -1   4  16    8.15    0.74
   1  -4 -16    8.88    0.87
   1  -4 -16    8.42    0.83
   1  -4 -15    0.29    0.23
  -1   4  15    0.17    0.15
  -1   4  14   15.27    1.03
   1  -4 -14   14.97    0.98
   1  -4 -14   13.89    1.03
   1  -4 -14   13.22    0.98
  -1   4  14   13.65    0.85
  -1   4  13    0.47    0.22
   1  -4 -13    0.31    0.16
  -1   4  13    0.14    0.14
   1  -4 -13    0.54    0.27
   1  -4 -13    0.62    0.21
   1  -4 -12   19.20    1.07
   1  -4 -12   18.29    0.97
   1  -4 -12   19.29    1.06
  -1   4  12   18.36    0.88
  -1   4  12   19.29    1.04
   1  -4 -11   46.24    1.58
  -1   4  11   47.03    1.52
  -1   4  11   45.80    1.29
   1  -4 -11   50.36    1.48
  -1   4  10    2.79    0.37
  -1   4  10    2.77    0.31
   1  -4 -10    3.03    0.36
   1  -4 -10    3.05    0.40
  -1   4   9   78.32    1.46
   1  -4  -9   82.49    1.85
  -1   4   9   82.65    1.79
   1  -4  -9   83.48    1.67
   1  -4  -8    0.28    0.12
   1  -4  -8    0.16    0.11
  -1   4   8    0.23    0.11
  -1   4   8    0.22    0.14
   1  -4  -7   19.18    0.34
   1  -4  -7   21.14    0.73
  -1   4   7   20.15    0.62
  -1   4   7   20.44    0.78
   1  -4  -6  118.60    1.01
  -1   4   6  122.86    1.36
  -1   4   6  120.62    1.74
   1  -4  -6  122.93    1.64
  -1   4   5   14.00    0.41
  -1   4   5   13.48    0.55
   1  -4  -5   15.34    0.55
   1  -4  -5   13.77    0.38
  -1   4   4   34.43    0.75
   1  -4  -4   35.12    0.79
   1  -4  -4   34.91    0.65
  -1   4   4   35.33    0.81
  -1   4   4   34.30    0.55
  -1   4   3   47.12    0.87
   1  -4  -3   46.74    0.79
  -1   4   3   47.46    0.57
  -1   4   3   45.88    0.85
   1  -4  -2    7.06    0.33
   1  -4  -2    7.15    0.21
  -1   4   2    7.41    0.36
  -1   4   2    7.41    0.32
  -1   4   1   83.46    1.02
   1  -4  -1   84.60    1.17
  -1   4   1   82.75    1.28
   1  -4  -1   83.02    0.84
   1  -4   0   62.20    0.74
   1  -4   0   62.54    1.06
  -1   4   0   63.61    0.86
  -1   4   0   62.95    1.20
  -1   4  -1    1.39    0.13
   1  -4   1    1.46    0.14
  -1   4  -1    1.16    0.13
  -1   4  -1    1.37    0.16
   1  -4   1    1.17    0.17
  -1   4  -1    1.10    0.18
  -1   4  -2   13.11    0.44
  -1   4  -2   13.54    0.49
   1  -4   2   12.79    0.52
   1  -4   2   13.16    0.43
  -1   4  -2   13.03    0.60
  -1   4  -3   63.85    1.17
  -1   4  -3   63.23    1.01
   1  -4   3   62.03    1.03
   1  -4   3   63.61    1.21
   1  -4   4    7.94    0.42
  -1   4  -4    8.35    0.40
  -1   4  -4    8.11    0.46
   1  -4   4    7.91    0.45
  -1   4  -5    3.55    0.28
  -1   4  -5    4.16    0.37
   1  -4   5    3.74    0.32
   1  -4   5    3.59    0.32
  -1   4  -6    1.17    0.18
   1  -4   6    0.96    0.18
  -1   4  -6    1.12    0.22
   1  -4   6    0.97    0.19
   1  -4   7    0.02    0.09
  -1   4  -7    0.05    0.13
   1  -4   7   -0.08    0.17
  -1   4  -8    0.42    0.17
   1  -4   8    0.81    0.23
   1  -4   8    0.57    0.17
  -1   4  -9    4.19    0.48
   1  -4   9    3.81    0.45
   1  -4  10    3.09    0.43
  -1   4 -10    3.20    0.45
   1  -4  11    0.19    0.14
  -1   4 -11    0.11    0.16
   1  -4  12    4.92    0.61
  -1   4 -12    4.65    0.59
   1  -3 -16    4.55    0.62
  -1   3  16    5.11    0.60
  -1   3  15    0.34    0.19
   1  -3 -15    0.63    0.30
   1  -3 -15    0.01    0.16
   1  -3 -14    4.85    0.60
  -1   3  14    3.67    0.47
   1  -3 -14    3.61    0.52
   1  -3 -14    3.17    0.51
   1  -3 -13    1.56    0.33
  -1   3  13    1.23    0.30
   1  -3 -13    1.28    0.35
  -1   3  13    1.45    0.29
   1  -3 -13    0.91    0.27
  -1   3  12    1.96    0.30
  -1   3  12    2.35    0.37
   1  -3 -12    1.63    0.34
   1  -3 -12    2.09    0.36
   1  -3 -12    1.72    0.33
   1  -3 -11    1.45    0.32
   1  -3 -11    1.61    0.29
  -1   3  11    1.42    0.26
  -1   3  11    1.58    0.28
   1  -3 -11    1.74    0.32
  -1   3  10    1.43    0.27
  -1   3  10    1.40    0.23
   1  -3 -10    0.79    0.20
   1  -3 -10    1.13    0.28
  -1   3   9   10.31    0.55
  -1   3   9   10.17    0.62
   1  -3  -9   10.26    0.60
   1  -3  -9   10.50    0.67
  -1   3   8    0.65    0.18
   1  -3  -8    0.06    0.13
   1  -3  -8    0.28    0.03
  -1   3   8    0.31    0.11
   1  -3  -8    0.59    0.17
  -1   3   7    1.21    0.17
   1  -3  -7    1.17    0.19
   1  -3  -7    1.08    0.09
  -1   3   7    1.00    0.19
   1  -3  -7    1.13    0.20
   1  -3  -6   18.11    0.62
   1  -3  -6   16.16    0.25
  -1   3   6   18.25    0.55
  -1   3   6   18.02    0.66
   1  -3  -6   17.92    0.32
  -1   3   5   81.60    1.30
   1  -3  -5   81.99    1.21
   1  -3  -5   81.30    0.72
  -1   3   5   85.54    1.04
   1  -3  -4  118.83    0.97
  -1   3   4  120.92    1.06
  -1   3   4  114.18    1.41
   1  -3  -4  117.34    1.34
  -1   3   3   96.74    1.20
  -1   3   3   96.88    0.77
   1  -3  -3   95.46    1.13
   1  -3  -3   96.81    0.96
  -1   3   3   94.44    1.09
  -1   3   2    6.55    0.29
   1  -3  -2    6.93    0.28
  -1   3   2    6.89    0.30
  -1   3   2    7.25    0.17
  -1   3   1   36.25    0.72
   1  -3  -1   35.79    0.43
   1  -3  -1   36.36    0.67
  -1   3   1   36.60    0.63
  -1   3   0  245.89    2.06
   1  -3   0  241.85    1.82
  -1   3   0  242.35    1.58
   1  -3   0  236.08    1.15
  -1   3  -1   20.70    0.51
  -1   3  -1   20.33    0.63
  -1   3  -1   20.47    0.49
   1  -3   1   20.48    0.41
   1  -3   1   20.56    0.56
   1  -3   2  107.54    1.12
  -1   3  -2  109.51    1.21
   1  -3   2  111.57    1.37
  -1   3  -2  110.73    1.31
  -1   3  -3  144.36    1.49
   1  -3   3  145.41    1.64
   1  -3   3  145.72    1.47
  -1   3  -3  148.18    1.68
  -1   3  -4    3.05    0.28
   1  -3   4    2.99    0.25
  -1   3  -4    2.97    0.24
   1  -3   4    2.71    0.24
   1  -3   5   88.96    1.41
   1  -3   5   87.73    1.40
  -1   3  -5   87.83    1.35
  -1   3  -5   90.02    1.58
  -1   3  -6    7.42    0.43
   1  -3   6    6.98    0.42
   1  -3   6    6.69    0.43
  -1   3  -6    6.69    0.48
   1  -3   7   12.23    0.57
   1  -3   7   12.92    0.64
  -1   3  -7   13.23    0.61
   1  -3   7   12.79    0.66
  -1   3  -7   12.53    0.69
   1  -3   8   37.51    1.02
  -1   3  -8   36.47    1.26
  -1   3  -8   39.94    1.11
   1  -3   8   39.38    1.24
   1  -3   9    0.29    0.17
  -1   3  -9    0.01    0.14
   1  -3  10    8.17    0.65
  -1   3 -10    7.27    0.65
   1  -3  11    1.01    0.26
  -1   3 -11    1.11    0.29
  -1   3 -12    3.34    0.50
   1  -3  12    3.23    0.48
   1  -3  13    4.19    0.57
  -1   3 -13    3.98    0.58
   1  -2 -16    2.43    0.48
   1  -2 -15    9.51    0.87
  -1   2  15    9.50    0.80
  -1   2  14    3.43    0.48
   1  -2 -14    3.35    0.48
   1  -2 -14    4.04    0.55
   1  -2 -13   27.19    1.26
  -1   2  13   28.03    1.20
   1  -2 -13   27.01    1.36
   1  -2 -13   28.42    1.34
  -1   2  12   21.92    1.07
  -1   2  12   21.82    1.00
   1  -2 -12   23.38    1.13
   1  -2 -12   21.81    1.17
   1  -2 -12   20.53    1.06
   1  -2 -11    3.96    0.48
  -1   2  11    3.27    0.38
  -1   2  11    3.78    0.42
   1  -2 -11    3.54    0.44
   1  -2 -11    3.53    0.42
   1  -2 -10   60.46    1.72
  -1   2  10   60.90    1.60
   1  -2 -10   60.87    1.62
   1  -2 -10   63.61    1.63
  -1   2  10   60.92    1.47
  -1   2   9    6.81    0.51
  -1   2   9    7.20    0.48
   1  -2  -9    7.46    0.53
   1  -2  -9    5.92    0.53
   1  -2  -8   35.53    0.49
   1  -2  -8   37.83    1.19
  -1   2   8   37.96    1.10
  -1   2   8   37.87    1.00
   1  -2  -8   37.83    1.08
  -1   2   7   84.94    1.35
   1  -2  -7   82.87    0.78
   1  -2  -7   83.29    1.65
   1  -2  -7   88.23    1.50
  -1   2   7   84.78    1.52
   1  -2  -6    0.67    0.17
   1  -2  -6    0.77    0.08
  -1   2   6    0.76    0.15
   1  -2  -6    0.79    0.15
  -1   2   6    0.74    0.14
  -1   2   5  248.44    1.85
   1  -2  -5  247.07    1.23
  -1   2   5  245.31    2.18
   1  -2  -5  249.15    2.08
  -1   2   4    7.13    0.34
   1  -2  -4    7.05    0.17
  -1   2   4    7.37    0.28
   1  -2  -4    7.41    0.33
   1  -2  -3   86.24    1.00
  -1   2   3   86.41    1.07
   1  -2  -3   86.06    0.70
  -1   2   3   89.81    0.79
  -1   2   2  185.25    1.24
  -1   2   2  183.05    1.43
   1  -2  -2  182.58    1.14
  -1   2   2  194.09    0.83
   1  -2  -1   31.28    0.52
  -1   2   1   31.80    0.55
  -1   2   1   32.83    0.55
   1  -2   0  988.49    3.13
   1  -2   0 1000.00    1.72
  -1   2  -1   23.64    0.49
  -1   2  -1   23.45    0.50
   1  -2   1   23.54    0.38
   1  -2   1   22.78    0.51
   1  -2   2    4.25    0.24
  -1   2  -2    4.15    0.23
  -1   2  -2    4.24    0.24
   1  -2   2    4.02    0.20
   1  -2   3  187.11    1.55
  -1   2  -3  188.58    1.77
   1  -2   3  186.61    1.65
  -1   2  -3  188.78    1.66
  -1   2  -4   37.29    0.95
  -1   2  -4   35.68    0.86
   1  -2   4   36.77    0.78
   1  -2   4   36.51    0.77
  -1   2  -4   37.24    0.81
  -1   2  -5   29.73    0.93
   1  -2   5   28.32    0.71
   1  -2   5   28.81    0.77
  -1   2  -5   27.31    0.83
  -1   2  -5   29.23    0.79
  -1   2  -6   54.06    1.35
   1  -2   6   53.72    1.18
  -1   2  -6   54.05    1.15
   1  -2   6   53.20    1.14
  -1   2  -6   52.05    1.24
   1  -2   6   52.98    1.02
   1  -2   7   12.06    0.51
  -1   2  -7   12.75    0.60
  -1   2  -7   13.05    0.72
  -1   2  -7   12.84    0.67
   1  -2   7   12.50    0.62
   1  -2   8   12.09    0.67
   1  -2   8   12.40    0.53
  -1   2  -8   12.23    0.64
  -1   2  -8   11.27    0.68
  -1   2  -8   12.32    0.74
   1  -2   9    9.28    0.63
  -1   2  -9   10.80    0.74
  -1   2  -9    9.85    0.68
  -1   2  -9   10.53    0.63
  -1   2 -10    0.23    0.13
  -1   2 -10    0.54    0.21
  -1   2 -10    0.34    0.18
   1  -2  10    0.43    0.19
   1  -2  11    0.48    0.19
  -1   2 -11    0.08    0.20
  -1   2 -11    0.02    0.16
   1  -2  12    1.51    0.32
  -1   2 -12    1.44    0.35
  -1   2 -12    1.35    0.34
  -1   2 -13    0.66    0.29
   1  -2  13    0.72    0.28
  -1   2 -13    0.00    0.25
   1  -1 -15   16.94    1.19
  -1   1  15   13.18    0.97
  -1   1  14    1.77    0.36
   1  -1 -14    1.88    0.43
  -1   1  13    9.83    0.74
   1  -1 -13   10.76    0.78
   1  -1 -13   11.07    0.86
   1  -1 -12   15.46    0.94
  -1   1  12   13.57    0.82
   1  -1 -12   14.26    0.85
   1  -1 -11    3.10    0.41
   1  -1 -11    2.82    0.42
  -1   1  11    2.84    0.37
   1  -1 -11    2.72    0.36
  -1   1  11    2.47    0.34
   1  -1 -10   47.16    1.44
   1  -1 -10   44.76    1.48
   1  -1 -10   45.36    1.35
  -1   1  10   44.03    1.28
  -1   1  10   44.90    1.33
   1  -1  -9   15.76    0.75
  -1   1   9   15.47    0.73
  -1   1   9   17.13    0.75
   1  -1  -9   16.76    0.86
   1  -1  -9   17.56    0.83
   1  -1  -8    2.43    0.32
   1  -1  -8    2.17    0.32
  -1   1   8    2.42    0.29
  -1   1   8    2.25    0.27
   1  -1  -8    2.33    0.16
  -1   1   7   29.29    0.82
   1  -1  -7   28.98    0.54
  -1   1   7   29.34    0.83
   1  -1  -7   29.00    0.90
   1  -1  -7   29.28    0.98
  -1   1   7   29.58    0.88
  -1   1   6   26.07    0.76
   1  -1  -6   26.75    0.52
   1  -1  -6   26.13    0.85
   1  -1  -6   27.06    0.78
  -1   1   6   26.21    0.71
   1  -1  -5   29.80    0.74
  -1   1   5   29.63    0.74
   1  -1  -5   29.42    0.54
  -1   1   5   30.18    0.69
   1  -1  -5   29.76    0.84
   1  -1  -4    0.19    0.08
   1  -1  -4    0.15    0.04
  -1   1   4    0.10    0.07
  -1   1   4    0.16    0.08
   1  -1  -3    0.33    0.04
  -1   1   3    0.49    0.09
   1  -1  -3    0.14    0.06
  -1   1   3    0.19    0.06
  -1   1   2   65.55    0.58
  -1   1   2   67.62    0.80
   1  -1  -2   68.29    0.54
   1  -1  -2   66.67    0.73
  -1   1  -1   17.94    0.38
   1  -1   1   17.87    0.38
  -1   1  -1   18.12    0.40
  -1   1  -2    0.75    0.10
   1  -1   2    0.49    0.07
   1  -1   2    0.66    0.09
  -1   1  -2    0.78    0.11
   1  -1   3   32.43    0.60
   1  -1   3   31.71    0.59
  -1   1  -3   32.92    0.68
  -1   1  -3   32.54    0.69
  -1   1  -3   32.22    0.71
   1  -1   4   75.51    1.06
   1  -1   4   74.70    1.08
  -1   1  -4   74.30    1.17
   1  -1   4   75.43    0.97
  -1   1  -4   74.67    1.21
  -1   1  -4   76.65    1.15
   1  -1   5    2.94    0.25
   1  -1   5    3.10    0.22
  -1   1  -5    2.73    0.25
  -1   1  -5    3.01    0.28
  -1   1  -6    6.50    0.45
  -1   1  -6    7.10    0.42
   1  -1   6    6.35    0.39
   1  -1   6    6.08    0.31
   1  -1   7   33.91    0.76
  -1   1  -7   35.65    1.02
   1  -1   7   34.15    0.99
  -1   1  -7   35.16    1.10
   1  -1   8    3.19    0.24
   1  -1   8    2.80    0.32
  -1   1  -8    2.89    0.32
  -1   1  -8    3.59    0.40
   1  -1   9   23.21    0.94
  -1   1  -9   24.65    1.06
  -1   1  -9   23.24    0.94
  -1   1 -10    7.43    0.62
   1  -1  10    8.25    0.61
  -1   1 -10    8.16    0.59
  -1   1 -10    8.22    0.66
   1  -1  11    0.54    0.21
  -1   1 -11    0.19    0.16
  -1   1 -11    0.12    0.16
  -1   1 -11    0.41    0.19
  -1   1 -12   14.69    0.98
   1  -1  12   17.87    1.01
  -1   1 -12   18.14    1.09
  -1   1 -13   -0.18    0.20
  -1   1 -13   -0.03    0.20
   1  -1  13   -0.07    0.15
  -1   1 -14    2.99    0.52
  -1   1 -14    2.33    0.45
   1  -1  14    3.18    0.49
   1   0 -15    3.68    0.59
  -1   0  14   -0.16    0.17
   1   0 -14    0.05    0.19
   1   0 -13    2.32    0.44
  -1   0  13    2.33    0.40
  -1   0  12    3.14    0.43
   1   0 -12    3.05    0.39
   1   0 -12    3.66    0.50
   1   0 -11    8.52    0.61
  -1   0  11    8.29    0.63
   1   0 -11    8.24    0.69
   1   0 -10   24.03    1.06
  -1   0  10   24.41    0.95
  -1   0  10   22.86    0.96
   1   0 -10   23.92    0.96
   1   0 -10   21.99    1.07
   1   0  -9   36.82    1.23
   1   0  -9   35.99    1.26
   1   0  -9   38.91    1.15
  -1   0   9   38.84    1.15
  -1   0   9   38.07    1.11
  -1   0   9   37.81    1.15
   1   0  -8    2.52    0.34
   1   0  -8    2.00    0.18
  -1   0   8    2.00    0.27
   1   0  -8    1.94    0.25
  -1   0   8    2.33    0.27
   1   0  -8    2.50    0.34
   1   0  -7    9.63    0.56
   1   0  -7    9.44    0.36
  -1   0   7    9.71    0.49
   1   0  -7    9.28    0.49
  -1   0   7    9.98    0.51
  -1   0   7    9.34    0.23
   1   0  -7   10.18    0.59
  -1   0   6   66.87    0.60
   1   0  -6   69.99    0.95
  -1   0   6   67.82    1.18
   1   0  -6   72.82    1.36
  -1   0   6   71.89    1.23
   1   0  -6   70.47    1.41
   1   0  -5    4.80    0.25
   1   0  -5    4.60    0.33
  -1   0   5    4.97    0.30
  -1   0   5    5.02    0.16
   1   0  -5    5.87    0.36
  -1   0   5    4.88    0.29
   1   0  -4  129.54    1.46
  -1   0   4  127.80    1.32
   1   0  -4  129.46    1.57
  -1   0   4  132.58    1.34
   1   0  -4  124.01    1.19
   1   0  -3   52.45    0.70
  -1   0   3   52.72    0.74
   1   0  -3   51.11    0.80
  -1   0   3   52.51    0.74
   1   0  -2    1.95    0.12
  -1   0   2    1.94    0.12
  -1   0   2    1.95    0.13
   1   0  -2    1.91    0.13
   1   0   2  210.98    1.20
  -1   0  -2  203.81    1.23
   1   0   2  209.68    1.25
  -1   0  -2  205.73    1.44
  -1   0  -2  209.26    1.36
  -1   0  -3    1.68    0.15
   1   0   3    1.88    0.15
  -1   0  -3    1.91    0.17
   1   0   3    1.68    0.12
  -1   0  -4  359.81    2.36
  -1   0  -4  367.81    2.48
   1   0   4  363.30    2.27
   1   0   4  371.39    1.86
   1   0   5   42.52    0.68
  -1   0  -5   41.56    0.91
  -1   0  -5   42.79    0.94
   1   0   5   43.01    0.88
   1   0   6   66.89    1.21
   1   0   6   67.77    0.90
  -1   0  -6   67.55    1.29
  -1   0  -6   68.13    1.29
   1   0   7  174.46    2.13
  -1   0  -7  167.50    2.20
   1   0   7  174.80    1.51
  -1   0  -7  168.92    2.24
   1   0   8    3.18    0.21
   1   0   8    3.49    0.35
  -1   0  -8    3.14    0.33
  -1   0  -8    3.44    0.37
   1   0   8    3.53    0.23
  -1   0  -9   57.47    1.52
   1   0   9   54.08    1.39
  -1   0  -9   55.57    1.45
  -1   0 -10   41.48    1.40
   1   0  10   40.30    1.28
  -1   0 -10   41.66    1.33
   1   0  11    0.35    0.19
  -1   0 -11    0.00    0.13
  -1   0 -11    0.32    0.20
  -1   0 -12   44.49    1.52
  -1   0 -12   44.36    1.63
   1   0  12   43.04    1.50
  -1   0 -13    5.06    0.61
  -1   0 -13    4.92    0.58
   1   0  13    3.88    0.50
   1   0  14   -0.02    0.17
  -1   0 -14    0.01    0.18
  -1   0 -14    0.26    0.20
  -1   0 -15    2.24    0.44
  -1  -1  14    4.90    0.61
   1   1 -14    4.00    0.58
  -1  -1  13    2.58    0.41
   1   1 -13    2.12    0.41
  -1  -1  12    0.15    0.15
   1   1 -12   -0.25    0.22
   1   1 -11   27.47    1.26
  -1  -1  11   27.16    1.16
   1   1 -10    0.37    0.22
   1   1 -10    0.34    0.15
  -1  -1  10    0.13    0.13
  -1  -1   9   28.32    1.02
   1   1  -9   29.86    1.17
   1   1  -9   28.79    0.96
   1   1  -9   25.88    1.08
   1   1  -8   59.34    1.53
   1   1  -8   56.67    1.06
   1   1  -8   59.45    1.28
  -1  -1   8   59.10    1.36
   1   1  -8   57.86    1.50
  -1  -1   8   59.10    1.24
   1   1  -7    1.58    0.21
  -1  -1   7    1.79    0.14
   1   1  -7    1.42    0.24
   1   1  -7    1.86    0.19
   1   1  -7    1.76    0.28
  -1  -1   7    1.61    0.22
   1   1  -6  148.27    1.57
  -1  -1   6  147.31    1.67
   1   1  -6  150.70    1.73
   1   1  -6  154.85    2.11
   1   1  -6  151.00    2.08
  -1  -1   6  152.58    1.23
  -1  -1   6  154.87    1.89
  -1  -1   5  195.17    1.94
   1   1  -5  190.75    1.75
   1   1  -5  192.18    1.71
  -1  -1   5  187.38    1.68
  -1  -1   5  194.39    1.34
   1   1  -5  191.37    2.13
   1   1  -5  192.34    2.15
   1   1  -4   83.43    1.27
  -1  -1   4   82.77    0.99
   1   1  -4   82.86    1.08
   1   1  -4   84.75    1.29
  -1  -1   4   85.18    1.16
   1   1  -3  332.88    2.27
   1   1  -3  339.38    1.16
   1   1  -3  330.91    2.22
  -1  -1   3  330.30    1.70
  -1  -1   3  326.17    2.05
   1   1  -3  328.71    2.05
  -1  -1   2  422.65    2.05
   1   1  -2  416.42    2.15
  -1  -1   2  435.22    1.61
   1   1  -2  434.62    1.47
   1   1  -2  430.98    2.22
   1   1   2    9.25    0.25
  -1  -1  -2    9.09    0.18
   1   1   3   77.53    0.89
  -1  -1  -3   75.37    0.76
   1   1   3   76.40    0.68
  -1  -1  -3   74.72    0.97
   1   1   3   78.91    0.76
   1   1   4   30.48    0.46
  -1  -1  -4   28.84    0.68
   1   1   4   30.08    0.51
  -1  -1  -4   29.94    0.60
   1   1   4   28.95    0.62
   1   1   5    6.23    0.22
   1   1   5    6.52    0.25
   1   1   5    6.02    0.32
  -1  -1  -5    6.38    0.37
  -1  -1  -5    6.35    0.32
  -1  -1  -6    1.31    0.20
   1   1   6    0.87    0.10
  -1  -1  -6    0.81    0.16
   1   1   6    0.95    0.16
   1   1   6    0.90    0.10
   1   1   7   60.52    0.77
   1   1   7   59.83    1.20
  -1  -1  -7   59.01    1.22
   1   1   7   60.22    0.85
  -1  -1  -7   60.83    1.33
   1   1   8   25.78    0.87
   1   1   8   27.39    0.59
  -1  -1  -8   25.03    0.92
   1   1   8   26.02    0.52
  -1  -1  -8   27.02    0.90
  -1  -1  -9    1.94    0.31
  -1  -1  -9    2.67    0.34
   1   1   9    2.25    0.29
   1   1  10   17.02    0.82
  -1  -1 -10   17.11    0.85
  -1  -1 -10   15.30    0.82
  -1  -1 -11    7.48    0.62
  -1  -1 -11    6.39    0.57
   1   1  11    7.07    0.57
   1   1  12    0.30    0.16
  -1  -1 -12    0.41    0.21
  -1  -1 -12    0.28    0.20
  -1  -1 -13    4.43    0.53
  -1  -1 -13    5.64    0.61
   1   1  13    5.00    0.55
  -1  -1 -14    1.26    0.31
  -1  -1 -14    1.38    0.33
   1   1  14    0.88    0.28
  -1  -1 -14    1.08    0.32
  -1  -1 -15    0.90    0.34
  -1  -1 -15    0.43    0.24
   1   1  15    0.62    0.25
   1   2 -14    1.72    0.39
   1   2 -14    1.39    0.36
  -1  -2  13    2.77    0.47
   1   2 -13    2.37    0.46
  -1  -2  12   -0.03    0.14
   1   2 -12   -0.03    0.21
   1   2 -11    5.95    0.62
  -1  -2  11    5.45    0.56
  -1  -2  10    9.15    0.67
  -1  -2  10    8.94    0.65
   1   2 -10    9.15    0.74
  -1  -2   9    3.12    0.36
   1   2  -9    2.88    0.30
   1   2  -9    3.06    0.41
   1   2  -8    4.45    0.34
   1   2  -8    4.67    0.47
  -1  -2   8    4.28    0.39
   1   2  -8    4.88    0.36
   1   2  -7    2.79    0.38
   1   2  -7    2.83    0.26
  -1  -2   7    2.74    0.30
  -1  -2   7    2.74    0.21
   1   2  -7    3.00    0.34
   1   2  -7    2.64    0.24
   1   2  -6   51.59    1.23
   1   2  -6   52.05    1.32
   1   2  -6   52.69    0.98
  -1  -2   6   52.39    0.88
  -1  -2   6   54.94    1.20
   1   2  -6   51.72    1.04
   1   2  -5   32.56    0.69
  -1  -2   5   32.64    0.67
   1   2  -5   32.35    0.89
   1   2  -5   31.95    0.78
  -1  -2   5   31.61    0.65
  -1  -2   5   32.87    0.86
   1   2  -5   33.23    0.98
  -1  -2   4   11.15    0.38
   1   2  -4   11.80    0.54
   1   2  -4   11.36    0.44
  -1  -2   4   11.20    0.34
   1   2  -4   11.12    0.35
   1   2  -4   11.40    0.48
  -1  -2   4   11.14    0.47
   1   2  -3    7.08    0.24
   1   2  -3    6.57    0.22
   1   2  -3    6.47    0.32
   1   2  -3    7.02    0.38
   1   2  -3    6.70    0.32
  -1  -2   3    6.69    0.22
  -1  -2   3    6.45    0.33
   1   2  -2   37.62    0.78
   1   2  -2   37.57    0.56
  -1  -2   2   36.92    0.38
   1   2  -2   36.29    0.72
  -1  -2   2   38.81    0.73
   1   2  -2   37.00    0.64
   1   2  -2   38.09    0.39
   1   2  -1  105.06    0.84
   1   2  -1  102.99    1.12
  -1  -2   1  102.56    1.12
   1   2  -1  101.06    1.12
   1   2  -1  103.31    1.01
   1   2  -1  104.13    0.97
   1   2   0  373.89    1.97
   1   2   0  371.68    1.73
   1   2   0  365.60    1.90
  -1  -2   0  364.36    1.92
   1   2   2    2.04    0.14
  -1  -2  -2    2.00    0.14
   1   2   2    2.65    0.13
   1   2   2    2.06    0.13
   1   2   3   49.63    0.46
   1   2   3   46.37    0.68
  -1  -2  -3   47.94    0.56
   1   2   3   48.53    0.75
  -1  -2  -3   47.13    0.77
   1   2   4    0.48    0.11
   1   2   4    0.45    0.04
  -1  -2  -4    0.35    0.07
  -1  -2  -4    0.35    0.08
   1   2   4    0.43    0.09
  -1  -2  -4    0.46    0.11
   1   2   5    1.80    0.20
  -1  -2  -5    1.42    0.14
   1   2   5    1.99    0.19
  -1  -2  -5    1.62    0.18
  -1  -2  -5    2.27    0.22
  -1  -2  -6   32.88    0.90
  -1  -2  -6   32.14    0.75
   1   2   6   34.60    0.82
   1   2   6   33.36    0.87
  -1  -2  -7    6.70    0.39
   1   2   7    6.85    0.40
  -1  -2  -7    6.73    0.45
  -1  -2  -8   64.25    1.32
  -1  -2  -8   65.90    1.49
   1   2   8   67.28    1.35
  -1  -2  -9    0.68    0.19
  -1  -2  -9    0.46    0.16
   1   2   9    0.62    0.17
   1   2  10    6.78    0.51
  -1  -2 -10    6.96    0.58
  -1  -2 -10    7.63    0.57
  -1  -2 -11   36.10    1.26
   1   2  11   35.44    1.21
  -1  -2 -11   36.50    1.34
   1   2  12    2.01    0.32
  -1  -2 -12    1.94    0.36
  -1  -2 -12    2.02    0.37
  -1  -2 -13   36.78    1.50
  -1  -2 -13   37.65    1.48
   1   2  13   37.07    1.40
  -1  -2 -14   11.58    0.88
  -1  -2 -14   10.73    0.86
   1   2  14   10.98    0.81
  -1  -2 -15    0.99    0.29
   1   2  15    1.11    0.29
  -1  -2 -15    1.32    0.34
   1   3 -13    0.53    0.25
   1   3 -13    0.58    0.24
  -1  -3  13    0.54    0.22
  -1  -3  12    2.73    0.45
   1   3 -12    1.64    0.36
   1   3 -11    0.03    0.21
  -1  -3  11   -0.16    0.17
   1   3 -10    9.92    0.80
  -1  -3  10   10.42    0.73
  -1  -3   9   -0.15    0.19
   1   3  -9    0.36    0.21
   1   3  -8    2.63    0.40
  -1  -3   8    2.90    0.36
   1   3  -7   16.84    0.87
  -1  -3   7   17.58    0.61
   1   3  -7   16.98    0.59
   1   3  -7   16.92    0.69
  -1  -3   7   16.17    0.75
   1   3  -6    0.01    0.20
  -1  -3   6    0.02    0.14
   1   3  -6   -0.05    0.09
  -1  -3   6    0.24    0.09
   1   3  -6    0.12    0.07
  -1  -3   5   28.59    0.87
  -1  -3   5   28.84    0.74
   1   3  -5   27.27    0.80
   1   3  -5   30.54    1.02
   1   3  -5   28.78    0.61
   1   3  -4   22.80    0.81
   1   3  -4   22.30    0.69
  -1  -3   4   22.89    0.63
  -1  -3   4   23.17    0.73
   1   3  -4   22.37    0.46
   1   3  -3    1.99    0.24
   1   3  -3    1.89    0.20
  -1  -3   3    1.96    0.21
   1   3  -3    1.97    0.11
   1   3  -2  218.25    2.11
   1   3  -2  217.72    1.62
   1   3  -2  216.23    1.93
  -1  -3   2  220.61    1.94
   1   3  -1   50.74    0.87
   1   3  -1   52.91    0.82
   1   3  -1   51.96    0.89
  -1  -3   1   53.04    0.93
  -1  -3   0   38.75    0.74
   1   3   0   40.32    0.74
   1   3   0   42.00    0.74
   1   3   0   40.56    0.73
   1   3   1  524.53    2.46
   1   3   1  511.18    2.32
   1   3   1  505.60    2.63
  -1  -3  -1  509.58    2.30
   1   3   2  157.78    1.50
   1   3   2  167.36    1.30
  -1  -3  -2  164.53    0.80
   1   3   2  164.15    1.22
   1   3   2  161.18    1.23
   1   3   2  163.07    1.25
   1   3   3  322.57    1.56
  -1  -3  -3  319.26    1.58
   1   3   3  321.55    1.81
   1   3   3  312.75    2.14
   1   3   3  319.75    1.96
   1   3   4  295.15    2.10
  -1  -3  -4  290.10    2.18
   1   3   4  286.30    2.12
  -1  -3  -4  289.04    1.72
   1   3   4  291.09    1.91
  -1  -3  -4  286.25    1.84
   1   3   4  299.13    1.24
   1   3   5    1.51    0.16
  -1  -3  -5    1.11    0.15
   1   3   5    1.18    0.16
  -1  -3  -5    1.11    0.13
  -1  -3  -5    0.93    0.16
   1   3   6  158.71    1.71
  -1  -3  -6  152.80    1.76
   1   3   6  153.76    1.87
  -1  -3  -6  152.98    1.56
  -1  -3  -6  153.19    1.94
  -1  -3  -7   90.58    1.50
   1   3   7   89.43    1.55
  -1  -3  -7   88.47    1.60
   1   3   7   90.67    1.41
  -1  -3  -7   87.42    1.32
  -1  -3  -8   58.42    1.20
  -1  -3  -8   60.82    1.44
   1   3   8   60.76    1.38
  -1  -3  -8   60.96    1.35
   1   3   8   60.66    1.26
   1   3   9   15.60    0.69
  -1  -3  -9   16.13    0.70
   1   3   9   16.17    0.53
   1   3   9   16.38    0.77
  -1  -3  -9   15.63    0.79
  -1  -3 -10    0.55    0.19
   1   3  10    0.69    0.19
  -1  -3 -10    0.52    0.18
   1   3  11   32.89    1.14
  -1  -3 -11   33.28    1.30
  -1  -3 -11   34.27    1.18
  -1  -3 -12   20.20    0.98
  -1  -3 -12   20.10    1.07
   1   3  12   17.47    0.88
  -1  -3 -13   16.80    0.96
  -1  -3 -13   15.27    0.99
   1   3  13   15.48    0.89
   1   3  14    4.48    0.50
  -1  -3 -14    4.30    0.56
  -1  -3 -14    5.55    0.60
  -1  -3 -15    2.73    0.45
   1   3  15    3.17    0.47
  -1  -3 -15    3.19    0.52
  -1  -3 -16    2.78    0.49
   1   4 -13    0.82    0.28
   1   4 -12    2.82    0.52
   1   4 -12    2.07    0.40
  -1  -4  12    3.16    0.51
   1   4 -11   10.82    0.90
  -1  -4  11   11.35    0.89
   1   4 -11    9.51    0.77
   1   4 -10    5.05    0.53
   1   4 -10    5.43    0.61
  -1  -4  10    5.62    0.57
   1   4  -9    8.35    0.72
  -1  -4   9    8.68    0.66
  -1  -4   8   12.01    0.73
   1   4  -8   12.20    0.83
   1   4  -7    9.02    0.67
  -1  -4   7    9.71    0.62
   1   4  -7    9.65    0.57
  -1  -4   7    9.68    0.52
   1   4  -6   37.43    1.07
  -1  -4   6   38.62    1.14
   1   4  -6   39.35    1.30
  -1  -4   6   38.22    1.00
  -1  -4   5    0.15    0.10
   1   4  -5    0.07    0.20
   1   4  -5    0.07    0.10
  -1  -4   5    0.21    0.15
   1   4  -5    0.21    0.06
   1   4  -4   81.76    1.67
  -1  -4   4   84.49    1.48
  -1  -4   4   82.24    1.37
   1   4  -4   84.94    1.48
   1   4  -4   80.53    0.79
   1   4  -3   14.29    0.65
   1   4  -3   12.48    0.23
   1   4  -3   13.80    0.58
  -1  -4   3   14.19    0.58
  -1  -4   3   14.35    0.55
   1   4  -2   39.26    0.91
   1   4  -2   40.17    0.81
  -1  -4   2   39.86    0.92
   1   4  -2   40.12    0.94
   1   4  -1   99.42    1.40
   1   4  -1   97.38    0.91
   1   4  -1   98.49    1.27
  -1  -4   1   96.54    1.39
   1   4  -1   98.95    1.36
   1   4   0    7.39    0.36
   1   4   0    7.15    0.18
   1   4   0    7.00    0.16
   1   4   0    7.22    0.35
   1   4   0    7.58    0.37
  -1  -4   0    7.21    0.37
   1   4   1   87.38    0.77
   1   4   1   85.88    1.21
   1   4   1   87.61    1.13
   1   4   1   85.54    1.16
  -1  -4  -1   84.43    1.09
  -1  -4  -2  129.68    1.26
  -1  -4  -2  128.38    0.63
   1   4   2  129.14    1.50
   1   4   2  132.32    1.29
   1   4   2  132.25    1.14
   1   4   2  130.12    1.24
   1   4   2  132.25    1.36
   1   4   3   26.89    0.57
  -1  -4  -3   25.87    0.42
   1   4   3   25.91    0.52
   1   4   3   26.99    0.59
   1   4   3   25.62    0.61
   1   4   3   24.90    0.67
   1   4   4  125.95    1.42
   1   4   4  125.34    1.28
   1   4   4  125.73    1.52
   1   4   4  125.12    1.00
  -1  -4  -4  121.74    1.21
  -1  -4  -4  123.20    1.16
   1   4   5    9.19    0.23
  -1  -4  -5    9.18    0.36
   1   4   5    8.84    0.41
  -1  -4  -5    8.92    0.37
   1   4   5    8.89    0.38
   1   4   5    9.04    0.43
   1   4   6    1.09    0.18
  -1  -4  -6    0.67    0.11
   1   4   6    0.82    0.14
   1   4   6    0.78    0.13
  -1  -4  -6    0.69    0.13
   1   4   7   56.62    1.10
  -1  -4  -7   57.88    1.16
   1   4   7   55.55    1.04
  -1  -4  -7   53.69    1.03
   1   4   7   57.34    1.25
  -1  -4  -7   55.76    1.28
  -1  -4  -8    1.40    0.20
   1   4   8    1.51    0.18
   1   4   8    1.76    0.26
   1   4   8    1.65    0.22
  -1  -4  -8    1.00    0.20
  -1  -4  -8    1.63    0.24
   1   4   9    1.04    0.23
  -1  -4  -9    1.14    0.24
  -1  -4  -9    0.91    0.19
   1   4   9    0.81    0.13
   1   4   9    1.19    0.19
  -1  -4  -9    1.13    0.19
   1   4  10    6.64    0.54
  -1  -4 -10    7.11    0.49
  -1  -4 -10    6.14    0.53
   1   4  10    5.95    0.45
   1   4  11   -0.05    0.13
  -1  -4 -11    0.08    0.13
  -1  -4 -11    0.22    0.18
  -1  -4 -12    6.15    0.61
   1   4  12    6.40    0.53
  -1  -4 -12    7.36    0.58
  -1  -4 -13    0.05    0.16
  -1  -4 -13   -0.05    0.16
   1   4  13    0.20    0.14
   1   4  14    0.33    0.14
  -1  -4 -14   -0.15    0.15
  -1  -4 -14    0.16    0.22
  -1  -4 -15    3.48    0.51
   1   4  15    3.99    0.50
  -1  -4 -15    2.61    0.49
  -1  -4 -16    0.13    0.17
   1   4  16    0.22    0.15
   1   5 -12    1.42    0.31
  -1  -5  11    7.61    0.74
   1   5 -11    7.44    0.69
  -1  -5  11    7.25    0.76
  -1  -5  10   -0.03    0.20
   1   5 -10   -0.19    0.19
   1   5  -9    3.99    0.46
  -1  -5   9    3.70    0.46
   1   5  -8    1.81    0.30
  -1  -5   8    1.86    0.34
   1   5  -7    0.96    0.23
  -1  -5   7    0.70    0.18
  -1  -5   7    0.88    0.19
   1   5  -6   16.31    0.74
  -1  -5   6   16.50    0.81
  -1  -5   6   16.80    0.74
   1   5  -6   17.06    0.79
  -1  -5   5    4.25    0.36
   1   5  -5    3.78    0.33
   1   5  -5    4.11    0.39
  -1  -5   5    4.80    0.43
   1   5  -4    7.70    0.43
  -1  -5   4    7.11    0.48
   1   5  -4    7.88    0.50
  -1  -5   4    7.09    0.45
   1   5  -4    7.26    0.50
  -1  -5   3    1.75    0.25
  -1  -5   3    2.59    0.27
   1   5  -3    2.03    0.26
   1   5  -3    1.97    0.20
   1   5  -3    1.95    0.25
   1   5  -2    3.37    0.23
   1   5  -2    3.47    0.30
   1   5  -2    3.47    0.27
   1   5  -2    3.53    0.32
  -1  -5   2    3.36    0.31
  -1  -5   2    3.35    0.30
   1   5  -1   35.26    0.86
   1   5  -1   34.07    0.92
  -1  -5   1   35.31    0.91
   1   5  -1   33.83    0.59
   1   5  -1   36.86    0.93
  -1  -5   0    0.44    0.14
   1   5   0    0.40    0.11
   1   5   0    0.33    0.11
   1   5   0    0.58    0.13
   1   5   0    0.31    0.04
   1   5   0    0.35    0.05
   1   5   1   12.12    0.31
   1   5   1   11.76    0.50
  -1  -5  -1   11.88    0.47
   1   5   1   12.47    0.48
   1   5   1   12.27    0.51
  -1  -5  -2   10.87    0.41
   1   5   2   10.78    0.45
   1   5   2   11.01    0.34
   1   5   2   11.47    0.49
  -1  -5  -2    9.86    0.16
   1   5   2   11.10    0.43
   1   5   3    5.25    0.31
   1   5   3    4.95    0.26
   1   5   3    5.05    0.27
   1   5   3    5.08    0.27
  -1  -5  -3    4.90    0.18
   1   5   3    5.49    0.35
   1   5   4  126.93    1.53
   1   5   4  126.62    1.46
  -1  -5  -4  124.15    1.11
   1   5   4  126.03    1.35
   1   5   4  125.25    1.22
   1   5   4  127.47    1.64
   1   5   5   48.68    1.02
   1   5   5   48.34    0.88
   1   5   5   49.03    0.99
   1   5   5   49.22    0.68
  -1  -5  -5   46.59    0.87
  -1  -5  -5   47.59    0.81
   1   5   6   10.63    0.49
   1   5   6   10.87    0.45
   1   5   6   10.53    0.50
  -1  -5  -6   10.22    0.43
  -1  -5  -6   10.06    0.43
   1   5   7  140.06    1.97
  -1  -5  -7  137.12    1.75
  -1  -5  -7  139.12    1.69
   1   5   7  137.94    1.74
   1   5   7  142.19    1.75
  -1  -5  -8   84.72    1.51
   1   5   8   85.46    1.66
   1   5   8   84.11    1.45
   1   5   8   82.60    1.34
  -1  -5  -8   87.35    1.74
  -1  -5  -8   86.58    1.42
   1   5   9   32.20    0.96
  -1  -5  -9   32.50    0.94
  -1  -5  -9   31.54    1.13
  -1  -5  -9   31.81    1.01
   1   5   9   32.39    1.10
   1   5   9   32.82    0.84
   1   5  10   95.34    2.00
  -1  -5 -10   94.57    2.07
  -1  -5 -10   94.12    1.87
  -1  -5 -10   95.46    1.75
   1   5  10   98.31    1.42
   1   5  10   91.92    1.70
   1   5  11   64.11    1.76
   1   5  11   61.25    1.49
  -1  -5 -11   63.09    1.81
  -1  -5 -11   65.74    1.57
  -1  -5 -12   13.25    0.77
   1   5  12   11.60    0.69
  -1  -5 -12   11.57    0.84
  -1  -5 -13   23.38    1.25
   1   5  13   21.99    1.00
  -1  -5 -13   25.05    1.12
   1   5  14   -0.04    0.12
  -1  -5 -14   -0.04    0.16
   1   5  15   10.00    0.76
  -1  -5 -15   10.26    0.93
  -1  -5 -15   10.75    0.83
   1   5  16    4.07    0.53
  -1  -5 -16    4.59    0.67
  -1  -6  11    5.02    0.68
   1   6 -11    4.57    0.60
   1   6 -10    2.18    0.41
  -1  -6  10    2.01    0.39
   1   6 -10    1.81    0.34
   1   6  -9    1.85    0.32
   1   6  -9    2.14    0.38
  -1  -6   9    1.87    0.37
   1   6  -8    6.28    0.54
   1   6  -8    6.22    0.61
   1   6  -7    8.40    0.67
  -1  -6   7    8.53    0.61
  -1  -6   7    8.83    0.67
   1   6  -7    8.60    0.60
  -1  -6   6   10.09    0.64
  -1  -6   6   10.87    0.71
   1   6  -6    9.55    0.58
   1   6  -6   10.59    0.73
  -1  -6   5   21.06    0.89
  -1  -6   5   23.42    0.96
   1   6  -5   21.56    0.92
   1   6  -5   21.08    0.79
   1   6  -5   21.48    0.97
   1   6  -4   22.86    0.75
   1   6  -4   22.60    0.95
   1   6  -4   22.80    0.92
  -1  -6   4   22.19    0.88
  -1  -6   4   23.56    0.93
  -1  -6   3    4.18    0.38
   1   6  -3    4.56    0.31
   1   6  -3    4.40    0.40
  -1  -6   3    4.45    0.40
   1   6  -3    3.85    0.37
  -1  -6   2   75.17    1.48
   1   6  -2   74.85    1.09
   1   6  -2   73.76    1.54
   1   6  -2   76.18    1.52
  -1  -6   2   75.28    1.51
   1   6  -1    1.81    0.26
   1   6  -1    1.78    0.15
  -1  -6   1    2.51    0.28
  -1  -6   1    1.80    0.24
   1   6  -1    2.57    0.26
   1   6  -1    2.29    0.27
   1   6   0   53.08    1.16
   1   6   0   51.94    1.14
   1   6   0   49.02    0.50
   1   6   0   50.61    1.19
  -1  -6   0   50.81    1.14
   1   6   1   53.06    1.17
   1   6   1   52.08    1.14
   1   6   1   53.67    1.10
  -1  -6  -1   51.73    1.08
   1   6   1   52.60    0.67
  -1  -6  -2   61.44    1.09
   1   6   2   63.10    1.25
   1   6   2   62.62    1.12
   1   6   2   62.12    0.85
   1   6   2   59.29    1.20
   1   6   3  172.67    1.60
   1   6   3  171.55    2.07
   1   6   3  173.22    1.76
  -1  -6  -3  168.83    1.73
   1   6   3  170.58    1.97
   1   6   4    1.34    0.18
   1   6   4    1.36    0.19
   1   6   4    1.56    0.17
  -1  -6  -4    1.38    0.12
   1   6   4    1.39    0.16
   1   6   4    1.29    0.16
  -1  -6  -5   57.05    0.86
   1   6   5   60.90    0.90
   1   6   5   58.67    1.01
   1   6   5   59.74    1.12
   1   6   5   60.90    1.23
   1   6   6   75.71    1.20
  -1  -6  -6   76.89    1.14
  -1  -6  -6   74.69    1.24
   1   6   6   75.93    1.36
   1   6   6   75.87    1.37
   1   6   7   31.86    0.83
   1   6   7   31.52    0.89
   1   6   7   31.29    0.94
  -1  -6  -7   32.54    0.83
  -1  -6  -7   32.87    0.86
   1   6   8  146.89    1.90
  -1  -6  -8  143.52    1.91
   1   6   8  146.40    1.91
   1   6   8  147.26    2.19
  -1  -6  -8  146.05    1.90
  -1  -6  -9    1.23    0.25
  -1  -6  -9    1.62    0.23
   1   6   9    1.03    0.19
   1   6   9    1.22    0.18
   1   6   9    1.14    0.24
  -1  -6  -9    1.29    0.20
   1   6  10    3.55    0.29
  -1  -6 -10    3.16    0.33
   1   6  10    3.44    0.40
  -1  -6 -10    3.20    0.40
  -1  -6 -10    3.20    0.35
   1   6  10    3.01    0.32
  -1  -6 -11   58.35    1.46
   1   6  11   59.76    1.69
   1   6  11   56.85    1.42
  -1  -6 -11   57.69    1.54
  -1  -6 -11   58.74    1.74
   1   6  12    0.00    0.10
  -1  -6 -12   -0.01    0.17
  -1  -6 -12   -0.18    0.18
   1   6  12    0.08    0.15
  -1  -6 -13   23.26    1.06
   1   6  13   22.82    1.01
  -1  -6 -13   22.43    1.23
  -1  -6 -14    2.96    0.49
   1   6  14    3.68    0.44
  -1  -6 -14    3.18    0.43
   1   6  15    0.96    0.26
  -1  -6 -15    0.69    0.25
  -1  -6 -15    0.60    0.25
  -1  -6 -16    7.24    0.83
   1   6  16    6.91    0.66
  -1  -7  10    1.89    0.41
   1   7 -10    2.43    0.44
   1   7  -9    0.11    0.15
  -1  -7   9   -0.04    0.19
   1   7  -8    0.57    0.22
  -1  -7   8    1.49    0.31
   1   7  -7   17.67    1.02
  -1  -7   7   19.11    1.04
  -1  -7   7   17.27    0.94
   1   7  -6    0.22    0.14
  -1  -7   6    0.17    0.14
  -1  -7   6    0.51    0.23
   1   7  -6    0.33    0.17
  -1  -7   5   17.97    0.90
   1   7  -5   17.97    0.75
   1   7  -5   18.91    0.97
  -1  -7   5   18.94    0.92
   1   7  -4   18.99    0.93
   1   7  -4   19.97    0.92
   1   7  -4   18.88    0.70
  -1  -7   4   19.05    0.89
  -1  -7   4   18.78    0.89
   1   7  -3    7.31    0.56
  -1  -7   3    7.17    0.54
  -1  -7   3    7.83    0.55
   1   7  -3    7.45    0.55
   1   7  -3    7.52    0.41
  -1  -7   2   38.00    1.18
   1   7  -2   39.77    1.19
   1   7  -2   38.66    0.81
   1   7  -2   39.08    1.21
  -1  -7   2   37.45    1.13
   1   7  -1    1.70    0.25
   1   7  -1    1.40    0.23
  -1  -7   1    1.36    0.24
  -1  -7   1    1.46    0.25
   1   7  -1    1.46    0.14
   1   7  -1    1.53    0.25
   1   7   0    7.30    0.48
  -1  -7   0    6.63    0.47
  -1  -7   0    8.37    0.51
   1   7   0    7.56    0.51
   1   7   0    7.37    0.48
   1   7   0    7.14    0.20
   1   7   1    6.24    0.43
   1   7   1    6.43    0.25
   1   7   1    5.97    0.44
  -1  -7  -1    6.80    0.43
   1   7   1    6.49    0.45
   1   7   2    0.24    0.11
   1   7   2    0.29    0.07
   1   7   2    0.53    0.16
   1   7   2    0.05    0.12
  -1  -7  -2    0.26    0.11
   1   7   3   34.37    0.98
   1   7   3   35.59    0.89
   1   7   3   36.46    0.76
  -1  -7  -3   33.77    0.85
   1   7   3   33.54    1.00
   1   7   4    3.24    0.31
   1   7   4    3.30    0.26
  -1  -7  -4    3.06    0.26
  -1  -7  -4    3.19    0.17
   1   7   4    3.56    0.27
   1   7   4    3.68    0.33
   1   7   5    3.09    0.27
   1   7   5    3.21    0.24
   1   7   5    3.40    0.32
  -1  -7  -5    3.01    0.20
   1   7   5    3.32    0.26
   1   7   5    2.67    0.28
  -1  -7  -6    7.40    0.35
   1   7   6    7.78    0.48
   1   7   6    6.94    0.42
   1   7   6    7.09    0.38
   1   7   7    0.15    0.09
   1   7   7    0.25    0.10
  -1  -7  -7    0.25    0.09
  -1  -7  -7    0.15    0.10
   1   7   7    0.22    0.12
   1   7   8   35.28    0.95
  -1  -7  -8   35.08    0.93
   1   7   8   34.29    1.06
  -1  -7  -8   34.96    0.97
   1   7   8   34.59    0.99
  -1  -7  -9    0.47    0.14
   1   7   9    0.30    0.11
  -1  -7  -9    0.28    0.10
   1   7   9    0.51    0.14
   1   7   9    0.40    0.18
  -1  -7 -10    3.64    0.41
   1   7  10    2.92    0.32
  -1  -7 -10    3.32    0.34
   1   7  10    3.56    0.32
  -1  -7 -10    3.51    0.35
   1   7  10    2.87    0.37
   1   7  11   29.25    1.02
   1   7  11   29.58    0.89
  -1  -7 -11   29.96    1.06
  -1  -7 -11   27.85    1.20
  -1  -7 -11   29.97    1.08
   1   7  11   29.00    1.18
  -1  -7 -12    4.40    0.44
  -1  -7 -12    4.89    0.48
   1   7  12    4.26    0.42
  -1  -7 -12    3.67    0.48
   1   7  12    3.52    0.45
  -1  -7 -13    8.87    0.66
  -1  -7 -13    9.39    0.80
   1   7  13    9.64    0.77
   1   7  13    8.74    0.62
   1   7  14    6.58    0.57
  -1  -7 -14    7.46    0.76
  -1  -7 -14    7.49    0.65
   1   7  15    7.44    0.64
  -1  -7 -15    8.80    0.87
  -1  -7 -15    8.71    0.74
  -1  -7 -16    5.20    0.71
   1   7  16    5.55    0.59
   1   8  -9    0.07    0.13
  -1  -8   9   -0.68    0.28
   1   8  -8    1.01    0.31
  -1  -8   8    0.97    0.29
   1   8  -7    3.47    0.49
  -1  -8   7    2.96    0.44
  -1  -8   7    3.47    0.48
   1   8  -6   -0.26    0.19
  -1  -8   6   -0.03    0.13
  -1  -8   6    0.01    0.16
   1   8  -5    8.11    0.68
  -1  -8   5    7.65    0.65
  -1  -8   5    8.48    0.67
  -1  -8   4    3.06    0.41
   1   8  -4    2.94    0.40
  -1  -8   4    3.39    0.42
   1   8  -3    0.08    0.13
  -1  -8   3    0.59    0.20
  -1  -8   3    0.31    0.15
  -1  -8   2   21.03    0.96
   1   8  -2   19.55    0.92
   1   8  -2   20.56    0.94
  -1  -8   2   22.32    0.93
   1   8  -1    7.62    0.55
  -1  -8   1    6.97    0.54
   1   8  -1    7.03    0.54
  -1  -8   1    7.28    0.52
  -1  -8   0   -0.21    0.18
   1   8   0   -0.04    0.14
   1   8   0    0.08    0.13
  -1  -8   0   -0.04    0.14
   1   8   0    0.07    0.13
   1   8   1   14.41    0.69
  -1  -8  -1   14.79    0.73
   1   8   1   14.28    0.38
  -1  -8  -1   13.92    0.66
   1   8   1   14.30    0.72
   1   8   1   14.10    0.72
   1   8   2   34.86    1.10
   1   8   2   34.55    1.02
   1   8   2   34.15    1.08
   1   8   2   36.14    0.71
  -1  -8  -2   35.43    1.00
  -1  -8  -2   35.75    1.09
   1   8   3    3.52    0.36
  -1  -8  -3    4.00    0.33
   1   8   3    3.55    0.25
   1   8   3    3.55    0.36
   1   8   3    3.85    0.33
   1   8   4   32.00    0.81
   1   8   4   30.67    1.02
   1   8   4   32.34    0.89
  -1  -8  -4   32.58    0.89
   1   8   4   31.45    1.02
  -1  -8  -5    5.34    0.36
   1   8   5    5.42    0.42
   1   8   5    4.88    0.42
   1   8   5    5.40    0.36
  -1  -8  -5    5.41    0.25
   1   8   6    7.83    0.43
   1   8   6    6.91    0.48
   1   8   6    7.56    0.50
  -1  -8  -6    7.47    0.34
   1   8   6    7.15    0.45
  -1  -8  -7   59.70    1.07
   1   8   7   59.88    1.35
   1   8   7   61.52    1.41
   1   8   7   61.93    1.21
  -1  -8  -7   60.34    1.31
  -1  -8  -8    3.58    0.33
   1   8   8    3.38    0.34
  -1  -8  -8    3.07    0.28
   1   8   8    3.02    0.29
   1   8   8    2.92    0.33
  -1  -8  -9   41.36    0.94
  -1  -8  -9   39.93    1.13
   1   8   9   42.01    1.27
   1   8   9   45.57    1.20
   1   8   9   41.24    1.08
  -1  -8  -9   42.31    1.09
   1   8  10   11.01    0.59
   1   8  10   10.75    0.59
  -1  -8 -10   10.28    0.58
   1   8  10   10.01    0.67
  -1  -8 -10   10.20    0.60
   1   8  11   21.63    1.03
  -1  -8 -11   20.88    0.90
   1   8  11   22.53    0.83
   1   8  11   20.71    0.86
  -1  -8 -11   20.84    1.05
  -1  -8 -11   22.25    0.92
  -1  -8 -12   51.74    1.49
  -1  -8 -12   51.87    1.49
  -1  -8 -12   53.07    1.76
   1   8  12   53.35    1.70
   1   8  12   49.63    1.40
   1   8  13    0.58    0.23
  -1  -8 -13    0.50    0.17
  -1  -8 -13    0.58    0.20
   1   8  13    0.65    0.19
   1   8  14   20.58    1.00
  -1  -8 -14   21.14    1.26
   1   8  14   19.89    1.17
  -1  -8 -14   20.82    1.06
  -1  -8 -15   24.02    1.42
   1   8  15   22.55    1.10
   1   8  16    0.03    0.12
  -1  -8 -16    0.11    0.20
  -1  -9   8    0.14    0.16
   1   9  -8    0.18    0.17
   1   9  -7   -0.08    0.18
  -1  -9   7    0.12    0.21
   1   9  -6    1.98    0.39
  -1  -9   6    2.33    0.41
  -1  -9   6    2.78    0.43
  -1  -9   5   -0.06    0.17
   1   9  -5    0.00    0.14
  -1  -9   5   -0.12    0.17
   1   9  -4    1.25    0.29
  -1  -9   4    1.10    0.26
  -1  -9   4    1.17    0.30
  -1  -9   3   17.75    0.98
  -1  -9   3   18.53    0.94
   1   9  -3   17.96    0.97
   1   9  -2   -0.02    0.13
  -1  -9   2   -0.09    0.16
  -1  -9   2    0.11    0.18
  -1  -9   1   43.39    1.44
   1   9  -1   43.33    1.40
  -1  -9   1   45.82    1.35
  -1  -9   0   31.07    1.07
   1   9   0   28.77    1.11
  -1  -9   0   29.04    1.15
  -1  -9  -1    1.08    0.23
   1   9   1    1.30    0.26
  -1  -9  -1    1.32    0.23
   1   9   1    0.55    0.17
   1   9   1    0.71    0.20
   1   9   2   76.43    1.63
   1   9   2   76.90    1.75
   1   9   2   73.19    1.70
  -1  -9  -2   76.96    1.75
  -1  -9  -2   79.91    1.61
   1   9   3    8.56    0.60
   1   9   3    9.27    0.42
  -1  -9  -3    9.29    0.60
   1   9   3    9.42    0.62
  -1  -9  -3   10.13    0.55
   1   9   4   19.47    0.66
   1   9   4   18.06    0.84
  -1  -9  -4   17.87    0.72
   1   9   4   17.64    0.83
  -1  -9  -4   19.28    0.83
   1   9   5   26.74    1.01
  -1  -9  -5   27.99    0.88
   1   9   5   26.17    1.00
   1   9   5   28.70    0.85
  -1  -9  -5   27.16    0.95
   1   9   6    8.31    0.56
  -1  -9  -6    9.88    0.53
   1   9   6    9.65    0.53
   1   9   6    9.44    0.60
  -1  -9  -6    9.13    0.54
   1   9   7   25.35    0.97
   1   9   7   26.78    0.83
   1   9   7   24.58    0.89
  -1  -9  -7   24.55    0.67
  -1  -9  -7   26.94    0.90
  -1  -9  -8    4.05    0.34
   1   9   8    3.34    0.36
   1   9   8    3.60    0.32
   1   9   8    4.14    0.40
  -1  -9  -8    3.45    0.28
  -1  -9  -8    3.53    0.36
   1   9   9    7.56    0.47
  -1  -9  -9    7.22    0.51
   1   9   9    7.22    0.55
  -1  -9  -9    7.49    0.45
  -1  -9  -9    7.74    0.45
   1   9   9    7.48    0.53
   1   9  10    0.51    0.20
  -1  -9 -10    0.49    0.16
   1   9  10    0.24    0.09
   1   9  10    0.25    0.11
  -1  -9 -10    0.13    0.08
   1   9  11    6.79    0.49
  -1  -9 -11    6.51    0.49
   1   9  11    6.90    0.50
   1   9  11    5.96    0.55
  -1  -9 -11    7.31    0.63
  -1  -9 -11    6.60    0.52
   1   9  12   13.03    0.85
  -1  -9 -12   12.98    0.76
   1   9  12   13.28    0.73
  -1  -9 -12   12.34    0.72
  -1  -9 -12   12.30    0.86
  -1  -9 -13    1.77    0.30
  -1  -9 -13    1.81    0.30
   1   9  13    1.78    0.36
  -1  -9 -13    1.97    0.37
   1   9  13    1.46    0.27
  -1  -9 -14    0.73    0.27
   1   9  14    0.23    0.13
   1   9  14    0.49    0.23
  -1  -9 -15    2.60    0.48
   1   9  15    2.01    0.35
   1   9  16    1.08    0.28
  -1  -9 -16    0.96    0.32
   1  10  -7    0.60    0.25
  -1 -10   6    1.01    0.30
  -1 -10   6    1.06    0.30
   1  10  -5    0.05    0.11
  -1 -10   5    0.30    0.23
  -1 -10   5   -0.07    0.22
   1  10  -4    0.35    0.17
  -1 -10   4    0.14    0.17
  -1 -10   4    0.03    0.14
  -1 -10   3    3.99    0.47
   1  10  -3    3.18    0.44
  -1 -10   3    3.11    0.46
  -1 -10   2    0.08    0.14
  -1 -10   2    0.28    0.17
   1  10  -2    0.27    0.17
  -1 -10   1    6.01    0.53
   1  10  -1    5.26    0.52
  -1 -10   1    4.49    0.51
  -1 -10   0   -0.04    0.17
   1  10   0   -0.14    0.15
  -1 -10   0    0.16    0.15
   1  10   1    9.24    0.66
  -1 -10  -1   10.50    0.73
  -1 -10  -1   10.57    0.64
   1  10   2   24.49    1.05
  -1 -10  -2   24.99    0.96
  -1 -10  -2   25.30    1.10
   1  10   2   22.68    1.03
   1  10   3    5.32    0.51
  -1 -10  -3    5.94    0.53
   1  10   3    5.34    0.50
  -1 -10  -3    6.19    0.47
  -1 -10  -4   10.28    0.59
   1  10   4   10.07    0.49
   1  10   4    8.83    0.64
   1  10   4   10.30    0.68
  -1 -10  -4    9.49    0.63
   1  10   5    6.06    0.52
   1  10   5    7.72    0.59
   1  10   5    7.84    0.46
  -1 -10  -5    8.03    0.57
  -1 -10  -5    7.16    0.49
   1  10   6   10.48    0.67
  -1 -10  -6   11.82    0.67
  -1 -10  -6   11.13    0.59
   1  10   6   10.43    0.69
   1  10   6   11.53    0.60
   1  10   7   14.18    0.78
   1  10   7   14.48    0.79
   1  10   7   16.42    0.75
  -1 -10  -7   15.48    0.74
  -1 -10  -7   15.33    0.71
  -1 -10  -8   15.78    0.73
  -1 -10  -8   15.51    0.78
   1  10   8   16.19    0.70
   1  10   8   16.24    0.78
   1  10   8   15.28    0.80
   1  10   9    0.08    0.12
  -1 -10  -9   -0.05    0.12
   1  10   9   -0.01    0.09
  -1 -10  -9    0.01    0.08
   1  10   9   -0.13    0.13
   1  10  10    0.04    0.10
   1  10  10   -0.03    0.13
   1  10  10    0.03    0.10
  -1 -10 -10    0.00    0.09
   1  10  11   16.24    0.81
   1  10  11   16.48    0.78
   1  10  11   14.61    0.86
  -1 -10 -11   14.78    0.90
  -1 -10 -11   16.31    0.84
   1  10  12    4.39    0.42
   1  10  12    4.53    0.44
   1  10  12    4.24    0.50
  -1 -10 -12    4.11    0.50
  -1 -10 -12    4.63    0.47
  -1 -10 -13    6.50    0.58
   1  10  13    8.17    0.60
   1  10  13    7.25    0.68
  -1 -10 -13    7.43    0.71
  -1 -10 -14    0.57    0.23
  -1 -10 -14    0.27    0.18
   1  10  14    0.50    0.22
   1  10  14    0.26    0.12
   1  10  15    1.99    0.41
   1  10  15    1.45    0.29
  -1 -10 -15    1.51    0.39
   1  10  16    9.04    0.73
  -1 -10 -16   10.18    0.97
  -1 -11   6   -0.02    0.21
  -1 -11   5    0.38    0.19
   1  11  -5    0.50    0.23
   1  11  -4    0.39    0.19
  -1 -11   4    0.19    0.16
  -1 -11   3    1.31    0.33
   1  11  -3    1.37    0.31
  -1 -11   2    1.42    0.34
   1  11  -2    1.87    0.35
  -1 -11   1   -0.22    0.21
   1  11  -1   -0.19    0.18
  -1 -11   1    0.07    0.12
  -1 -11   0    0.11    0.17
   1  11   0    0.29    0.14
  -1 -11   0    0.23    0.16
   1  11   1    4.10    0.47
  -1 -11  -1    5.64    0.50
  -1 -11  -1    4.88    0.55
  -1 -11  -2    0.40    0.21
   1  11   2    0.21    0.13
   1  11   3   13.71    0.83
  -1 -11  -3   16.23    0.79
  -1 -11  -3   15.05    0.88
  -1 -11  -4    1.14    0.23
   1  11   4    1.00    0.27
   1  11   4    1.78    0.31
  -1 -11  -4    1.23    0.26
  -1 -11  -5    9.08    0.58
   1  11   5    8.90    0.66
   1  11   5    7.73    0.63
  -1 -11  -5    9.37    0.67
   1  11   5   10.29    0.54
   1  11   6   29.93    1.20
   1  11   6   27.93    1.18
   1  11   6   31.66    1.00
  -1 -11  -6   31.17    1.16
  -1 -11  -6   31.54    1.07
  -1 -11  -7    1.98    0.28
   1  11   7    1.48    0.29
  -1 -11  -7    1.60    0.26
   1  11   7    1.82    0.31
   1  11   7    1.68    0.26
  -1 -11  -8   34.34    1.13
   1  11   8   29.61    1.18
  -1 -11  -8   32.47    1.20
   1  11   8   33.60    1.15
  -1 -11  -8   34.39    1.16
   1  11   9   31.86    1.18
   1  11   9   29.88    1.17
  -1 -11  -9   30.22    1.16
   1  11   9   32.12    1.05
  -1 -11  -9   31.22    1.07
   1  11  10    0.01    0.15
   1  11  10    0.20    0.15
  -1 -11 -10    0.15    0.12
   1  11  10    0.25    0.12
   1  11  11   28.55    1.14
  -1 -11 -11   30.47    1.21
   1  11  11   30.28    1.07
   1  11  11   29.59    1.24
   1  11  12    6.97    0.56
   1  11  12    6.94    0.64
   1  11  12    6.92    0.54
  -1 -11 -12    6.38    0.58
  -1 -11 -12    6.76    0.65
  -1 -11 -13    0.43    0.17
  -1 -11 -13    0.83    0.27
   1  11  13    0.54    0.16
  -1 -11 -14    3.52    0.46
   1  11  14    3.53    0.42
  -1 -11 -14    3.99    0.55
   1  11  14    4.10    0.55
  -1 -11 -15    1.30    0.37
   1  11  15    1.38    0.34
   1  11  15    1.21    0.27
   1  11  16    5.16    0.55
   1  12  -4    2.93    0.48
  -1 -12   4    2.08    0.46
   1  12  -3    1.73    0.36
  -1 -12   3    1.17    0.36
  -1 -12   2    1.17    0.34
   1  12  -2    1.30    0.32
  -1 -12   1    0.78    0.29
   1  12  -1    0.97    0.26
  -1 -12   0    0.29    0.19
   1  12   0   -0.02    0.14
  -1 -12  -1    5.63    0.62
   1  12   1    6.44    0.61
  -1 -12  -2    2.75    0.45
   1  12   2    2.41    0.39
   1  12   3    2.62    0.39
  -1 -12  -3    2.71    0.42
  -1 -12  -4    2.37    0.40
   1  12   4    1.91    0.35
   1  12   5    0.08    0.13
  -1 -12  -5    0.27    0.16
   1  12   5    0.28    0.17
   1  12   6    3.20    0.44
  -1 -12  -6    2.76    0.39
   1  12   6    3.29    0.44
   1  12   7    5.53    0.46
   1  12   7    4.81    0.52
   1  12   7    4.44    0.51
  -1 -12  -7    4.52    0.48
   1  12   8    1.74    0.32
  -1 -12  -8    2.12    0.33
   1  12   8    2.02    0.31
  -1 -12  -8    2.37    0.32
   1  12   9    7.05    0.61
  -1 -12  -9    8.32    0.61
   1  12   9    7.53    0.59
  -1 -12  -9    7.98    0.64
  -1 -12  -9    7.34    0.56
   1  12  10    0.43    0.14
   1  12  10    0.13    0.14
  -1 -12 -10    0.48    0.20
   1  12  10    0.68    0.22
   1  12  11    1.04    0.27
  -1 -12 -11    0.94    0.24
   1  12  11    0.80    0.19
   1  12  11    1.06    0.26
  -1 -12 -12    8.60    0.74
   1  12  12    9.67    0.65
   1  12  12    9.59    0.76
   1  12  12    8.83    0.67
  -1 -12 -12    9.74    0.73
  -1 -12 -13   -0.07    0.17
   1  12  13   -0.13    0.14
   1  12  13   -0.08    0.18
  -1 -12 -13   -0.17    0.20
   1  12  14    1.92    0.39
  -1 -12 -14    1.58    0.36
  -1 -12 -15    2.77    0.50
   1  12  15    3.51    0.53
  -1 -13   2    0.99    0.33
   1  13  -2    0.54    0.22
   1  13  -1    0.38    0.17
  -1 -13   1    0.66    0.32
   1  13   0   -0.04    0.14
  -1 -13   0   -0.06    0.19
  -1 -13  -1    0.80    0.29
   1  13   1    0.69    0.22
  -1 -13  -2    0.17    0.19
   1  13   2   -0.05    0.17
  -1 -13  -3    0.54    0.26
   1  13   3    0.03    0.13
  -1 -13  -4    0.51    0.25
   1  13   4    0.48    0.22
  -1 -13  -5    0.00    0.16
   1  13   5   -0.23    0.18
  -1 -13  -6    1.67    0.34
   1  13   6    1.61    0.33
  -1 -13  -7    7.83    0.67
   1  13   7    7.22    0.68
  -1 -13  -8    1.92    0.33
   1  13   8    2.18    0.32
   1  13   8    2.19    0.39
   1  13   8    2.79    0.44
   1  13   9    7.14    0.66
  -1 -13  -9    7.16    0.61
   1  13   9    6.52    0.57
  -1 -13  -9    6.39    0.61
   1  13  10    0.66    0.21
  -1 -13 -10    0.99    0.26
   1  13  10    1.09    0.27
   1  13  11    0.27    0.17
  -1 -13 -11    0.18    0.16
  -1 -13 -11    0.25    0.15
   1  13  11    0.31    0.18
   1  13  12   22.47    1.12
  -1 -13 -12   22.08    1.20
   1  13  12   21.69    1.15
  -1 -13 -12   20.89    1.12
  -1 -13 -13    3.89    0.50
   1  13  13    3.57    0.50
  -1 -13 -13    4.61    0.58
  -1 -13 -14    1.03    0.31
   1  13  14    1.42    0.33
  -1 -14   0    1.16    0.36
   1  14   0    0.77    0.24
  -1 -14  -1    0.24    0.17
   1  14   1    0.17    0.13
  -1 -14  -2    2.10    0.45
   1  14   2    2.12    0.39
   1  14   3    2.98    0.45
  -1 -14  -3    3.37    0.54
  -1 -14  -4    0.23    0.21
   1  14   4    0.00    0.12
  -1 -14  -5    5.30    0.63
   1  14   5    4.53    0.56
  -1 -14  -6    3.70    0.52
   1  14   6    3.51    0.49
   1  14   7    0.36    0.18
  -1 -14  -7    0.24    0.18
   1  14   8    2.34    0.42
  -1 -14  -8    2.89    0.42
  -1 -14  -9    0.38    0.19
  -1 -14  -9    0.33    0.16
   1  14  10    1.45    0.30
  -1 -14 -10    1.63    0.34
   1  14  11    2.02    0.36
  -1 -14 -11    1.56    0.33
  -1 -14 -11    2.43    0.41
  -1 -14 -12    1.41    0.32
  -1 -14 -12    1.24    0.30
   1  14  12    1.38    0.32
   1  14  13    1.81    0.37
  -1 -14 -13    1.59    0.37
   1  14  14    0.65    0.23
   1  15   3    0.45    0.22
  -1 -15  -3    0.59    0.26
  -1 -15  -4    0.12    0.18
   1  15   4    0.06    0.10
   1  15   5    0.65    0.24
  -1 -15  -5    0.98    0.32
  -1 -15  -6    0.26    0.23
   1  15   6    0.63    0.23
  -1 -15  -7    0.01    0.17
   1  15   7    0.06    0.13
  -1 -15  -8    0.81    0.26
   1  15   8    0.56    0.24
  -1 -15  -9    0.64    0.23
  -1 -15  -9    0.28    0.20
  -1 -15 -10    1.12    0.29
  -1 -15 -11    0.97    0.29
   1  15  12   -0.25    0.14
  -1 -15 -12   -0.02    0.11
  -1 -15 -13    0.64    0.24
   1  15  13    0.65    0.24
  -1 -16  -8    0.48    0.23
  -1 -16  -9    0.96    0.30
  -1 -16  -9    1.00    0.29
  -1 -16 -10    0.24    0.17
   2 -15  -8    1.66    0.36
   2 -15  -7    0.10    0.19
  -2  14  12   -0.04    0.13
   2 -14 -11    0.24    0.18
  -2  14  11    0.44    0.20
   2 -14 -10    1.17    0.35
  -2  14  10    0.97    0.26
   2 -14  -9    0.12    0.15
   2 -14  -8    1.81    0.40
  -2  14   8    1.76    0.38
   2 -14  -8    1.91    0.38
   2 -14  -7    2.85    0.45
  -2  14   7    3.69    0.54
  -2  14   6    0.62    0.27
   2 -14  -6    1.05    0.33
   2 -14  -5    3.03    0.49
  -2  14   5    2.35    0.45
  -2  14   4    0.43    0.19
   2 -14  -4    0.30    0.20
   2 -14  -3    0.06    0.20
  -2  14   3    0.25    0.15
   2 -13 -13   -0.08    0.18
  -2  13  13    0.02    0.21
   2 -13 -12    0.00    0.17
  -2  13  12   -0.16    0.16
   2 -13 -11    0.45    0.24
  -2  13  11    0.85    0.26
  -2  13  10    3.42    0.46
   2 -13 -10    3.50    0.52
  -2  13   9    0.26    0.16
   2 -13  -9    0.66    0.27
  -2  13   8    3.60    0.44
  -2  13   8    3.41    0.49
   2 -13  -8    4.48    0.57
   2 -13  -8    3.12    0.43
  -2  13   7    0.78    0.26
   2 -13  -7    0.39    0.19
   2 -13  -6    3.01    0.46
  -2  13   6    2.65    0.44
  -2  13   5   11.21    0.89
   2 -13  -5    9.78    0.81
  -2  13   4    0.84    0.26
   2 -13  -4    0.95    0.29
  -2  13   3    1.22    0.34
   2 -13  -3    1.05    0.30
  -2  13   2    8.35    0.78
   2 -13  -2    8.49    0.82
   2 -13  -1   -0.18    0.19
  -2  13   1    0.64    0.24
  -2  13   0    0.52    0.22
   2 -13   0    0.96    0.34
   2 -12 -14    1.67    0.39
  -2  12  14    1.52    0.39
  -2  12  13    1.02    0.28
   2 -12 -13    1.23    0.32
   2 -12 -12    6.20    0.66
  -2  12  12    4.79    0.57
  -2  12  11    0.99    0.27
   2 -12 -11    0.53    0.23
   2 -12 -10    4.18    0.55
  -2  12  10    4.62    0.52
   2 -12  -9    2.72    0.45
  -2  12   9    2.65    0.38
   2 -12  -8    0.56    0.20
  -2  12   8    0.76    0.24
  -2  12   8    0.70    0.23
   2 -12  -8    0.95    0.27
  -2  12   7    2.54    0.40
  -2  12   7    2.67    0.36
   2 -12  -7    3.29    0.42
   2 -12  -6    2.26    0.37
  -2  12   6    2.18    0.37
  -2  12   6    2.40    0.33
  -2  12   5    2.28    0.39
   2 -12  -5    1.73    0.35
  -2  12   4    5.09    0.58
   2 -12  -4    4.95    0.56
  -2  12   3    0.23    0.15
   2 -12  -3   -0.04    0.14
  -2  12   2    1.89    0.37
   2 -12  -2    2.38    0.42
   2 -12  -1    9.10    0.81
  -2  12   1    9.75    0.82
   2 -12   0    0.09    0.21
  -2  12   0    0.22    0.15
  -2  12  -1    0.85    0.28
   2 -12   1    1.30    0.35
  -2  12  -2    3.60    0.54
   2 -12   2    2.39    0.48
   2 -11 -15   -0.15    0.20
   2 -11 -14    4.30    0.57
  -2  11  14    4.62    0.60
   2 -11 -13    2.49    0.45
  -2  11  13    2.08    0.39
  -2  11  12    0.15    0.15
   2 -11 -12   -0.05    0.19
  -2  11  11    4.27    0.51
   2 -11 -11    5.18    0.58
   2 -11 -10    2.09    0.38
  -2  11  10    1.71    0.32
   2 -11  -9   -0.04    0.13
  -2  11   9    0.00    0.11
   2 -11  -8    0.19    0.14
  -2  11   8    0.24    0.15
  -2  11   8   -0.02    0.11
   2 -11  -8    0.08    0.15
  -2  11   7    1.12    0.26
   2 -11  -7    0.59    0.19
  -2  11   7    0.71    0.19
  -2  11   6    4.40    0.43
  -2  11   6    4.03    0.47
   2 -11  -6    4.06    0.45
  -2  11   5    0.92    0.20
  -2  11   5    0.79    0.24
   2 -11  -5    0.77    0.24
  -2  11   4    2.05    0.28
   2 -11  -4    1.71    0.30
  -2  11   4    1.76    0.34
   2 -11  -3    0.37    0.18
  -2  11   3    0.44    0.18
  -2  11   2    0.63    0.23
   2 -11  -2    0.16    0.18
   2 -11  -1    7.56    0.69
  -2  11   1    9.01    0.75
   2 -11   0   -0.29    0.25
  -2  11   0    0.08    0.13
   2 -11   1    2.88    0.48
  -2  11  -1    3.77    0.52
  -2  11  -2    3.43    0.50
   2 -11   2    3.21    0.52
   2 -11   3    0.56    0.26
  -2  11  -3    0.28    0.20
   2 -11   4    3.08    0.55
  -2  11  -4    3.10    0.52
   2 -10 -16    2.91    0.49
  -2  10  15    0.21    0.18
   2 -10 -15    0.19    0.17
   2 -10 -15    0.57    0.29
   2 -10 -14   13.89    0.99
   2 -10 -14   12.46    0.93
  -2  10  14   14.43    1.06
   2 -10 -13    3.90    0.53
   2 -10 -13    4.29    0.53
  -2  10  13    4.26    0.56
   2 -10 -12    1.17    0.29
   2 -10 -12    1.03    0.27
  -2  10  12    1.73    0.35
   2 -10 -11   22.73    1.14
  -2  10  11   21.46    1.11
  -2  10  10    7.28    0.63
   2 -10 -10    9.01    0.71
   2 -10  -9    9.36    0.71
  -2  10   9    9.59    0.68
   2 -10  -8   15.82    0.90
  -2  10   8   15.36    0.83
   2 -10  -8   16.26    0.78
   2 -10  -7    3.16    0.40
  -2  10   7    3.61    0.42
   2 -10  -7    3.05    0.36
  -2  10   7    3.01    0.36
  -2  10   6   20.46    0.98
  -2  10   6   19.54    0.86
   2 -10  -6   20.58    0.91
  -2  10   5   12.42    0.67
  -2  10   5   12.89    0.79
   2 -10  -5   10.96    0.69
   2 -10  -4    1.32    0.26
  -2  10   4    1.09    0.25
  -2  10   4    1.52    0.23
   2 -10  -3    4.25    0.47
  -2  10   3    4.57    0.38
  -2  10   3    4.21    0.47
   2 -10  -2    2.00    0.33
  -2  10   2    2.47    0.38
  -2  10   1   19.41    1.04
   2 -10  -1   20.07    1.03
   2 -10   0    2.42    0.39
  -2  10   0    2.91    0.42
   2 -10   1    1.11    0.30
  -2  10  -1    1.20    0.29
   2 -10   2    3.98    0.51
  -2  10  -2    5.18    0.59
  -2  10  -3    3.27    0.49
   2 -10   3    3.70    0.52
  -2  10  -4    2.92    0.48
   2 -10   4    2.88    0.48
   2 -10   5    2.87    0.50
  -2  10  -5    3.68    0.56
   2 -10   6    0.99    0.34
   2  -9 -16    6.28    0.72
   2  -9 -16    5.97    0.72
   2  -9 -15    4.88    0.62
  -2   9  15    5.05    0.67
   2  -9 -15    4.50    0.60
   2  -9 -14    4.97    0.61
  -2   9  14    5.99    0.69
   2  -9 -14    5.26    0.60
   2  -9 -13   12.79    0.92
  -2   9  13   11.56    0.90
   2  -9 -13   11.67    0.86
   2  -9 -12    9.16    0.73
   2  -9 -12    9.79    0.75
  -2   9  12    8.62    0.74
   2  -9 -11    8.29    0.67
  -2   9  11    8.46    0.70
  -2   9  10   27.70    1.20
   2  -9 -10   30.49    1.23
   2  -9  -9    0.19    0.16
  -2   9   9    0.17    0.15
   2  -9  -8   11.86    0.62
   2  -9  -8   12.96    0.77
  -2   9   8   12.71    0.74
  -2   9   7   17.63    0.83
  -2   9   7   18.87    0.87
   2  -9  -7   18.19    0.79
   2  -9  -7   18.03    0.90
   2  -9  -6    1.72    0.26
  -2   9   6    1.76    0.28
  -2   9   6    2.20    0.29
   2  -9  -5    8.74    0.57
  -2   9   5    8.01    0.52
  -2   9   5    8.21    0.58
   2  -9  -4    3.90    0.40
  -2   9   4    3.85    0.35
  -2   9   4    4.45    0.45
  -2   9   3    0.26    0.11
   2  -9  -3    0.15    0.13
  -2   9   3    0.37    0.17
  -2   9   2    7.15    0.59
   2  -9  -2    7.08    0.56
  -2   9   2    7.46    0.45
   2  -9  -1    1.83    0.30
  -2   9   1    2.40    0.25
  -2   9   1    2.47    0.38
   2  -9   0    0.35    0.19
  -2   9   0    0.43    0.19
  -2   9  -1    0.02    0.13
   2  -9   1   -0.18    0.22
  -2   9  -2    1.09    0.28
   2  -9   2    1.06    0.26
   2  -9   3    1.95    0.36
  -2   9  -3    2.29    0.41
  -2   9  -4    0.40    0.16
   2  -9   4    0.00    0.15
   2  -9   5    0.28    0.21
  -2   9  -5    0.10    0.14
  -2   9  -6    1.69    0.38
   2  -9   6    1.59    0.38
  -2   9  -7    0.02    0.15
   2  -9   7   -0.02    0.14
   2  -8 -16   -0.01    0.22
  -2   8  16    0.26    0.20
   2  -8 -16    0.42    0.23
   2  -8 -16    0.10    0.20
  -2   8  15    1.39    0.39
   2  -8 -15    1.28    0.35
   2  -8 -15    0.91    0.29
   2  -8 -14    0.17    0.21
  -2   8  14    0.32    0.24
   2  -8 -14   -0.17    0.20
   2  -8 -13    1.05    0.25
  -2   8  13    1.37    0.31
   2  -8 -13    1.22    0.32
   2  -8 -12    3.42    0.48
   2  -8 -12    3.24    0.44
  -2   8  12    3.62    0.49
  -2   8  11    1.08    0.28
   2  -8 -11    1.03    0.24
   2  -8 -10   14.45    0.83
  -2   8  10   15.57    0.89
   2  -8  -9    1.06    0.26
  -2   8   9    1.17    0.26
   2  -8  -8    3.98    0.42
   2  -8  -8    3.80    0.33
  -2   8   8    3.51    0.39
  -2   8   7   18.30    0.81
   2  -8  -7   18.40    0.72
   2  -8  -7   19.71    0.89
  -2   8   7   17.74    0.82
  -2   8   6   23.63    0.91
   2  -8  -6   23.97    0.84
  -2   8   6   22.92    0.88
   2  -8  -6   21.92    0.91
   2  -8  -5   13.50    0.66
  -2   8   5   12.46    0.63
  -2   8   5   13.54    0.70
  -2   8   4    4.85    0.43
  -2   8   4    4.51    0.37
   2  -8  -4    4.92    0.41
   2  -8  -3    0.06    0.16
  -2   8   3    0.49    0.16
  -2   8   3    0.55    0.13
   2  -8  -2    2.79    0.33
  -2   8   2    3.13    0.37
  -2   8   2    2.99    0.28
   2  -8  -1   28.64    1.06
  -2   8   1   28.65    0.82
  -2   8   1   27.92    1.11
  -2   8   0    4.71    0.33
  -2   8   0    4.46    0.46
   2  -8   0    4.21    0.44
   2  -8   1    7.35    0.58
  -2   8  -1    7.26    0.61
   2  -8   2    0.34    0.18
  -2   8  -2   -0.07    0.15
  -2   8  -3   10.30    0.77
   2  -8   3    9.85    0.71
   2  -8   4    8.44    0.68
  -2   8  -4    9.39    0.76
   2  -8   5    2.13    0.37
  -2   8  -5    2.49    0.43
  -2   8  -6    7.20    0.60
  -2   8  -6    8.22    0.76
   2  -8   6    7.09    0.68
  -2   8  -7    0.05    0.18
   2  -8   7    0.09    0.18
  -2   8  -8    2.48    0.47
   2  -7 -16    3.05    0.55
   2  -7 -16    3.31    0.54
  -2   7  16    2.65    0.51
  -2   7  16    2.70    0.40
   2  -7 -16    3.32    0.57
  -2   7  15    4.91    0.65
   2  -7 -15    3.88    0.54
   2  -7 -15    4.95    0.65
  -2   7  15    4.07    0.46
  -2   7  14    9.63    0.65
   2  -7 -14    9.50    0.85
   2  -7 -14    9.18    0.79
  -2   7  14    9.86    0.88
   2  -7 -13    0.37    0.20
  -2   7  13    0.10    0.09
   2  -7 -13    0.16    0.16
  -2   7  13    0.25    0.23
  -2   7  12    6.45    0.47
   2  -7 -12    6.77    0.65
  -2   7  12    8.17    0.73
   2  -7 -12    6.31    0.60
  -2   7  11    6.29    0.44
  -2   7  11    5.05    0.54
   2  -7 -11    6.85    0.63
   2  -7 -11    5.61    0.53
  -2   7  10   14.09    0.60
  -2   7  10   14.24    0.85
   2  -7 -10   14.89    0.81
  -2   7   9   37.89    0.90
  -2   7   9   38.61    1.31
   2  -7  -9   39.36    1.26
   2  -7  -8    1.92    0.29
  -2   7   8    1.72    0.18
  -2   7   8    1.73    0.27
   2  -7  -8    1.58    0.20
   2  -7  -7   49.28    1.33
  -2   7   7   46.74    0.84
   2  -7  -7   47.82    1.06
  -2   7   7   46.73    1.29
   2  -7  -6  105.23    1.62
  -2   7   6  102.94    1.75
  -2   7   6  100.19    1.80
  -2   7   6  103.14    1.13
   2  -7  -6  106.93    1.90
  -2   7   5   32.95    0.99
  -2   7   5   32.99    0.99
   2  -7  -5   33.69    0.95
   2  -7  -4  127.19    1.18
  -2   7   4  129.76    2.00
  -2   7   4  126.81    1.86
   2  -7  -4  130.13    1.91
  -2   7   3   70.12    1.32
  -2   7   3   67.96    1.50
   2  -7  -3   63.77    0.82
   2  -7  -3   68.82    1.43
   2  -7  -2    1.45    0.24
  -2   7   2    2.05    0.28
  -2   7   2    1.86    0.22
   2  -7  -2    1.65    0.12
  -2   7   1  107.08    1.53
   2  -7  -1  108.49    1.90
  -2   7   1  104.95    1.99
   2  -7  -1  100.94    1.00
   2  -7   0    2.74    0.34
  -2   7   0    2.51    0.24
   2  -7   0    2.71    0.19
  -2   7   0    2.46    0.33
   2  -7   1    5.02    0.45
   2  -7   1    5.08    0.29
  -2   7  -1    5.90    0.35
  -2   7  -1    5.16    0.48
  -2   7  -2   19.74    0.64
  -2   7  -2   18.10    0.93
   2  -7   2   17.27    0.58
   2  -7   2   18.56    0.86
   2  -7   3    1.39    0.28
  -2   7  -3    1.75    0.33
   2  -7   3    1.37    0.19
   2  -7   4    1.52    0.30
  -2   7  -4    1.55    0.32
  -2   7  -4    1.64    0.27
  -2   7  -5    0.28    0.19
  -2   7  -5    0.32    0.13
   2  -7   5    0.30    0.15
   2  -7   6    0.08    0.20
   2  -7   6    0.22    0.16
  -2   7  -6   -0.17    0.19
  -2   7  -6    0.14    0.13
  -2   7  -7    1.11    0.29
   2  -7   7    1.06    0.25
   2  -7   7    1.80    0.36
  -2   7  -7    1.14    0.27
  -2   7  -8    0.65    0.24
  -2   7  -8    0.78    0.26
   2  -7   8    0.82    0.23
   2  -7   9    0.15    0.17
  -2   7  -9    0.48    0.24
  -2   7  -9    0.12    0.14
  -2   6  16   14.62    0.93
   2  -6 -16   16.85    1.17
   2  -6 -16   16.52    1.24
   2  -6 -16   15.35    1.20
  -2   6  16   14.67    1.16
   2  -6 -15   -0.15    0.23
   2  -6 -15    0.01    0.16
  -2   6  15    0.22    0.15
   2  -6 -15    0.06    0.19
  -2   6  15    0.18    0.26
   2  -6 -14   10.75    0.85
  -2   6  14   10.63    0.90
   2  -6 -14   10.68    0.91
  -2   6  14    9.84    0.68
  -2   6  13    4.97    0.59
   2  -6 -13    5.40    0.62
  -2   6  13    5.09    0.46
   2  -6 -13    5.35    0.57
  -2   6  12    0.19    0.12
   2  -6 -12    0.31    0.22
   2  -6 -12    0.44    0.22
  -2   6  12    0.00    0.15
   2  -6 -11   32.14    1.23
   2  -6 -11   31.85    1.36
  -2   6  11   31.89    1.00
  -2   6  11   32.34    1.32
   2  -6 -10    0.41    0.15
  -2   6  10    0.75    0.22
  -2   6  10    0.52    0.13
   2  -6  -9    3.86    0.38
  -2   6   9    4.15    0.31
  -2   6   9    4.45    0.45
   2  -6  -8    3.20    0.23
  -2   6   8    3.41    0.26
  -2   6   8    3.66    0.39
   2  -6  -8    3.31    0.36
  -2   6   7    0.83    0.12
   2  -6  -7    0.93    0.15
   2  -6  -7    0.72    0.18
  -2   6   7    0.88    0.18
   2  -6  -6   13.95    0.66
  -2   6   6   13.69    0.41
   2  -6  -6   13.88    0.53
  -2   6   6   13.54    0.66
  -2   6   5    0.13    0.09
   2  -6  -5    0.23    0.11
   2  -6  -5    0.07    0.11
  -2   6   5    0.30    0.06
  -2   6   5    0.23    0.09
  -2   6   4    4.84    0.36
   2  -6  -4    4.68    0.20
  -2   6   4    4.66    0.35
   2  -6  -4    4.85    0.34
   2  -6  -3   14.08    0.35
  -2   6   3   16.23    0.62
  -2   6   3   14.83    0.63
   2  -6  -3   14.64    0.61
   2  -6  -2    1.89    0.11
  -2   6   2    1.97    0.26
   2  -6  -2    2.15    0.26
  -2   6   2    2.60    0.25
   2  -6  -1   17.05    0.70
  -2   6   1   16.76    0.59
   2  -6  -1   16.17    0.35
  -2   6   1   16.14    0.73
   2  -6   0   10.57    0.33
  -2   6   0   11.38    0.49
  -2   6   0   10.24    0.62
   2  -6   0   10.59    0.58
  -2   6  -1    3.06    0.25
   2  -6   1    2.65    0.19
  -2   6  -1    2.32    0.31
   2  -6   1    2.97    0.33
  -2   6  -2    6.98    0.55
   2  -6   2    6.76    0.34
  -2   6  -2    7.21    0.39
   2  -6   2    6.81    0.51
   2  -6   3   27.46    0.75
  -2   6  -3   28.52    0.77
  -2   6  -3   27.87    0.93
  -2   6  -3   27.50    1.11
   2  -6   3   26.73    0.99
  -2   6  -3   27.94    0.83
   2  -6   4    0.12    0.13
  -2   6  -4   -0.04    0.13
  -2   6  -4   -0.13    0.12
  -2   6  -4    0.04    0.14
   2  -6   4    0.03    0.09
  -2   6  -5    3.92    0.47
   2  -6   5    3.56    0.40
  -2   6  -5    3.92    0.41
   2  -6   5    3.66    0.33
   2  -6   6    8.05    0.61
  -2   6  -6    7.77    0.59
  -2   6  -6    7.46    0.67
   2  -6   6    7.84    0.56
  -2   6  -7    4.03    0.52
   2  -6   7    3.99    0.43
  -2   6  -7    3.43    0.43
   2  -6   7    3.80    0.45
   2  -6   8    2.20    0.34
  -2   6  -8    2.84    0.46
   2  -6   8    2.36    0.37
  -2   6  -8    1.90    0.35
   2  -6   9    0.01    0.12
  -2   6  -9    0.29    0.18
   2  -6  10    1.52    0.34
  -2   6 -10    2.76    0.48
  -2   6 -10    1.98    0.38
  -2   6 -11    1.00    0.28
   2  -5 -16    8.18    0.89
  -2   5  16    7.05    0.79
   2  -5 -16    6.89    0.79
  -2   5  16    7.44    0.69
   2  -5 -16    8.45    0.84
   2  -5 -15   -0.18    0.22
   2  -5 -15    0.05    0.17
   2  -5 -15    0.51    0.29
  -2   5  15    0.25    0.18
  -2   5  15    0.09    0.17
   2  -5 -14    5.66    0.63
  -2   5  14    5.70    0.65
  -2   5  14    5.44    0.53
   2  -5 -14    6.22    0.71
  -2   5  13    3.84    0.51
   2  -5 -13    4.25    0.52
   2  -5 -13    4.21    0.57
  -2   5  13    4.71    0.46
   2  -5 -12    8.70    0.76
   2  -5 -12    8.56    0.67
  -2   5  12    7.94    0.56
  -2   5  12    7.64    0.68
   2  -5 -11   14.74    0.94
   2  -5 -11   14.31    0.81
  -2   5  11   14.80    0.90
  -2   5  11   15.03    0.71
   2  -5 -10   11.26    0.77
  -2   5  10   10.13    0.71
  -2   5  10   10.88    0.56
   2  -5 -10   10.02    0.65
   2  -5  -9    0.45    0.17
  -2   5   9    0.46    0.17
  -2   5   9    0.69    0.15
   2  -5  -8    5.20    0.43
  -2   5   8    5.56    0.34
   2  -5  -8    5.10    0.24
  -2   5   8    5.95    0.48
  -2   5   7   17.52    0.78
   2  -5  -7   15.92    0.69
  -2   5   7   16.89    0.52
   2  -5  -7   16.69    0.49
  -2   5   6    0.99    0.12
   2  -5  -6    1.04    0.14
   2  -5  -6    1.08    0.20
  -2   5   6    1.05    0.21
   2  -5  -5   37.99    0.98
  -2   5   5   37.56    0.59
  -2   5   5   37.91    1.00
  -2   5   5   38.48    0.91
   2  -5  -5   37.31    0.81
  -2   5   4    0.01    0.07
  -2   5   4    0.03    0.03
  -2   5   4    0.15    0.09
   2  -5  -3   42.18    0.48
  -2   5   3   47.33    1.01
  -2   5   3   45.28    0.99
   2  -5  -3   45.33    0.97
   2  -5  -2   49.12    1.04
  -2   5   2   48.67    0.99
  -2   5   2   48.21    1.07
   2  -5  -1   15.02    0.27
  -2   5   1   15.72    0.55
   2  -5  -1   15.69    0.62
  -2   5   1   15.79    0.66
   2  -5   0  147.03    1.07
  -2   5   0  153.28    2.15
   2  -5   0  153.95    1.98
  -2   5   0  157.25    1.71
   2  -5   1   23.00    0.51
   2  -5   1   22.88    0.80
  -2   5  -1   26.04    0.93
  -2   5  -1   23.64    0.67
   2  -5   2   42.25    1.12
  -2   5  -2   40.76    1.21
  -2   5  -2   42.01    0.96
   2  -5   2   41.13    0.77
  -2   5  -2   43.60    1.05
  -2   5  -3  106.34    1.72
  -2   5  -3  108.41    1.58
  -2   5  -3  109.31    2.04
   2  -5   3  104.97    1.82
   2  -5   3  106.23    1.39
  -2   5  -4    0.21    0.16
  -2   5  -4    0.16    0.13
  -2   5  -4    0.32    0.13
   2  -5   4    0.08    0.08
   2  -5   4    0.12    0.13
   2  -5   5   33.86    1.10
  -2   5  -5   32.26    1.08
  -2   5  -5   35.20    0.98
  -2   5  -6   16.92    0.83
   2  -5   6   17.13    0.77
   2  -5   6   17.06    0.82
  -2   5  -7    5.86    0.53
   2  -5   7    5.86    0.51
   2  -5   7    5.66    0.50
   2  -5   8    6.25    0.54
  -2   5  -8    6.78    0.61
   2  -5   8    6.71    0.57
   2  -5   9    1.28    0.27
  -2   5  -9    1.29    0.31
   2  -5  10    0.98    0.25
  -2   5 -10    0.93    0.29
   2  -5  11    2.56    0.42
  -2   5 -11    2.33    0.43
  -2   4  16    1.18    0.33
   2  -4 -16    1.03    0.32
  -2   4  16    1.48    0.33
   2  -4 -16    1.65    0.38
   2  -4 -15   14.09    1.05
  -2   4  15   12.87    0.88
  -2   4  15   12.94    0.99
   2  -4 -15   12.36    0.99
   2  -4 -15   13.48    1.09
   2  -4 -14    0.75    0.27
   2  -4 -14    0.36    0.19
  -2   4  14    0.49    0.22
  -2   4  14    0.61    0.22
   2  -4 -14    0.52    0.24
   2  -4 -13    7.87    0.69
   2  -4 -13    8.64    0.79
  -2   4  13    8.62    0.75
  -2   4  13    7.45    0.60
  -2   4  12   42.07    1.57
   2  -4 -12   42.20    1.65
   2  -4 -12   43.32    1.51
  -2   4  12   41.90    1.31
  -2   4  11    1.05    0.21
  -2   4  11    0.88    0.25
   2  -4 -11    1.00    0.28
   2  -4 -11    0.71    0.21
  -2   4  10   64.80    1.41
  -2   4  10   64.28    1.74
   2  -4 -10   65.74    1.64
   2  -4 -10   61.88    1.80
   2  -4  -9   44.00    1.26
  -2   4   9   41.48    1.32
  -2   4   9   41.07    1.04
  -2   4   8    7.71    0.42
   2  -4  -8    7.61    0.51
  -2   4   8    8.22    0.56
   2  -4  -8    6.69    0.27
   2  -4  -7  173.61    2.21
  -2   4   7  173.29    1.76
   2  -4  -7  168.15    1.26
  -2   4   7  179.72    2.42
   2  -4  -6   24.10    0.78
  -2   4   6   23.68    0.83
  -2   4   6   23.81    0.58
   2  -4  -6   22.10    0.52
   2  -4  -5  126.13    1.68
  -2   4   5  123.56    1.13
   2  -4  -5  122.19    1.29
  -2   4   5  123.87    1.78
  -2   4   4   23.39    0.64
   2  -4  -4   23.87    0.70
  -2   4   4   24.93    0.75
  -2   4   4   23.00    0.39
   2  -4  -4   22.54    0.59
  -2   4   3    0.10    0.02
  -2   4   3    0.10    0.06
  -2   4   3    0.07    0.07
   2  -4  -3    0.06    0.07
   2  -4  -2   61.67    1.05
  -2   4   2   61.10    1.06
  -2   4   2   63.06    1.08
   2  -4  -1    0.06    0.08
  -2   4   1    0.08    0.08
   2  -4   0   87.02    1.36
  -2   4   0   85.23    1.22
  -2   4   0   86.52    1.47
   2  -4   0   84.58    0.68
  -2   4  -1   36.93    0.85
  -2   4  -1   37.28    1.01
   2  -4   1   37.21    0.93
   2  -4   1   37.09    0.58
  -2   4  -2   -0.09    0.11
   2  -4   2   -0.01    0.12
  -2   4  -2    0.15    0.10
  -2   4  -2    0.01    0.08
   2  -4   2    0.00    0.07
  -2   4  -3   44.96    1.06
   2  -4   3   44.39    0.85
  -2   4  -3   44.68    1.00
   2  -4   3   46.09    1.11
   2  -4   4   10.42    0.46
   2  -4   4   10.74    0.56
  -2   4  -4   10.82    0.57
  -2   4  -4   10.17    0.50
   2  -4   5   -0.03    0.10
  -2   4  -5    0.03    0.10
   2  -4   5   -0.01    0.09
  -2   4  -5    0.06    0.14
  -2   4  -6   27.27    1.01
  -2   4  -6   28.85    0.92
   2  -4   6   28.37    0.97
   2  -4   6   28.88    0.96
  -2   4  -7   34.54    1.22
   2  -4   7   34.30    1.10
  -2   4  -7   33.64    1.05
   2  -4   7   34.36    1.13
  -2   4  -8    1.12    0.25
   2  -4   8    1.07    0.23
   2  -4   8    0.66    0.18
   2  -4   9    3.47    0.43
  -2   4  -9    3.17    0.43
   2  -4  10    1.72    0.34
  -2   4 -10    2.33    0.41
   2  -4  11   -0.16    0.19
  -2   4 -11    0.21    0.18
   2  -4  12    2.94    0.47
  -2   4 -12    2.72    0.46
  -2   3  16    0.29    0.18
   2  -3 -16    0.68    0.30
   2  -3 -15   23.65    1.36
   2  -3 -15   21.84    1.39
  -2   3  15   19.96    1.19
   2  -3 -15   22.18    1.27
  -2   3  15   20.11    1.13
   2  -3 -14    5.97    0.67
   2  -3 -14    4.33    0.59
   2  -3 -14    4.81    0.58
  -2   3  14    5.51    0.62
  -2   3  14    4.27    0.50
   2  -3 -13    1.32    0.33
   2  -3 -13    0.89    0.28
  -2   3  13    1.13    0.31
  -2   3  13    0.85    0.24
   2  -3 -13    1.12    0.33
  -2   3  12   14.11    0.90
   2  -3 -12   15.64    0.94
   2  -3 -12   13.55    0.95
  -2   3  12   14.14    0.79
   2  -3 -11    3.55    0.44
  -2   3  11    5.05    0.52
   2  -3 -11    4.39    0.53
  -2   3  11    4.54    0.43
   2  -3 -10   30.69    1.14
   2  -3 -10   29.91    1.26
  -2   3  10   29.12    0.99
  -2   3  10   30.16    1.17
   2  -3  -9    8.75    0.65
  -2   3   9    9.77    0.64
  -2   3   9    8.48    0.49
   2  -3  -9   10.09    0.61
   2  -3  -8    9.52    0.57
  -2   3   8   10.05    0.61
  -2   3   8    9.95    0.49
   2  -3  -8    9.71    0.36
   2  -3  -7   20.29    0.75
  -2   3   7   19.35    0.79
  -2   3   7   19.74    0.62
   2  -3  -7   18.82    0.46
   2  -3  -6    1.92    0.13
  -2   3   6    2.06    0.18
   2  -3  -6    1.74    0.21
  -2   3   6    1.97    0.24
  -2   3   5    5.77    0.38
   2  -3  -5    5.51    0.24
  -2   3   5    4.97    0.25
   2  -3  -5    5.29    0.34
   2  -3  -4    2.03    0.20
  -2   3   4    2.08    0.13
  -2   3   4    2.42    0.24
   2  -3  -4    2.07    0.16
   2  -3  -3   29.66    0.70
   2  -3  -3   28.54    0.61
  -2   3   3   29.51    0.75
  -2   3   3   30.39    0.63
  -2   3   3   30.27    0.37
   2  -3  -2    0.15    0.08
  -2   3   2    0.19    0.07
  -2   3   2    0.05    0.07
  -2   3   1   19.38    0.56
  -2   3   1   20.61    0.58
   2  -3  -1   19.79    0.56
  -2   3   0    7.15    0.38
  -2   3   0    6.44    0.34
   2  -3   0    6.83    0.35
  -2   3   0    6.78    0.34
   2  -3   1    2.13    0.21
  -2   3  -1    1.85    0.20
  -2   3  -1    2.04    0.22
  -2   3  -2   12.58    0.50
   2  -3   2   11.28    0.49
  -2   3  -2   12.13    0.49
   2  -3   3   16.43    0.52
   2  -3   3   17.03    0.62
  -2   3  -3   16.37    0.61
  -2   3  -3   16.65    0.60
  -2   3  -4   22.12    0.72
   2  -3   4   21.97    0.73
   2  -3   4   19.97    0.64
  -2   3  -4   21.48    0.75
   2  -3   5    1.74    0.22
  -2   3  -5    1.76    0.25
   2  -3   5    1.88    0.24
  -2   3  -5    1.37    0.21
   2  -3   6   14.93    0.67
  -2   3  -6   14.49    0.71
  -2   3  -6   14.09    0.65
   2  -3   6   13.47    0.62
   2  -3   7   65.80    1.49
  -2   3  -7   66.98    1.48
  -2   3  -7   61.86    1.58
   2  -3   7   65.30    1.40
  -2   3  -8    9.57    0.59
   2  -3   8    9.27    0.61
   2  -3   8    9.23    0.55
  -2   3  -8    8.64    0.63
  -2   3  -9   23.09    1.10
   2  -3   9   25.19    1.07
  -2   3 -10   16.96    1.00
   2  -3  10   19.65    1.01
  -2   3 -11    0.31    0.20
   2  -3  11    0.57    0.22
  -2   3 -12   14.70    1.04
   2  -3  12   14.33    0.97
  -2   2  15    3.60    0.50
   2  -2 -15    3.76    0.60
   2  -2 -14    0.84    0.25
   2  -2 -14    1.22    0.36
  -2   2  14    0.50    0.20
   2  -2 -14    0.74    0.27
  -2   2  13    0.94    0.24
  -2   2  13    1.92    0.36
   2  -2 -13    1.58    0.37
   2  -2 -13    0.86    0.27
   2  -2 -13    1.67    0.33
   2  -2 -12    4.14    0.48
   2  -2 -12    4.15    0.51
   2  -2 -12    4.89    0.58
  -2   2  12    3.66    0.47
  -2   2  12    4.12    0.45
  -2   2  11   26.22    1.13
   2  -2 -11   27.25    1.18
   2  -2 -11   24.72    1.21
  -2   2  11   24.81    1.00
  -2   2  10    9.58    0.65
  -2   2  10    8.43    0.56
   2  -2 -10    9.27    0.73
   2  -2 -10    9.81    0.66
  -2   2   9   26.90    1.02
   2  -2  -9   25.85    1.12
   2  -2  -9   26.44    1.01
  -2   2   9   25.50    0.88
   2  -2  -8   24.61    0.63
  -2   2   8   26.34    0.82
   2  -2  -8   26.74    0.94
  -2   2   8   26.54    0.96
   2  -2  -8   25.39    1.04
  -2   2   7   11.34    0.50
   2  -2  -7   10.55    0.55
   2  -2  -7   11.23    0.40
  -2   2   7   11.35    0.59
  -2   2   7   11.25    0.50
  -2   2   6  182.44    1.80
  -2   2   6  181.24    2.18
  -2   2   6  183.11    1.77
   2  -2  -6  186.64    2.10
   2  -2  -6  179.54    1.45
   2  -2  -5   89.42    1.33
  -2   2   5   86.51    1.10
  -2   2   5   89.59    1.43
   2  -2  -5   87.01    0.78
  -2   2   4   42.28    0.67
   2  -2  -4   42.11    0.84
  -2   2   4   42.56    0.93
   2  -2  -4   41.54    0.60
   2  -2  -3  462.43    2.55
   2  -2  -3  454.25    2.15
  -2   2   3  447.60    1.79
  -2   2   3  455.21    2.83
  -2   2   2    7.38    0.35
  -2   2   2    6.98    0.14
  -2   2   2    7.20    0.17
   2  -2  -2    6.83    0.28
   2  -2  -2    7.10    0.30
  -2   2   2    7.21    0.26
  -2   2   1  269.46    1.72
  -2   2   1  274.04    2.02
   2  -2  -1  272.24    1.84
  -2   2   0  204.36    1.72
  -2   2   0  209.32    1.80
   2  -2   0  215.66    0.87
   2  -2   0  205.93    1.70
   2  -2   1    0.50    0.06
  -2   2  -1    0.72    0.14
   2  -2   1    0.69    0.13
  -2   2  -2  227.72    2.02
   2  -2   2  222.08    1.54
   2  -2   2  226.52    1.95
  -2   2  -2  227.83    1.97
   2  -2   3    7.99    0.34
   2  -2   3    8.18    0.40
  -2   2  -3    8.07    0.41
  -2   2  -3    8.22    0.41
  -2   2  -4   71.30    1.27
   2  -2   4   71.76    1.14
  -2   2  -4   71.53    1.29
   2  -2   4   71.46    1.20
  -2   2  -5   34.66    0.99
  -2   2  -5   33.63    0.93
   2  -2   5   34.84    0.88
   2  -2   5   35.30    0.89
   2  -2   6    0.29    0.13
   2  -2   6    0.14    0.09
  -2   2  -6    0.09    0.12
  -2   2  -7   57.16    1.38
  -2   2  -7   57.44    1.45
   2  -2   7   56.49    1.20
   2  -2   7   56.01    1.33
   2  -2   8    0.54    0.14
  -2   2  -8    0.43    0.17
   2  -2   8    0.72    0.19
  -2   2  -8    0.59    0.17
   2  -2   9    2.39    0.33
  -2   2  -9    2.44    0.37
  -2   2  -9    2.30    0.32
  -2   2 -10   22.11    1.10
   2  -2  10   22.40    1.04
  -2   2 -10   22.13    1.00
  -2   2 -11    4.02    0.52
   2  -2  11    4.62    0.51
  -2   2 -12    8.70    0.79
   2  -2  12   10.38    0.80
  -2   2 -13    1.05    0.32
   2  -2  13    1.82    0.37
   2  -1 -15    2.93    0.54
  -2   1  15    2.59    0.46
   2  -1 -14   -0.30    0.25
  -2   1  14   -0.04    0.15
   2  -1 -13   11.40    0.87
   2  -1 -13   13.55    0.99
  -2   1  13   12.34    0.83
   2  -1 -12    9.88    0.79
   2  -1 -12   10.76    0.84
  -2   1  12    8.49    0.66
   2  -1 -12    9.65    0.70
  -2   1  12    9.81    0.70
   2  -1 -11   36.05    1.28
   2  -1 -11   33.30    1.39
   2  -1 -11   35.54    1.36
  -2   1  11   34.26    1.25
  -2   1  11   34.80    1.22
   2  -1 -10   12.45    0.81
  -2   1  10   12.59    0.72
   2  -1 -10   12.72    0.78
  -2   1  10   11.63    0.67
  -2   1   9    2.21    0.28
   2  -1  -9    2.90    0.36
  -2   1   9    2.55    0.32
  -2   1   9    2.64    0.31
   2  -1  -9    2.33    0.34
   2  -1  -8   66.37    1.53
   2  -1  -8   65.62    1.65
  -2   1   8   70.78    1.40
  -2   1   8   66.41    1.47
   2  -1  -8   65.33    1.08
   2  -1  -7   10.92    0.58
   2  -1  -7   10.64    0.63
  -2   1   7    9.57    0.48
   2  -1  -7    9.72    0.42
  -2   1   7    9.57    0.53
  -2   1   6  126.66    1.58
   2  -1  -6  126.31    1.77
  -2   1   6  123.73    1.75
   2  -1  -6  124.46    1.39
   2  -1  -5  125.19    1.59
  -2   1   5  123.17    1.41
   2  -1  -5  120.52    1.23
  -2   1   5  116.10    1.59
   2  -1  -4    5.12    0.24
  -2   1   4    6.19    0.29
   2  -1  -4    5.72    0.32
  -2   1   4    5.35    0.32
   2  -1  -4    5.71    0.20
   2  -1  -3  129.37    1.31
  -2   1   3  128.83    1.44
  -2   1   3  127.81    1.09
   2  -1  -3  127.84    1.01
   2  -1  -2  113.26    1.10
   2  -1  -2  111.97    1.01
  -2   1   2  112.86    0.84
  -2   1   2  112.17    1.28
   2  -1  -1   42.19    0.61
   2  -1  -1   43.35    0.67
  -2   1   1   43.66    0.51
  -2   1   1   42.11    0.75
  -2   1   1   43.95    0.44
   2  -1   0    8.02    0.16
  -2   1   0    7.73    0.27
  -2   1   0    7.97    0.34
   2  -1   0    7.21    0.29
   2  -1   1   82.92    1.02
  -2   1  -1   82.67    1.10
  -2   1  -1   82.51    1.01
   2  -1   1   83.83    0.72
   2  -1   2    7.14    0.32
  -2   1  -2    7.11    0.32
  -2   1  -2    7.07    0.35
   2  -1   2    7.41    0.27
   2  -1   3   32.66    0.65
  -2   1  -3   31.69    0.75
  -2   1  -3   33.97    0.80
   2  -1   3   33.98    0.72
  -2   1  -4    4.97    0.34
   2  -1   4    4.76    0.29
  -2   1  -4    4.26    0.31
   2  -1   4    4.91    0.29
  -2   1  -5    0.16    0.12
  -2   1  -5   -0.15    0.13
   2  -1   5    0.08    0.08
  -2   1  -5    0.07    0.10
   2  -1   5    0.00    0.09
  -2   1  -6   19.96    0.77
  -2   1  -6   18.23    0.72
   2  -1   6   20.38    0.64
  -2   1  -6   18.63    0.74
   2  -1   6   20.15    0.71
  -2   1  -7    2.94    0.33
  -2   1  -7    3.47    0.36
   2  -1   7    3.16    0.28
   2  -1   7    3.08    0.31
  -2   1  -7    3.12    0.34
   2  -1   8    5.92    0.46
  -2   1  -8    5.61    0.47
  -2   1  -8    6.10    0.49
   2  -1   8    5.93    0.37
  -2   1  -8    4.96    0.45
  -2   1  -9    1.94    0.32
  -2   1  -9    2.04    0.30
  -2   1  -9    2.15    0.31
   2  -1   9    1.50    0.25
  -2   1 -10    4.59    0.48
  -2   1 -10    4.64    0.51
   2  -1  10    5.03    0.48
  -2   1 -10    4.37    0.48
  -2   1 -11    9.04    0.73
  -2   1 -11   10.67    0.74
   2  -1  11    9.74    0.70
  -2   1 -11   10.95    0.79
   2  -1  12    0.56    0.22
  -2   1 -12    0.04    0.17
  -2   1 -12    0.08    0.17
   2  -1  13    3.87    0.49
  -2   1 -13    4.19    0.57
   2  -1  14    3.15    0.49
  -2   1 -14    4.61    0.63
   2   0 -14    2.02    0.44
  -2   0  14    2.02    0.39
  -2   0  13    4.88    0.56
   2   0 -13    5.24    0.63
   2   0 -12    3.63    0.50
  -2   0  12    2.89    0.41
   2   0 -12    2.90    0.45
   2   0 -11    6.61    0.63
   2   0 -11    5.28    0.57
  -2   0  11    6.43    0.52
   2   0 -11    5.86    0.51
  -2   0  11    6.35    0.55
   2   0 -10    3.38    0.44
  -2   0  10    3.38    0.38
   2   0 -10    3.10    0.42
  -2   0  10    3.27    0.36
  -2   0  10    2.40    0.33
   2   0 -10    3.27    0.36
   2   0  -9    1.44    0.29
  -2   0   9    1.89    0.26
  -2   0   9    1.42    0.23
   2   0  -9    1.42    0.29
  -2   0   8    0.53    0.15
   2   0  -8    0.85    0.26
   2   0  -8    0.79    0.22
   2   0  -8    0.82    0.15
  -2   0   8    0.40    0.16
   2   0  -7   20.12    0.65
   2   0  -7   20.72    0.83
   2   0  -7   21.03    0.88
  -2   0   7   19.79    0.73
  -2   0   7   19.91    0.73
  -2   0   7   19.97    0.36
  -2   0   6   37.47    0.91
   2   0  -6   38.00    0.86
   2   0  -6   37.65    1.10
  -2   0   6   36.80    0.92
   2   0  -6   36.51    1.01
   2   0  -5    7.28    0.41
  -2   0   5    7.32    0.38
  -2   0   5    7.20    0.37
   2   0  -5    7.40    0.36
   2   0  -4   10.31    0.44
  -2   0   4   10.02    0.40
   2   0  -4    8.80    0.36
  -2   0   4    8.31    0.39
  -2   0   3    0.51    0.10
   2   0  -3    0.52    0.09
   2   0  -3    0.57    0.06
  -2   0   3    0.44    0.10
  -2   0   2   60.27    0.88
  -2   0   2   59.04    0.75
   2   0  -2   60.92    0.80
   2   0  -2   59.28    0.69
  -2   0   1    0.12    0.08
   2   0  -1    0.03    0.05
  -2   0   1    0.02    0.04
   2   0  -1   -0.03    0.04
  -2   0   1   -0.06    0.08
   2   0   0  113.70    0.76
   2   0   0  111.78    1.03
   2   0   0  110.44    0.76
  -2   0   0  111.51    0.69
  -2   0   0  110.79    1.13
  -2   0   0  112.81    0.82
   2   0   1  160.37    1.00
  -2   0  -1  157.45    1.44
   2   0   1  162.31    1.30
   2   0   2    0.62    0.11
   2   0   2    0.62    0.08
  -2   0  -2    0.57    0.11
  -2   0  -2    0.62    0.11
  -2   0  -3  185.04    1.68
   2   0   3  186.96    1.55
   2   0   3  188.61    1.50
  -2   0  -3  185.91    1.83
  -2   0  -4    8.27    0.35
  -2   0  -4    8.44    0.40
  -2   0  -4    8.39    0.43
   2   0   4    8.63    0.37
   2   0   4    8.53    0.35
   2   0   5    0.52    0.12
   2   0   5    0.56    0.12
  -2   0  -5    0.52    0.14
  -2   0  -5    0.44    0.12
  -2   0  -5    0.72    0.17
  -2   0  -6  139.90    1.84
   2   0   6  143.00    1.81
  -2   0  -6  144.55    2.04
   2   0   6  144.16    1.55
  -2   0  -6  141.58    1.93
  -2   0  -7   27.61    0.90
   2   0   7   28.05    0.71
  -2   0  -7   26.43    0.92
   2   0   7   27.36    0.87
  -2   0  -7   28.12    0.96
  -2   0  -8   68.85    1.55
  -2   0  -8   66.83    1.57
   2   0   8   69.82    1.16
   2   0   8   69.75    1.48
   2   0   8   68.75    1.16
  -2   0  -8   67.08    1.59
  -2   0  -9    4.82    0.45
  -2   0  -9    5.42    0.49
   2   0   9    4.99    0.33
  -2   0  -9    4.98    0.47
   2   0   9    5.14    0.44
  -2   0 -10    0.26    0.17
  -2   0 -10    0.11    0.15
  -2   0 -10   -0.02    0.16
   2   0  10    0.11    0.14
  -2   0 -11   23.15    1.11
  -2   0 -11   21.60    1.10
  -2   0 -11   23.35    1.11
   2   0  11   23.04    1.05
  -2   0 -12    0.25    0.19
   2   0  12    0.50    0.19
  -2   0 -12    0.31    0.20
  -2   0 -12    0.60    0.24
  -2   0 -13   13.25    0.94
  -2   0 -13   13.18    0.97
  -2   0 -13   13.91    0.93
   2   0  13   12.84    0.88
   2   0  14    7.97    0.74
  -2   0 -14    6.42    0.72
  -2  -1  14    0.16    0.18
   2   1 -14    0.19    0.19
  -2  -1  13   -0.24    0.21
   2   1 -13    0.57    0.30
   2   1 -12   12.35    0.93
  -2  -1  12   12.41    0.85
  -2  -1  11    9.12    0.69
   2   1 -11    9.30    0.76
   2   1 -11    8.95    0.73
  -2  -1  11    8.25    0.64
   2   1 -10    5.33    0.55
   2   1 -10    6.22    0.58
   2   1 -10    5.66    0.45
  -2  -1  10    4.62    0.46
   2   1  -9    9.55    0.70
   2   1  -9    9.47    0.54
   2   1  -9    9.32    0.67
  -2  -1   9    9.34    0.54
  -2  -1   9   10.00    0.62
   2   1  -9    8.92    0.48
   2   1  -8    7.73    0.44
  -2  -1   8    7.29    0.45
   2   1  -8    8.10    0.47
  -2  -1   8    7.64    0.51
   2   1  -8    8.01    0.60
   2   1  -8    7.15    0.55
  -2  -1   7   55.65    0.79
   2   1  -7   54.47    1.39
  -2  -1   7   54.71    1.14
   2   1  -7   51.58    1.10
   2   1  -7   55.00    1.38
  -2  -1   7   54.40    1.25
  -2  -1   6   31.41    0.81
   2   1  -6   31.25    0.99
   2   1  -6   30.28    0.82
  -2  -1   6   32.44    0.90
   2   1  -6   32.16    0.98
  -2  -1   5    4.06    0.31
   2   1  -5    4.00    0.29
  -2  -1   5    3.77    0.26
   2   1  -5    4.48    0.35
   2   1  -5    3.93    0.34
   2   1  -4   64.87    1.16
  -2  -1   4   61.43    0.95
   2   1  -4   63.70    1.09
  -2  -1   4   62.42    1.06
   2   1  -4   59.45    0.61
   2   1  -3    1.58    0.17
  -2  -1   3    1.30    0.13
  -2  -1   3    1.53    0.17
   2   1  -3    1.61    0.17
  -2  -1   2  624.81    2.90
  -2  -1   2  638.92    2.63
   2   1  -2  625.09    2.82
   2   1  -2  644.91    2.84
  -2  -1   1  379.50    1.86
   2   1  -1  381.61    1.83
   2   1  -1  379.95    1.71
   2   1  -1  383.39    2.02
  -2  -1   1  374.67    2.16
   2   1   0    1.97    0.10
  -2  -1   0    1.75    0.14
  -2  -1   0    1.69    0.13
   2   1   0    1.63    0.12
   2   1   1  536.01    2.27
   2   1   1  534.43    2.02
   2   1   2  200.15    1.35
   2   1   2  204.13    1.47
  -2  -1  -2  202.05    1.69
   2   1   2  199.82    1.43
  -2  -1  -2  201.69    1.42
  -2  -1  -3  251.36    1.31
   2   1   3  260.47    1.70
  -2  -1  -3  251.55    1.81
  -2  -1  -3  252.39    2.08
   2   1   3  254.38    1.71
  -2  -1  -4  198.18    1.49
  -2  -1  -4  201.23    1.81
   2   1   4  203.56    1.73
   2   1   4  204.61    1.57
  -2  -1  -4  201.71    2.01
  -2  -1  -5   78.39    1.25
  -2  -1  -5   76.31    1.09
   2   1   5   77.01    1.17
   2   1   5   78.00    1.06
  -2  -1  -5   78.66    1.37
   2   1   5   78.09    1.01
  -2  -1  -6   30.17    0.85
   2   1   6   30.49    0.69
  -2  -1  -6   30.25    0.92
   2   1   6   30.73    0.81
   2   1   6   29.68    0.66
  -2  -1  -6   29.83    0.78
  -2  -1  -7   99.22    1.69
   2   1   7  101.59    1.32
  -2  -1  -7   99.26    1.79
   2   1   7  102.11    1.61
   2   1   7  100.27    1.24
  -2  -1  -7  100.96    1.60
  -2  -1  -8    8.83    0.53
   2   1   8    8.23    0.39
  -2  -1  -8    8.28    0.56
   2   1   8    8.29    0.51
   2   1   8    8.56    0.37
  -2  -1  -9    1.64    0.29
   2   1   9    1.23    0.22
   2   1   9    1.09    0.15
  -2  -1  -9    1.09    0.23
  -2  -1  -9    0.59    0.18
  -2  -1 -10   44.77    1.37
  -2  -1 -10   44.90    1.45
  -2  -1 -10   43.27    1.40
   2   1  10   46.73    1.36
  -2  -1 -11    0.46    0.18
  -2  -1 -11    0.61    0.22
   2   1  11    0.66    0.21
  -2  -1 -11    0.72    0.22
  -2  -1 -12   11.00    0.78
  -2  -1 -12   10.65    0.79
  -2  -1 -12   10.46    0.79
   2   1  12   11.03    0.76
   2   1  13    0.23    0.15
  -2  -1 -13    0.13    0.18
  -2  -1 -13    0.28    0.24
  -2  -1 -13    0.29    0.19
   2   1  14   -0.24    0.26
  -2  -1 -14   -0.27    0.28
  -2  -1 -14    0.17    0.16
   2   1  15    3.18    0.49
   2   2 -13    5.82    0.69
  -2  -2  13    4.92    0.61
   2   2 -12    9.74    0.84
  -2  -2  12    8.22    0.73
  -2  -2  11   27.52    1.24
   2   2 -11   30.53    1.40
  -2  -2  11   29.46    1.25
   2   2 -10    2.82    0.42
  -2  -2  10    2.97    0.40
   2   2  -9   24.01    1.06
  -2  -2   9   23.70    1.00
   2   2  -9   24.39    0.86
   2   2  -9   25.60    1.15
  -2  -2   8   39.67    1.21
   2   2  -8   39.57    1.27
  -2  -2   8   40.23    0.98
   2   2  -8   41.28    1.00
   2   2  -8   39.84    1.08
   2   2  -8   39.89    1.34
  -2  -2   7    9.11    0.57
   2   2  -7    8.49    0.59
   2   2  -7    8.08    0.55
   2   2  -7    9.08    0.50
  -2  -2   7    8.59    0.43
   2   2  -7    7.93    0.41
  -2  -2   7    8.51    0.38
   2   2  -6   35.93    1.11
   2   2  -6   33.42    0.92
   2   2  -6   32.99    1.01
   2   2  -6   35.97    0.80
  -2  -2   6   34.90    1.00
  -2  -2   6   32.70    0.76
  -2  -2   5    7.63    0.45
   2   2  -5    6.67    0.40
   2   2  -5    7.27    0.44
  -2  -2   5    7.11    0.33
   2   2  -5    7.39    0.49
   2   2  -4    5.67    0.23
   2   2  -4    6.16    0.37
  -2  -2   4    6.42    0.38
  -2  -2   4    5.70    0.27
   2   2  -4    6.35    0.38
   2   2  -4    5.58    0.38
   2   2  -3   18.23    0.61
   2   2  -3   18.17    0.60
   2   2  -3   17.16    0.43
  -2  -2   3   18.66    0.60
  -2  -2   3   17.39    0.42
   2   2  -2   10.95    0.45
   2   2  -2   11.52    0.37
  -2  -2   2   10.82    0.44
   2   2  -2   11.58    0.43
  -2  -2   2   10.83    0.31
   2   2  -1    0.90    0.12
   2   2  -1    0.74    0.08
   2   2  -1    0.83    0.13
  -2  -2   1    0.99    0.15
  -2  -2   0   44.15    0.59
   2   2   0   44.05    0.62
   2   2   0   44.42    0.74
   2   2   0   45.22    0.49
  -2  -2   0   42.91    0.75
   2   2   1    1.52    0.14
   2   2   1    1.78    0.14
   2   2   1    1.86    0.14
  -2  -2  -1    2.02    0.16
  -2  -2  -1    1.76    0.14
   2   2   2  156.95    1.37
   2   2   2  160.20    1.20
  -2  -2  -2  162.21    1.13
  -2  -2  -2  158.59    1.43
   2   2   2  160.42    1.27
  -2  -2  -3   25.16    0.32
  -2  -2  -3   26.30    0.65
  -2  -2  -3   25.95    0.53
   2   2   3   25.95    0.58
   2   2   3   26.35    0.56
  -2  -2  -4   59.63    0.92
   2   2   4   60.92    0.94
   2   2   4   61.77    0.92
  -2  -2  -4   61.50    1.09
  -2  -2  -4   60.08    0.70
   2   2   5   64.00    0.97
  -2  -2  -5   59.73    0.86
   2   2   5   61.44    1.03
  -2  -2  -5   62.21    1.20
   2   2   5   62.46    0.86
   2   2   6    1.34    0.18
   2   2   6    1.51    0.16
  -2  -2  -6    1.53    0.18
  -2  -2  -6    1.82    0.25
   2   2   6    1.77    0.16
  -2  -2  -7   63.58    1.16
   2   2   7   67.77    1.28
   2   2   7   66.39    1.07
  -2  -2  -7   66.33    1.45
   2   2   7   65.23    0.93
  -2  -2  -8    2.92    0.30
   2   2   8    2.70    0.23
  -2  -2  -8    2.49    0.32
   2   2   8    2.47    0.29
   2   2   8    2.42    0.19
   2   2   9    0.21    0.11
   2   2   9    0.23    0.07
  -2  -2  -9    0.19    0.14
  -2  -2  -9    0.05    0.18
  -2  -2 -10   33.05    1.12
  -2  -2 -10   30.61    1.20
   2   2  10   33.80    1.12
  -2  -2 -11    0.87    0.24
   2   2  11    1.41    0.28
  -2  -2 -12   15.58    0.94
  -2  -2 -12   14.88    0.93
   2   2  12   15.16    0.86
  -2  -2 -12   14.59    0.86
  -2  -2 -13    3.21    0.45
   2   2  13    3.33    0.43
  -2  -2 -13    2.96    0.46
  -2  -2 -13    2.29    0.41
   2   2  14    1.17    0.29
  -2  -2 -14    1.05    0.32
  -2  -2 -14    0.57    0.24
  -2  -2 -15    5.10    0.66
   2   2  15    5.09    0.58
  -2  -2 -15    4.96    0.64
  -2  -3  13    0.30    0.19
   2   3 -13    0.17    0.23
   2   3 -12    1.87    0.43
  -2  -3  12    2.49    0.46
   2   3 -11    7.17    0.72
  -2  -3  11    7.29    0.67
   2   3 -10    1.59    0.34
  -2  -3  10    1.76    0.32
  -2  -3   9    6.53    0.57
   2   3  -9    5.88    0.46
   2   3  -9    5.81    0.59
   2   3  -8   10.41    0.66
   2   3  -8   12.01    0.79
   2   3  -8   11.96    0.64
  -2  -3   8   12.61    0.74
   2   3  -7    0.13    0.10
   2   3  -7   -0.06    0.11
  -2  -3   7    0.11    0.18
   2   3  -7   -0.06    0.19
  -2  -3   7    0.07    0.07
   2   3  -6   35.65    1.17
  -2  -3   6   36.40    0.89
   2   3  -6   35.01    1.04
  -2  -3   6   35.11    0.72
   2   3  -6   34.96    1.01
  -2  -3   6   36.24    1.09
   2   3  -6   35.56    0.73
   2   3  -5    5.08    0.44
  -2  -3   5    4.50    0.24
   2   3  -5    4.75    0.36
   2   3  -5    4.73    0.24
   2   3  -5    4.37    0.35
  -2  -3   5    4.54    0.40
  -2  -3   4   -0.04    0.04
   2   3  -4    0.01    0.07
   2   3  -4    0.14    0.12
  -2  -3   4    0.17    0.15
   2   3  -4    0.04    0.05
   2   3  -4   -0.03    0.14
   2   3  -3  132.21    1.77
   2   3  -3  130.30    1.36
   2   3  -3  136.20    1.55
  -2  -3   3  129.79    0.95
  -2  -3   3  136.04    1.76
   2   3  -3  137.12    1.83
   2   3  -2   45.67    0.97
   2   3  -2   42.60    0.80
  -2  -3   2   44.21    0.97
   2   3  -2   45.29    0.83
   2   3  -2   43.90    0.97
   2   3  -2   44.49    0.77
  -2  -3   2   43.04    0.50
  -2  -3   1    0.50    0.06
   2   3  -1    0.19    0.08
   2   3  -1    0.46    0.09
   2   3  -1    0.54    0.13
   2   3  -1    0.41    0.10
  -2  -3   1    0.46    0.13
   2   3   0   38.75    0.71
  -2  -3   0   37.07    0.79
   2   3   0   37.79    0.77
  -2  -3   0   39.87    0.50
   2   3   0   38.27    0.64
   2   3   0   36.72    0.81
  -2  -3  -1   11.20    0.32
   2   3   1   10.71    0.40
  -2  -3  -1   10.77    0.39
   2   3   1   11.41    0.32
   2   3   2  108.00    1.14
  -2  -3  -2  108.23    0.79
  -2  -3  -2  106.19    1.13
   2   3   2  107.74    1.17
   2   3   3   62.31    0.89
  -2  -3  -3   61.61    0.75
   2   3   3   63.31    0.82
  -2  -3  -3   61.88    0.58
  -2  -3  -3   60.95    0.97
  -2  -3  -4   42.56    0.73
   2   3   4   42.84    0.80
  -2  -3  -4   42.15    0.89
   2   3   4   43.17    0.62
  -2  -3  -4   41.79    0.55
  -2  -3  -5   46.64    0.69
   2   3   5   49.75    0.93
  -2  -3  -5   49.98    1.06
   2   3   5   50.68    0.62
  -2  -3  -6   42.05    0.77
   2   3   6   42.32    0.54
   2   3   6   43.88    0.95
  -2  -3  -6   43.21    1.07
  -2  -3  -7  128.34    1.54
   2   3   7  134.39    1.79
  -2  -3  -7  135.98    2.06
   2   3   7  128.07    0.90
  -2  -3  -8  123.93    1.70
   2   3   8  125.49    0.84
  -2  -3  -8  125.91    2.15
   2   3   8  129.29    1.88
   2   3   9    1.03    0.20
  -2  -3  -9    1.34    0.29
  -2  -3  -9    1.23    0.22
  -2  -3 -10   51.89    1.32
   2   3  10   50.35    1.34
  -2  -3 -10   49.01    1.53
  -2  -3 -11   71.85    1.69
  -2  -3 -11   68.15    1.90
   2   3  11   67.18    1.64
  -2  -3 -12    5.82    0.53
  -2  -3 -12    5.60    0.59
   2   3  12    4.84    0.48
  -2  -3 -13   20.69    1.06
   2   3  13   19.06    0.98
  -2  -3 -13   19.71    1.14
  -2  -3 -14    6.02    0.65
   2   3  14    5.79    0.58
  -2  -3 -14    5.07    0.62
   2   3  15    2.91    0.44
  -2  -3 -15    3.11    0.52
  -2  -3 -15    3.28    0.53
  -2  -3 -16    7.54    0.82
   2   4 -13    0.01    0.16
  -2  -4  12    0.82    0.30
   2   4 -12    0.44    0.28
  -2  -4  12    1.31    0.36
   2   4 -11    1.71    0.38
  -2  -4  11    1.25    0.30
   2   4 -10    6.76    0.68
  -2  -4  10    7.01    0.65
   2   4  -9    1.47    0.26
   2   4  -9    1.40    0.30
  -2  -4   9    0.85    0.23
   2   4  -8   11.66    0.69
   2   4  -8   12.72    0.84
  -2  -4   8   13.74    0.80
  -2  -4   7   40.92    1.31
   2   4  -7   37.91    1.36
   2   4  -7   37.92    1.18
  -2  -4   7   39.64    1.06
  -2  -4   6    7.20    0.55
   2   4  -6    6.41    0.47
   2   4  -6    6.55    0.56
  -2  -4   6    6.23    0.41
  -2  -4   5   56.36    1.38
   2   4  -5   56.91    1.48
   2   4  -5   57.19    1.24
   2   4  -5   54.77    1.32
   2   4  -4   71.40    1.55
   2   4  -4   68.21    1.08
   2   4  -4   70.30    1.25
   2   4  -4   66.43    1.39
  -2  -4   4   71.00    1.46
   2   4  -3   17.16    0.55
   2   4  -3   18.82    0.72
   2   4  -3   18.29    0.65
   2   4  -3   17.40    0.55
   2   4  -3   18.14    0.73
  -2  -4   3   18.08    0.71
   2   4  -2  154.52    1.70
   2   4  -2  161.79    1.47
   2   4  -2  163.83    1.79
   2   4  -2  160.36    1.99
  -2  -4   2  161.76    2.02
   2   4  -2  156.07    1.99
   2   4  -1   15.60    0.38
   2   4  -1   14.89    0.52
   2   4  -1   14.33    0.58
  -2  -4   1   14.85    0.60
   2   4   0   58.03    1.11
   2   4   0   56.94    1.06
  -2  -4   0   58.58    0.55
   2   4   0   59.56    0.98
  -2  -4   0   58.88    1.10
   2   4   0   58.40    0.54
   2   4   1  143.74    1.70
  -2  -4  -1  146.30    1.12
   2   4   1  145.96    1.43
   2   4   1  146.01    1.67
  -2  -4  -1  144.30    1.58
   2   4   2   13.29    0.42
   2   4   2   13.70    0.53
   2   4   2   13.17    0.45
  -2  -4  -2   13.15    0.39
   2   4   2   13.24    0.48
  -2  -4  -2   13.37    0.46
   2   4   3   92.44    1.16
  -2  -4  -3   91.83    0.80
  -2  -4  -3   90.15    1.16
   2   4   3   89.88    1.18
   2   4   4    1.09    0.13
  -2  -4  -4    1.08    0.11
  -2  -4  -4    1.07    0.15
   2   4   4    0.99    0.13
  -2  -4  -5    0.23    0.10
  -2  -4  -5    0.18    0.06
   2   4   5    0.20    0.06
   2   4   5    0.13    0.08
  -2  -4  -6  113.45    1.74
   2   4   6  115.93    1.54
  -2  -4  -6  109.78    1.22
  -2  -4  -7    3.05    0.24
   2   4   7    3.11    0.28
  -2  -4  -7    2.89    0.32
   2   4   7    2.73    0.14
  -2  -4  -8  111.16    1.54
   2   4   8  113.15    1.73
  -2  -4  -8  113.48    2.03
   2   4   9    5.03    0.40
  -2  -4  -9    5.64    0.51
  -2  -4  -9    4.96    0.37
   2   4  10    2.55    0.31
  -2  -4 -10    2.28    0.35
  -2  -4 -10    2.50    0.30
   2   4  11   54.15    1.44
  -2  -4 -11   55.21    1.72
  -2  -4 -11   54.90    1.42
   2   4  12    1.65    0.29
  -2  -4 -12    2.28    0.35
  -2  -4 -12    1.72    0.37
  -2  -4 -13    6.56    0.67
   2   4  13    6.45    0.56
  -2  -4 -13    6.55    0.58
   2   4  14    7.49    0.64
  -2  -4 -14    7.29    0.74
  -2  -4 -15    3.36    0.51
   2   4  15    2.21    0.39
  -2  -4 -15    2.06    0.44
  -2  -4 -16    3.45    0.57
   2   4  16    3.68    0.52
  -2  -4 -16    2.84    0.52
   2   5 -12    7.24    0.70
   2   5 -11   -0.12    0.27
   2   5 -11   -0.04    0.13
  -2  -5  11    0.18    0.17
   2   5 -10    4.74    0.58
  -2  -5  10    4.13    0.54
  -2  -5   9    2.06    0.38
   2   5  -9    1.38    0.33
   2   5  -8    2.15    0.32
   2   5  -8    2.37    0.40
  -2  -5   8    2.12    0.36
   2   5  -7   20.29    1.05
   2   5  -7   20.70    0.94
  -2  -5   7   20.34    0.99
  -2  -5   7   20.88    0.86
  -2  -5   6    0.00    0.09
   2   5  -6   -0.03    0.22
   2   5  -6    0.09    0.10
  -2  -5   6    0.20    0.19
   2   5  -5    5.56    0.51
   2   5  -5    5.65    0.47
  -2  -5   5    6.27    0.51
  -2  -5   5    5.92    0.44
   2   5  -4   16.90    0.81
   2   5  -4   17.17    0.73
   2   5  -4   16.51    0.75
  -2  -5   4   18.37    0.80
   2   5  -3    1.81    0.27
   2   5  -3    2.13    0.23
   2   5  -3    2.26    0.26
  -2  -5   3    1.90    0.28
   2   5  -3    2.00    0.27
  -2  -5   2   55.73    1.28
   2   5  -2   53.75    1.10
   2   5  -2   57.35    1.19
   2   5  -2   54.45    1.25
   2   5  -1    5.49    0.36
   2   5  -1    5.57    0.36
   2   5  -1    4.97    0.37
  -2  -5   1    6.25    0.43
   2   5   0    4.62    0.14
  -2  -5   0    4.56    0.14
   2   5   0    4.81    0.32
   2   5   0    4.87    0.35
  -2  -5   0    4.90    0.36
   2   5   0    5.07    0.35
   2   5   1   50.05    0.97
   2   5   1   48.72    1.07
  -2  -5  -1   48.64    0.64
   2   5   1   49.11    1.05
  -2  -5  -1   47.93    1.01
   2   5   2   39.93    0.98
   2   5   2   39.34    0.83
  -2  -5  -2   37.88    0.67
  -2  -5  -2   39.24    0.86
   2   5   2   38.07    0.88
   2   5   3   30.48    0.73
   2   5   3   30.52    0.87
   2   5   3   31.28    0.73
  -2  -5  -3   30.45    0.38
  -2  -5  -3   31.04    0.69
   2   5   3   30.50    0.74
  -2  -5  -4    0.22    0.09
   2   5   4    0.50    0.12
   2   5   4    0.24    0.10
   2   5   4    0.54    0.10
  -2  -5  -5    4.48    0.25
   2   5   5    4.67    0.36
   2   5   5    4.17    0.29
   2   5   5    4.27    0.25
  -2  -5  -5    4.55    0.34
  -2  -5  -6   34.13    0.72
   2   5   6   35.87    0.97
   2   5   6   35.29    0.86
  -2  -5  -6   35.62    0.97
   2   5   6   35.74    0.62
   2   5   7    0.16    0.08
   2   5   7    0.05    0.09
   2   5   7    0.13    0.04
  -2  -5  -7    0.18    0.12
  -2  -5  -7    0.17    0.07
  -2  -5  -8   13.26    0.53
   2   5   8   13.26    0.61
   2   5   8   14.32    0.63
  -2  -5  -8   14.07    0.72
  -2  -5  -9    0.94    0.23
   2   5   9    0.79    0.18
   2   5   9    0.90    0.16
  -2  -5  -9    0.60    0.14
  -2  -5 -10    3.63    0.33
   2   5  10    3.92    0.34
   2   5  10    3.26    0.34
  -2  -5 -10    3.84    0.45
  -2  -5 -11   51.37    1.35
   2   5  11   45.84    1.31
  -2  -5 -11   47.64    1.59
  -2  -5 -12   17.48    0.86
  -2  -5 -12   17.47    1.04
   2   5  12   16.13    0.83
   2   5  13    1.46    0.28
  -2  -5 -13    1.22    0.32
  -2  -5 -13    1.71    0.30
  -2  -5 -14   14.04    1.03
   2   5  14   14.04    0.86
   2   5  15   17.25    1.01
  -2  -5 -15   16.32    1.19
   2   5  16    3.94    0.52
  -2  -5 -16    3.52    0.54
  -2  -5 -16    3.12    0.58
   2   6 -11    0.57    0.21
  -2  -6  11    0.00    0.18
   2   6 -10    2.84    0.45
  -2  -6  10    1.77    0.40
   2   6  -9    0.63    0.21
   2   6  -9    0.49    0.18
  -2  -6   9    0.43    0.21
  -2  -6   8    0.11    0.17
   2   6  -8   -0.22    0.16
   2   6  -8   -0.14    0.14
   2   6  -7    7.00    0.59
   2   6  -7    7.46    0.54
   2   6  -7    7.28    0.61
  -2  -6   7    7.87    0.67
  -2  -6   7    8.20    0.60
   2   6  -6    0.40    0.17
  -2  -6   6    0.58    0.17
   2   6  -6    0.72    0.21
  -2  -6   6    0.74    0.27
  -2  -6   5    1.78    0.31
   2   6  -5    1.37    0.26
   2   6  -5    1.48    0.26
  -2  -6   5    2.04    0.31
   2   6  -4   28.18    1.01
   2   6  -4   28.05    1.04
  -2  -6   4   28.46    1.06
  -2  -6   4   27.88    1.01
  -2  -6   3   19.25    0.84
   2   6  -3   18.09    0.77
   2   6  -3   17.95    0.80
   2   6  -3   18.12    0.70
  -2  -6   2   33.96    1.07
   2   6  -2   34.48    1.02
   2   6  -2   34.67    1.08
   2   6  -2   34.96    0.70
   2   6  -2   33.56    0.96
   2   6  -1   22.68    0.46
   2   6  -1   23.50    0.80
  -2  -6   1   21.82    0.83
   2   6  -1   22.62    0.78
   2   6  -1   22.69    0.84
   2   6   0   12.04    0.58
   2   6   0   10.71    0.22
   2   6   0   12.34    0.60
   2   6   0   12.54    0.57
  -2  -6   0   12.78    0.61
   2   6   1   65.80    1.34
  -2  -6  -1   64.85    0.74
   2   6   1   64.73    1.25
  -2  -6  -1   64.67    1.28
   2   6   1   65.26    1.30
   2   6   2  186.83    2.06
   2   6   2  188.56    2.27
  -2  -6  -2  181.60    1.49
   2   6   2  191.86    2.13
  -2  -6  -2  191.53    2.08
  -2  -6  -3    1.54    0.16
  -2  -6  -3    1.82    0.20
   2   6   3    1.54    0.19
   2   6   3    2.02    0.25
   2   6   3    1.63    0.20
   2   6   4  114.75    1.50
   2   6   4  118.31    1.61
   2   6   4  113.90    1.79
   2   6   4  115.60    1.46
  -2  -6  -4  113.02    1.46
   2   6   4  113.21    1.46
   2   6   5  111.51    1.79
   2   6   5  106.79    1.31
   2   6   5  110.62    1.49
  -2  -6  -5  112.58    1.59
   2   6   5  113.32    1.56
  -2  -6  -6    0.18    0.09
   2   6   6    0.33    0.13
   2   6   6    0.13    0.09
   2   6   6    0.34    0.11
   2   6   6    0.29    0.08
  -2  -6  -6    0.39    0.14
   2   6   7  143.90    2.08
   2   6   7  139.91    1.83
   2   6   7  138.00    1.19
  -2  -6  -7  135.79    1.62
  -2  -6  -7  139.05    2.08
   2   6   7  139.47    2.01
   2   6   8   43.63    1.16
  -2  -6  -8   43.87    0.98
   2   6   8   43.22    1.09
   2   6   8   44.91    1.22
  -2  -6  -8   43.54    1.25
   2   6   9    3.61    0.34
   2   6   9    3.78    0.35
  -2  -6  -9    3.49    0.40
  -2  -6  -9    3.92    0.32
  -2  -6 -10   32.60    0.98
   2   6  10   32.72    1.01
  -2  -6 -10   33.21    1.24
   2   6  10   31.51    1.04
  -2  -6 -11    0.85    0.17
   2   6  11    1.04    0.20
   2   6  11    1.00    0.22
  -2  -6 -11    0.96    0.23
  -2  -6 -12   34.01    1.17
  -2  -6 -12   31.36    1.38
   2   6  12   33.17    1.18
   2   6  13    2.14    0.33
  -2  -6 -13    2.75    0.37
  -2  -6 -13    3.19    0.49
  -2  -6 -14    3.06    0.51
   2   6  14    4.18    0.48
   2   6  15   17.86    1.01
  -2  -6 -15   16.95    1.20
   2   6  16    0.11    0.11
  -2  -6 -16   -0.20    0.24
   2   7 -10    2.43    0.42
  -2  -7  10    3.53    0.55
   2   7  -9    0.38    0.20
  -2  -7   9    0.03    0.19
  -2  -7   8    6.21    0.67
   2   7  -8    5.82    0.61
   2   7  -7    1.55    0.32
  -2  -7   7    1.02    0.26
  -2  -7   7    1.28    0.28
  -2  -7   6    1.17    0.27
   2   7  -6    1.41    0.29
   2   7  -6    1.19    0.26
  -2  -7   6    1.52    0.34
   2   7  -5    5.49    0.51
  -2  -7   5    6.71    0.59
  -2  -7   5    5.74    0.52
   2   7  -5    6.10    0.55
   2   7  -4    0.18    0.13
   2   7  -4    0.13    0.08
  -2  -7   4    0.10    0.16
   2   7  -4    0.12    0.12
  -2  -7   4    0.13    0.14
   2   7  -3   30.47    1.07
  -2  -7   3   29.85    1.10
   2   7  -3   30.21    1.11
  -2  -7   3   31.41    1.13
   2   7  -3   31.17    0.78
   2   7  -2    0.43    0.16
   2   7  -2    0.43    0.14
  -2  -7   2    0.56    0.20
   2   7  -2    0.28    0.13
   2   7  -2    0.61    0.10
   2   7  -1   11.27    0.60
   2   7  -1   10.82    0.59
  -2  -7   1   10.61    0.62
   2   7  -1   10.68    0.33
   2   7  -1   10.28    0.61
   2   7   0   66.44    1.47
   2   7   0   64.35    1.43
  -2  -7   0   70.86    1.51
   2   7   0   67.10    1.42
  -2  -7  -1    0.22    0.13
   2   7   1    0.10    0.12
   2   7   1   -0.04    0.14
  -2  -7  -1    0.20    0.05
   2   7   1    0.19    0.09
  -2  -7  -2   55.06    1.22
   2   7   2   55.39    1.23
  -2  -7  -2   54.25    0.83
   2   7   2   52.29    1.21
   2   7   2   55.88    1.33
  -2  -7  -3    8.42    0.46
  -2  -7  -3    9.16    0.39
   2   7   3    8.41    0.47
   2   7   3    8.12    0.52
   2   7   3    8.10    0.48
   2   7   4   13.41    0.67
   2   7   4   14.12    0.61
  -2  -7  -4   12.53    0.24
   2   7   4   13.52    0.51
  -2  -7  -4   13.53    0.52
   2   7   4   13.84    0.56
  -2  -7  -4   13.40    0.57
   2   7   5   45.24    1.10
   2   7   5   45.43    1.21
   2   7   5   46.59    1.03
   2   7   5   45.13    1.01
   2   7   5   45.59    0.94
  -2  -7  -5   45.73    1.03
   2   7   6   29.89    0.99
  -2  -7  -6   28.83    0.77
   2   7   6   28.37    0.82
   2   7   6   29.35    0.71
   2   7   6   30.12    0.88
  -2  -7  -6   29.10    0.89
   2   7   7   35.48    0.71
   2   7   7   35.71    1.03
  -2  -7  -7   34.82    0.87
   2   7   7   36.18    1.10
   2   7   7   35.20    0.94
  -2  -7  -7   35.89    1.06
   2   7   8   16.49    0.74
   2   7   8   16.62    0.69
   2   7   8   16.67    0.75
  -2  -7  -8   16.37    0.77
   2   7   8   15.35    0.40
  -2  -7  -8   16.25    0.62
   2   7   9    5.27    0.43
   2   7   9    4.69    0.39
   2   7   9    5.64    0.47
  -2  -7  -9    4.95    0.46
  -2  -7  -9    4.82    0.36
   2   7  10    9.41    0.57
  -2  -7 -10    9.32    0.66
   2   7  10    9.61    0.58
   2   7  10    8.68    0.62
  -2  -7 -10    9.09    0.53
   2   7  11   18.40    0.78
  -2  -7 -11   18.25    0.79
  -2  -7 -11   19.95    1.04
   2   7  11   18.30    0.84
  -2  -7 -12    2.41    0.31
   2   7  12    2.79    0.35
  -2  -7 -12    2.66    0.43
  -2  -7 -13    1.22    0.33
   2   7  13    0.76    0.20
  -2  -7 -14    0.08    0.16
   2   7  14    0.20    0.15
  -2  -7 -15    4.65    0.65
   2   7  15    3.84    0.48
  -2  -7 -16    1.48    0.42
   2   7  16    0.76    0.25
   2   8  -9   -0.01    0.14
  -2  -8   9   -0.24    0.25
  -2  -8   8    7.15    0.73
   2   8  -8    4.88    0.58
  -2  -8   7    1.03    0.32
   2   8  -7    0.57    0.23
  -2  -8   6    2.28    0.38
   2   8  -6    2.87    0.42
  -2  -8   6    2.68    0.45
  -2  -8   5    2.45    0.39
   2   8  -5    2.93    0.40
   2   8  -5    3.11    0.42
  -2  -8   5    2.90    0.42
  -2  -8   4    0.74    0.25
  -2  -8   4    0.47    0.20
   2   8  -4    0.52    0.19
   2   8  -4    0.57    0.20
  -2  -8   3    5.09    0.51
   2   8  -3    4.94    0.47
  -2  -8   3    5.81    0.54
   2   8  -3    5.09    0.50
  -2  -8   2    0.67    0.19
   2   8  -2    0.54    0.16
   2   8  -2    0.69    0.17
   2   8  -2    0.49    0.17
  -2  -8   2    0.77    0.22
   2   8  -1    4.06    0.40
  -2  -8   1    4.48    0.44
   2   8  -1    4.88    0.43
   2   8  -1    4.41    0.42
  -2  -8   0   10.81    0.63
   2   8   0    9.96    0.61
   2   8   0   10.34    0.64
   2   8   0    9.57    0.58
   2   8   1    0.02    0.10
   2   8   1    0.18    0.12
  -2  -8  -1    0.05    0.15
   2   8   1    0.21    0.14
   2   8   2   37.96    1.12
   2   8   2   38.31    1.10
  -2  -8  -2   39.40    0.73
  -2  -8  -2   39.28    1.10
   2   8   2   38.92    1.19
   2   8   3   12.25    0.67
   2   8   3   12.00    0.59
  -2  -8  -3   11.93    0.46
  -2  -8  -3   11.84    0.60
   2   8   3   11.66    0.62
   2   8   4    3.94    0.36
   2   8   4    3.96    0.39
  -2  -8  -4    4.13    0.30
  -2  -8  -4    4.55    0.36
   2   8   4    4.35    0.30
   2   8   4    4.32    0.35
  -2  -8  -5   20.03    0.70
   2   8   5   18.43    0.77
   2   8   5   19.15    0.83
   2   8   5   19.86    0.69
   2   8   5   19.10    0.67
  -2  -8  -5   20.27    0.75
   2   8   6   38.58    1.00
   2   8   6   40.30    1.04
  -2  -8  -6   39.95    1.06
   2   8   6   39.48    0.92
   2   8   6   39.30    1.19
  -2  -8  -7   17.97    0.67
   2   8   7   18.61    0.83
  -2  -8  -7   18.30    0.77
   2   8   7   17.64    0.69
   2   8   7   18.67    0.76
   2   8   7   19.05    0.59
  -2  -8  -8   27.78    0.86
   2   8   8   26.58    0.87
  -2  -8  -8   28.10    1.01
   2   8   8   25.87    0.98
   2   8   8   27.93    0.98
  -2  -8  -9   11.76    0.58
   2   8   9   11.71    0.66
   2   8   9   13.00    0.65
   2   8   9   11.12    0.66
  -2  -8  -9   12.18    0.71
  -2  -8 -10    0.95    0.19
   2   8  10    1.40    0.24
   2   8  10    0.99    0.24
  -2  -8 -10    0.99    0.22
   2   8  10    0.85    0.18
   2   8  11   52.92    1.39
   2   8  11   51.12    1.40
  -2  -8 -11   52.71    1.37
   2   8  11   52.72    1.59
  -2  -8 -11   51.91    1.65
   2   8  12    2.33    0.32
  -2  -8 -12    1.95    0.29
  -2  -8 -12    2.59    0.38
  -2  -8 -13    4.88    0.59
   2   8  13    4.67    0.48
   2   8  14   14.69    0.87
  -2  -8 -14   14.91    1.07
   2   8  15   -0.10    0.17
  -2  -8 -15    0.22    0.24
   2   8  16   13.59    0.93
  -2  -8 -16   13.26    1.12
   2   9  -8    0.97    0.28
  -2  -9   8    0.95    0.31
   2   9  -7    1.58    0.35
  -2  -9   7    2.83    0.49
  -2  -9   6   -0.13    0.15
  -2  -9   6    0.24    0.20
   2   9  -6   -0.16    0.16
  -2  -9   5    0.88    0.27
   2   9  -5    0.68    0.23
   2   9  -4   11.59    0.82
   2   9  -4   10.16    0.74
  -2  -9   4   13.00    0.85
  -2  -9   4   10.25    0.78
   2   9  -3    0.09    0.13
   2   9  -3    0.23    0.18
  -2  -9   3    0.34    0.19
  -2  -9   3    0.23    0.16
   2   9  -2    5.22    0.49
  -2  -9   2    5.22    0.53
   2   9  -2    5.84    0.55
  -2  -9   2    5.56    0.53
  -2  -9   1    0.70    0.19
   2   9  -1    0.99    0.21
  -2  -9   1    1.02    0.22
   2   9  -1    1.12    0.24
   2   9  -1    1.25    0.26
  -2  -9   0    0.57    0.23
   2   9   0    0.31    0.15
   2   9   0    0.30    0.18
   2   9   0    0.15    0.14
   2   9   1   30.01    1.12
   2   9   1   29.26    1.06
  -2  -9  -1   32.45    1.11
   2   9   1   29.09    1.07
   2   9   2    3.32    0.37
   2   9   2    3.27    0.37
   2   9   2    3.65    0.38
  -2  -9  -2    3.52    0.36
   2   9   3   13.65    0.75
  -2  -9  -3   15.35    0.72
  -2  -9  -3   15.05    0.53
   2   9   3   13.90    0.69
   2   9   3   14.26    0.74
   2   9   4   33.86    1.17
   2   9   4   33.48    1.01
   2   9   4   36.72    0.89
  -2  -9  -4   36.21    0.89
   2   9   4   32.58    1.11
  -2  -9  -4   34.71    1.06
  -2  -9  -5    0.87    0.17
  -2  -9  -5    0.99    0.20
   2   9   5    0.55    0.16
   2   9   5    0.63    0.16
   2   9   5    0.79    0.20
   2   9   5    1.07    0.18
   2   9   6   66.37    1.36
   2   9   6   63.14    1.59
   2   9   6   65.04    1.37
  -2  -9  -6   66.80    1.44
  -2  -9  -6   65.19    1.38
   2   9   6   63.02    1.27
   2   9   6   63.95    1.55
   2   9   7   19.71    0.76
   2   9   7   20.78    0.82
  -2  -9  -7   19.66    0.81
   2   9   7   19.64    0.90
   2   9   7   21.00    0.69
   2   9   8   12.76    0.72
   2   9   8   11.86    0.61
   2   9   8   11.01    0.63
  -2  -9  -8   11.74    0.67
  -2  -9  -8   11.63    0.60
  -2  -9  -9   71.30    1.50
   2   9   9   71.13    1.70
   2   9   9   70.04    1.67
   2   9   9   71.87    1.53
  -2  -9  -9   73.99    1.76
  -2  -9 -10    7.01    0.49
   2   9  10    6.80    0.53
   2   9  10    6.73    0.56
   2   9  10    7.38    0.52
  -2  -9 -10    7.13    0.59
  -2  -9 -11   36.32    1.16
   2   9  11   37.77    1.24
  -2  -9 -11   37.03    1.40
   2   9  11   37.77    1.36
   2   9  11   36.92    1.20
   2   9  12   20.66    0.94
   2   9  12   22.43    0.94
  -2  -9 -12   22.05    0.95
  -2  -9 -12   21.24    1.13
   2   9  13    0.27    0.15
  -2  -9 -13   -0.04    0.16
  -2  -9 -14   14.71    1.05
   2   9  14   12.38    0.80
   2   9  15    6.88    0.62
  -2  -9 -15    7.70    0.83
   2   9  16    0.65    0.22
  -2  -9 -16    0.52    0.23
   2  10  -7    1.02    0.30
  -2 -10   7    1.36    0.37
  -2 -10   6    2.14    0.43
   2  10  -6    1.58    0.34
  -2 -10   6    2.33    0.44
  -2 -10   5    1.09    0.30
   2  10  -5    1.26    0.30
  -2 -10   5    1.48    0.36
  -2 -10   4   10.39    0.86
   2  10  -4   10.07    0.78
  -2 -10   4   11.79    0.86
  -2 -10   3    6.83    0.62
   2  10  -3    6.77    0.61
  -2 -10   3    5.71    0.62
   2  10  -2    1.12    0.30
   2  10  -2    1.20    0.27
  -2 -10   2    1.09    0.26
  -2 -10   2    0.76    0.23
  -2 -10   1    3.26    0.44
   2  10  -1    3.15    0.39
  -2 -10   1    3.91    0.45
   2  10  -1    3.57    0.45
  -2 -10   0   12.45    0.75
   2  10   0   12.20    0.77
  -2 -10   0   13.16    0.84
   2  10   0   11.99    0.74
   2  10   0   12.81    0.80
   2  10   1    7.08    0.58
   2  10   1    7.28    0.60
   2  10   1    7.69    0.58
  -2 -10  -1    7.64    0.58
  -2 -10  -1    6.31    0.59
  -2 -10  -2    2.17    0.31
   2  10   2    2.70    0.38
   2  10   2    2.52    0.35
   2  10   2    2.33    0.33
  -2 -10  -3    0.54    0.18
   2  10   3    0.86    0.23
   2  10   3    0.67    0.21
   2  10   3    0.76    0.21
  -2 -10  -4    5.44    0.46
  -2 -10  -4    5.31    0.36
   2  10   4    4.83    0.42
   2  10   4    4.73    0.47
   2  10   4    4.59    0.45
   2  10   5    0.21    0.13
   2  10   5    0.04    0.13
  -2 -10  -5    0.05    0.08
   2  10   5    0.25    0.12
   2  10   5    0.36    0.13
  -2 -10  -5    0.06    0.11
   2  10   6    6.48    0.53
   2  10   6    7.31    0.58
   2  10   6    6.94    0.46
  -2 -10  -6    7.79    0.50
   2  10   6    6.97    0.47
  -2 -10  -6    7.33    0.51
  -2 -10  -7    5.08    0.43
  -2 -10  -7    4.34    0.40
   2  10   7    3.72    0.42
   2  10   7    4.68    0.40
  -2 -10  -8    2.38    0.29
   2  10   8    2.48    0.35
   2  10   8    2.78    0.31
   2  10   8    3.01    0.36
  -2 -10  -8    3.34    0.37
   2  10   9   14.67    0.82
   2  10   9   14.42    0.77
  -2 -10  -9   14.84    0.81
   2  10   9   14.68    0.71
  -2 -10  -9   15.22    0.74
  -2 -10 -10    1.11    0.25
   2  10  10    0.83    0.23
  -2 -10 -10    0.86    0.19
   2  10  10    0.79    0.21
   2  10  10    0.96    0.19
  -2 -10 -11    4.14    0.40
   2  10  11    4.02    0.42
   2  10  11    4.02    0.46
  -2 -10 -11    4.47    0.51
   2  10  11    3.79    0.40
  -2 -10 -12    6.66    0.54
   2  10  12    6.85    0.55
   2  10  12    6.05    0.52
   2  10  12    5.95    0.58
  -2 -10 -12    6.77    0.64
  -2 -10 -13    0.11    0.16
   2  10  13    0.02    0.11
   2  10  14    4.94    0.51
  -2 -10 -14    5.93    0.69
   2  10  15    9.71    0.75
  -2 -10 -15   10.60    0.95
  -2 -10 -16   -0.26    0.20
   2  10  16    0.06    0.12
  -2 -11   6    0.71    0.28
  -2 -11   6    0.68    0.27
   2  11  -6    0.80    0.27
  -2 -11   5    0.00    0.13
   2  11  -5    0.12    0.14
  -2 -11   4    3.95    0.57
   2  11  -4    3.97    0.52
  -2 -11   4    4.81    0.58
  -2 -11   3    1.09    0.31
  -2 -11   3    0.82    0.28
   2  11  -3    0.90    0.24
  -2 -11   2    4.11    0.55
   2  11  -2    4.21    0.49
  -2 -11   2    4.43    0.51
  -2 -11   1   12.36    0.81
   2  11  -1   11.43    0.78
  -2 -11   1   12.34    0.89
  -2 -11   0    8.24    0.72
   2  11   0    7.97    0.63
  -2 -11   0    9.26    0.67
   2  11   0    8.58    0.70
  -2 -11  -1    3.14    0.45
   2  11   1    3.56    0.48
  -2 -11  -1    3.55    0.42
   2  11   1    3.60    0.43
   2  11   1    3.30    0.44
   2  11   2    7.10    0.60
   2  11   2    7.14    0.62
  -2 -11  -2    8.84    0.63
   2  11   2    7.15    0.59
  -2 -11  -2    6.85    0.63
  -2 -11  -3    0.48    0.18
  -2 -11  -3    0.15    0.13
   2  11   3    0.42    0.18
   2  11   3    0.47    0.17
   2  11   3    0.30    0.14
  -2 -11  -4    0.61    0.20
  -2 -11  -4    0.60    0.20
   2  11   4    0.34    0.13
   2  11   4    0.43    0.19
   2  11   4    0.48    0.17
   2  11   5   10.24    0.73
   2  11   5    9.22    0.68
   2  11   5    8.66    0.59
  -2 -11  -5    9.67    0.64
   2  11   6    1.76    0.32
  -2 -11  -6    2.38    0.31
  -2 -11  -6    1.71    0.25
   2  11   6    1.85    0.25
   2  11   6    1.72    0.31
   2  11   7    5.48    0.53
  -2 -11  -7    6.82    0.53
   2  11   7    6.39    0.48
  -2 -11  -7    6.71    0.50
   2  11   7    5.95    0.55
  -2 -11  -8    0.54    0.15
  -2 -11  -8    0.54    0.16
  -2 -11  -8    0.65    0.19
   2  11   8    0.42    0.17
   2  11   8    0.79    0.18
   2  11   9    0.87    0.21
   2  11   9    0.77    0.21
  -2 -11  -9    0.77    0.20
   2  11   9    0.70    0.21
  -2 -11  -9    1.13    0.24
   2  11  10   15.04    0.77
   2  11  10   14.97    0.86
   2  11  10   15.27    0.85
  -2 -11 -10   14.79    0.86
  -2 -11 -10   15.09    0.80
   2  11  11    3.33    0.38
  -2 -11 -11    3.79    0.47
  -2 -11 -11    3.92    0.42
   2  11  11    3.48    0.43
   2  11  11    4.17    0.47
   2  11  12   11.69    0.76
   2  11  12   10.52    0.69
   2  11  12   11.14    0.80
  -2 -11 -12   13.03    0.89
  -2 -11 -13   19.37    1.15
   2  11  13   18.77    0.95
  -2 -11 -14    0.68    0.23
   2  11  14    0.43    0.17
   2  11  15   16.84    0.98
  -2 -11 -15   18.40    1.24
   2  11  16    4.55    0.54
  -2 -12   5    0.08    0.16
   2  12  -4    0.00    0.09
  -2 -12   4    0.52    0.26
  -2 -12   3    1.34    0.35
   2  12  -3    1.38    0.32
   2  12  -2    0.79    0.24
  -2 -12   2    0.73    0.25
  -2 -12   2    0.80    0.28
  -2 -12   1    0.16    0.17
   2  12  -1   -0.06    0.13
  -2 -12   1   -0.13    0.16
  -2 -12   0    2.25    0.42
  -2 -12   0    2.72    0.40
   2  12   0    2.82    0.40
  -2 -12  -1    4.14    0.54
  -2 -12  -1    3.59    0.44
   2  12   1    3.73    0.46
  -2 -12  -2    4.04    0.52
   2  12   2    3.98    0.50
  -2 -12  -2    5.09    0.51
   2  12   2    3.16    0.42
  -2 -12  -3   15.54    0.86
   2  12   3   13.72    0.89
  -2 -12  -3   13.96    0.92
   2  12   3   12.85    0.83
   2  12   4    6.76    0.61
   2  12   4    7.08    0.64
  -2 -12  -4    6.41    0.62
  -2 -12  -4    7.49    0.60
   2  12   5   10.80    0.77
   2  12   5   12.63    0.85
  -2 -12  -5   12.68    0.84
  -2 -12  -5   10.93    0.71
   2  12   6   16.86    0.97
  -2 -12  -6   18.70    0.93
   2  12   6   17.05    0.98
  -2 -12  -6   16.94    0.94
  -2 -12  -7    0.04    0.09
  -2 -12  -7    0.05    0.14
   2  12   7    0.00    0.13
   2  12   7    0.15    0.13
   2  12   7   -0.02    0.09
   2  12   8    7.23    0.63
  -2 -12  -8    7.83    0.62
   2  12   8    7.34    0.55
  -2 -12  -8    7.77    0.58
  -2 -12  -8    7.87    0.60
   2  12   9    6.80    0.56
   2  12   9    5.38    0.56
  -2 -12  -9    6.44    0.55
  -2 -12  -9    6.74    0.57
  -2 -12  -9    6.69    0.56
  -2 -12  -9    6.69    0.56
   2  12  10    2.70    0.34
  -2 -12 -10    2.61    0.34
  -2 -12 -10    2.31    0.35
   2  12  10    1.87    0.33
  -2 -12 -10    2.86    0.39
   2  12  10    2.29    0.35
  -2 -12 -11    2.86    0.38
   2  12  11    3.14    0.43
   2  12  11    2.43    0.33
  -2 -12 -11    3.14    0.43
   2  12  11    2.94    0.41
   2  12  12    0.32    0.15
   2  12  12    0.38    0.17
   2  12  12    0.47    0.19
  -2 -12 -12    0.49    0.23
  -2 -12 -13    2.86    0.46
   2  12  13    3.25    0.41
   2  12  14    3.26    0.43
  -2 -12 -14    3.89    0.57
   2  12  15    3.07    0.43
  -2 -12 -15    3.38    0.54
   2  12  16    1.68    0.33
  -2 -13   3    1.02    0.37
   2  13  -3    1.23    0.31
  -2 -13   2    0.86    0.31
   2  13  -2    1.02    0.29
  -2 -13   1    0.28    0.20
   2  13  -1   -0.11    0.16
   2  13   0    0.84    0.27
  -2 -13   0    0.04    0.19
  -2 -13  -1    3.57    0.54
   2  13   1    3.86    0.49
  -2 -13  -2    2.18    0.42
   2  13   2    2.78    0.41
  -2 -13  -3    3.69    0.53
   2  13   3    2.82    0.41
  -2 -13  -4    1.07    0.29
   2  13   4    1.05    0.27
   2  13   4    1.26    0.32
   2  13   5    4.94    0.55
   2  13   5    4.82    0.58
  -2 -13  -5    4.82    0.50
  -2 -13  -5    4.68    0.55
  -2 -13  -6    1.64    0.30
   2  13   6    1.40    0.31
  -2 -13  -6    1.73    0.35
   2  13   6    1.88    0.36
  -2 -13  -7    0.08    0.18
  -2 -13  -7    0.00    0.12
   2  13   7   -0.16    0.18
   2  13   7    0.09    0.17
  -2 -13  -8    1.68    0.30
   2  13   8    1.77    0.36
  -2 -13  -8    1.80    0.33
   2  13   9    5.02    0.57
  -2 -13  -9    4.43    0.49
  -2 -13  -9    5.88    0.56
   2  13   9    5.46    0.51
  -2 -13  -9    5.03    0.51
  -2 -13  -9    4.93    0.52
  -2 -13 -10    0.67    0.22
   2  13  10    0.62    0.21
  -2 -13 -10    0.58    0.19
  -2 -13 -10    0.74    0.24
   2  13  10    0.54    0.19
  -2 -13 -11    1.46    0.32
  -2 -13 -11    1.57    0.30
   2  13  11    0.71    0.24
   2  13  11    1.65    0.31
  -2 -13 -11    1.40    0.28
   2  13  12   -0.04    0.13
   2  13  12    0.23    0.15
  -2 -13 -12   -0.15    0.18
   2  13  13    0.22    0.18
   2  13  13    0.25    0.14
  -2 -13 -13    0.59    0.23
  -2 -13 -14    2.03    0.42
   2  13  14    1.61    0.31
   2  14  -1   -0.42    0.20
   2  14   0    0.02    0.14
  -2 -14   0    0.02    0.16
  -2 -14  -1    1.44    0.40
   2  14   1    1.51    0.34
  -2 -14  -2    0.13    0.17
   2  14   2    0.23    0.16
  -2 -14  -3    1.22    0.34
   2  14   3    1.35    0.31
  -2 -14  -4    2.81    0.49
   2  14   4    2.65    0.42
  -2 -14  -5    0.02    0.17
   2  14   5   -0.06    0.17
  -2 -14  -6    4.22    0.56
   2  14   6    4.22    0.55
   2  14   6    3.21    0.47
   2  14   7    8.31    0.76
  -2 -14  -7    8.23    0.74
   2  14   7    7.29    0.71
  -2 -14  -8    0.35    0.20
   2  14   8    0.31    0.22
   2  14   9   11.26    0.88
  -2 -14  -9   12.04    0.85
  -2 -14  -9   11.03    0.82
   2  14  10   12.27    0.91
  -2 -14 -10   10.87    0.81
   2  14  11    0.37    0.23
  -2 -14 -11   -0.36    0.18
   2  14  12    6.37    0.65
  -2 -14 -12    7.10    0.70
   2  14  13    3.32    0.47
  -2 -14 -13    3.33    0.51
  -2 -14 -14    1.17    0.34
   2  15   2    0.94    0.27
  -2 -15  -3    0.40    0.22
   2  15   3    0.69    0.24
  -2 -15  -4    0.10    0.21
   2  15   4    0.13    0.13
  -2 -15  -5    2.09    0.43
   2  15   5    1.32    0.31
  -2 -15  -6    0.52    0.24
   2  15   6    0.73    0.27
   2  15   7    1.65    0.36
  -2 -15  -7    2.01    0.40
  -2 -15  -8    0.54    0.27
   2  15   8    0.38    0.21
  -2 -15  -9    0.85    0.25
   2  15   9    0.90    0.29
  -2 -15  -9    0.61    0.23
   2  15  10    1.24    0.33
   2  15  11   -0.01    0.16
   2  15  12    1.84    0.39
   2  15  13    2.34    0.42
  -2 -15 -13    3.07    0.49
  -2 -16  -7    0.46    0.24
  -2 -16  -8    0.12    0.19
  -2 -16  -9    0.24    0.15
  -2 -16  -9   -0.25    0.18
  -3  14  11    2.03    0.39
  -3  14  10   -0.07    0.12
  -3  14   8    0.06    0.13
   3 -14  -8    0.11    0.13
  -3  14   7    0.42    0.20
   3 -14  -7    0.02    0.16
   3 -14  -7    0.24    0.21
   3 -14  -6    0.70    0.27
  -3  14   6    0.43    0.21
   3 -14  -5    0.26    0.16
  -3  14   5    0.02    0.12
  -3  13  12    0.19    0.18
   3 -13 -11    2.35    0.45
  -3  13  11    1.56    0.34
  -3  13  10    0.74    0.23
   3 -13 -10    0.44    0.25
   3 -13  -9   -0.16    0.20
  -3  13   9    0.12    0.15
   3 -13  -8    1.66    0.39
   3 -13  -8    1.43    0.32
  -3  13   8    1.53    0.35
  -3  13   8    1.24    0.28
   3 -13  -7    1.38    0.32
  -3  13   7    1.65    0.35
   3 -13  -7    1.31    0.32
  -3  13   6    0.86    0.26
   3 -13  -6    1.57    0.37
   3 -13  -5   -0.07    0.18
  -3  13   5   -0.04    0.15
  -3  13   4    0.37    0.20
   3 -13  -4    0.71    0.27
   3 -13  -3    0.06    0.16
  -3  13   3    0.18    0.14
   3 -13  -2    0.62    0.28
  -3  13   2    0.21    0.14
  -3  13   1    2.69    0.47
   3 -12 -13    4.24    0.58
  -3  12  13    4.41    0.59
   3 -12 -12    0.17    0.17
  -3  12  12   -0.09    0.17
   3 -12 -11   12.40    0.95
  -3  12  11    9.69    0.80
   3 -12 -10    5.61    0.63
  -3  12  10    5.73    0.60
  -3  12   9    2.03    0.36
   3 -12  -9    2.70    0.44
   3 -12  -8   17.27    1.07
  -3  12   8   14.46    0.95
  -3  12   8   14.91    0.90
   3 -12  -8   16.07    0.94
  -3  12   7    6.30    0.63
   3 -12  -7    6.59    0.66
  -3  12   7    5.59    0.54
   3 -12  -7    6.17    0.60
   3 -12  -6    4.00    0.50
  -3  12   6    3.43    0.48
  -3  12   6    4.02    0.45
   3 -12  -5    5.54    0.59
  -3  12   5    5.69    0.61
   3 -12  -4    0.18    0.18
  -3  12   4    0.54    0.23
   3 -12  -3    0.07    0.20
  -3  12   3    0.28    0.17
  -3  12   2    0.46    0.21
   3 -12  -2    0.86    0.32
   3 -12  -1    0.52    0.25
  -3  12   1    0.47    0.22
   3 -12   0    0.35    0.27
  -3  12   0    0.11    0.14
  -3  12  -1    0.14    0.18
   3 -12   1    0.08    0.22
   3 -11 -15    2.52    0.46
   3 -11 -14   -0.23    0.24
   3 -11 -14    0.33    0.17
  -3  11  14   -0.14    0.20
   3 -11 -13    0.22    0.16
   3 -11 -13   -0.08    0.13
  -3  11  13    0.45    0.22
   3 -11 -12    3.53    0.52
  -3  11  12    2.40    0.42
   3 -11 -11    1.39    0.34
  -3  11  11    1.11    0.30
   3 -11 -10    3.67    0.50
  -3  11  10    3.84    0.48
   3 -11  -9    2.71    0.44
  -3  11   9    1.89    0.33
  -3  11   8    0.15    0.11
   3 -11  -8   -0.15    0.18
  -3  11   8    0.22    0.16
   3 -11  -7    3.05    0.41
  -3  11   7    3.33    0.43
   3 -11  -7    2.56    0.40
  -3  11   7    2.99    0.39
   3 -11  -6    2.45    0.38
  -3  11   6    2.96    0.41
  -3  11   6    2.91    0.37
  -3  11   5    0.52    0.18
   3 -11  -5    0.58    0.23
  -3  11   5    0.36    0.14
   3 -11  -4    7.94    0.68
  -3  11   4    7.55    0.55
  -3  11   4    7.47    0.67
  -3  11   3    3.89    0.50
   3 -11  -3    3.25    0.45
   3 -11  -2    1.50    0.34
  -3  11   2    0.95    0.25
   3 -11  -1    2.59    0.43
  -3  11   1    2.62    0.43
  -3  11   0    0.59    0.24
   3 -11   0    0.57    0.26
   3 -11   1    0.05    0.18
  -3  11  -1    0.36    0.19
   3 -11   2    0.93    0.31
  -3  11  -2    0.50    0.23
   3 -11   3   -0.01    0.18
  -3  11  -3    0.04    0.13
   3 -10 -15    0.07    0.14
   3 -10 -14    0.32    0.24
   3 -10 -14   -0.15    0.16
  -3  10  14    0.11    0.18
  -3  10  13    0.92    0.29
   3 -10 -13    0.55    0.26
   3 -10 -13    0.49    0.23
  -3  10  12    1.37    0.34
   3 -10 -12    1.51    0.35
   3 -10 -11    0.30    0.20
  -3  10  11   -0.09    0.16
   3 -10 -10    4.54    0.53
  -3  10  10    3.56    0.47
   3 -10  -9    1.45    0.31
  -3  10   9    1.99    0.35
   3 -10  -8    0.36    0.18
   3 -10  -8    0.27    0.16
  -3  10   8    0.19    0.14
  -3  10   7   12.60    0.76
   3 -10  -7   14.03    0.87
  -3  10   7   12.73    0.78
   3 -10  -7   14.04    0.78
  -3  10   6    5.59    0.53
  -3  10   6    5.38    0.48
   3 -10  -6    5.34    0.51
  -3  10   5   11.01    0.74
  -3  10   5   10.78    0.66
   3 -10  -5   11.13    0.73
  -3  10   4   17.66    0.95
  -3  10   4   19.50    0.86
   3 -10  -4   19.46    0.98
   3 -10  -3    1.78    0.32
  -3  10   3    2.19    0.30
  -3  10   3    2.10    0.35
   3 -10  -2   11.56    0.79
  -3  10   2   11.84    0.82
  -3  10   1   17.10    1.00
   3 -10  -1   17.15    0.99
   3 -10   0   -0.11    0.16
  -3  10   0   -0.09    0.16
  -3  10  -1    6.36    0.65
   3 -10   1    5.98    0.64
   3 -10   2    2.30    0.42
  -3  10  -2    1.86    0.39
   3 -10   3    0.81    0.31
  -3  10  -3    0.16    0.14
   3 -10   4    1.57    0.38
  -3  10  -4    1.44    0.37
   3 -10   5    0.33    0.22
   3  -9 -15    0.24    0.18
   3  -9 -15    0.33    0.18
  -3   9  15    0.59    0.27
   3  -9 -14   11.60    0.92
   3  -9 -14    9.86    0.89
  -3   9  14   10.99    0.95
   3  -9 -13    7.97    0.74
   3  -9 -13    7.19    0.73
  -3   9  13    7.35    0.75
   3  -9 -12    6.06    0.62
  -3   9  12    5.63    0.62
   3  -9 -11   17.88    1.02
  -3   9  11   16.71    1.01
   3  -9 -10   -0.04    0.16
  -3   9  10    0.02    0.13
   3  -9  -9    8.70    0.68
  -3   9   9    7.39    0.61
  -3   9   8    7.71    0.61
   3  -9  -8    8.48    0.66
   3  -9  -8    9.25    0.58
  -3   9   7    3.55    0.40
   3  -9  -7    4.48    0.42
   3  -9  -7    3.56    0.44
  -3   9   7    3.58    0.40
  -3   9   6   17.83    0.86
   3  -9  -6   18.37    0.92
  -3   9   6   17.40    0.84
   3  -9  -6   18.81    0.86
  -3   9   5    0.87    0.21
  -3   9   5    0.91    0.22
   3  -9  -5    1.59    0.28
   3  -9  -4    9.27    0.65
  -3   9   4    9.78    0.59
  -3   9   4    8.69    0.62
  -3   9   3   11.90    0.64
  -3   9   3   11.39    0.73
   3  -9  -3   11.84    0.74
   3  -9  -2    0.01    0.14
  -3   9   2    0.04    0.09
  -3   9   2    0.14    0.15
  -3   9   1    8.73    0.69
  -3   9   1    9.79    0.56
   3  -9  -1    8.73    0.68
  -3   9   0    8.98    0.71
   3  -9   0    7.05    0.62
   3  -9   1   -0.01    0.16
  -3   9  -1   -0.01    0.14
   3  -9   2   10.12    0.78
  -3   9  -2   10.02    0.80
   3  -9   3    5.17    0.59
  -3   9  -3    5.14    0.60
  -3   9  -4    0.03    0.15
   3  -9   4    0.35    0.22
   3  -9   5    0.62    0.27
  -3   9  -5    0.95    0.30
   3  -9   6    2.29    0.45
  -3   9  -6    2.43    0.45
   3  -9   7    0.02    0.18
   3  -8 -15   -0.13    0.19
  -3   8  15   -0.24    0.24
   3  -8 -15   -0.83    0.30
   3  -8 -14    0.62    0.26
   3  -8 -14    0.91    0.30
  -3   8  14    0.63    0.26
   3  -8 -13    1.70    0.37
  -3   8  13    2.09    0.42
   3  -8 -13    2.25    0.39
   3  -8 -12    2.08    0.36
  -3   8  12    2.36    0.42
   3  -8 -11    5.74    0.57
  -3   8  11    6.57    0.64
   3  -8 -10    0.88    0.25
  -3   8  10    0.82    0.24
   3  -8  -9    3.46    0.42
  -3   8   9    3.25    0.41
   3  -8  -8    1.60    0.31
   3  -8  -8    1.68    0.24
  -3   8   8    1.46    0.27
  -3   8   7   -0.04    0.12
   3  -8  -7   -0.01    0.14
   3  -8  -7    0.14    0.12
  -3   8   7    0.09    0.12
   3  -8  -6    2.36    0.30
   3  -8  -6    2.58    0.34
  -3   8   6    1.96    0.28
  -3   8   6    2.17    0.30
  -3   8   5    6.24    0.48
  -3   8   5    6.48    0.48
   3  -8  -5    6.49    0.49
  -3   8   4    3.16    0.34
   3  -8  -4    3.41    0.38
  -3   8   4    3.08    0.35
  -3   8   3    2.54    0.33
  -3   8   3    2.61    0.30
   3  -8  -3    1.99    0.30
   3  -8  -2    1.30    0.26
  -3   8   2    1.00    0.18
  -3   8   2    1.45    0.27
   3  -8  -1    5.67    0.52
  -3   8   1    4.84    0.49
  -3   8   1    5.73    0.42
  -3   8   0    5.78    0.54
  -3   8   0    5.75    0.41
   3  -8   0    6.38    0.56
   3  -8   1    3.28    0.42
  -3   8  -1    3.28    0.43
  -3   8  -2    6.87    0.64
   3  -8   2    7.34    0.63
   3  -8   3    4.11    0.49
  -3   8  -3    4.24    0.52
   3  -8   4    0.04    0.15
  -3   8  -4   -0.05    0.17
  -3   8  -5    5.31    0.64
   3  -8   5    4.93    0.57
  -3   8  -6    8.10    0.78
   3  -8   6    8.41    0.77
   3  -8   7    1.48    0.35
  -3   8  -7    2.18    0.46
   3  -7 -15   -0.01    0.17
  -3   7  15    0.16    0.18
   3  -7 -15   -0.11    0.22
   3  -7 -14    0.23    0.17
   3  -7 -14   -0.04    0.20
  -3   7  14   -0.01    0.23
   3  -7 -13    8.24    0.73
   3  -7 -13    6.47    0.71
  -3   7  13    6.58    0.70
   3  -7 -12   21.53    1.11
  -3   7  12   22.01    1.21
   3  -7 -12   19.49    1.17
   3  -7 -11    7.47    0.64
  -3   7  11    7.73    0.69
   3  -7 -10   19.49    0.97
  -3   7  10   21.35    1.07
   3  -7  -9    7.43    0.58
  -3   7   9    8.15    0.64
   3  -7  -8   10.21    0.51
   3  -7  -8   10.74    0.68
  -3   7   8    9.37    0.65
   3  -7  -7   34.70    1.17
  -3   7   7   33.85    1.16
   3  -7  -7   33.69    0.96
   3  -7  -6    0.58    0.16
  -3   7   6    0.19    0.10
   3  -7  -6    0.14    0.16
  -3   7   6    0.14    0.13
  -3   7   5   17.77    0.75
   3  -7  -5   16.33    0.71
  -3   7   5   16.91    0.76
  -3   7   4    8.65    0.53
   3  -7  -4    8.91    0.55
  -3   7   4    8.53    0.53
  -3   7   3   20.74    0.79
   3  -7  -3   20.85    0.85
  -3   7   3   20.86    0.84
  -3   7   2   41.53    1.10
  -3   7   2   42.07    1.24
   3  -7  -2   41.71    1.23
   3  -7  -1    2.19    0.32
  -3   7   1    1.64    0.23
  -3   7   1    2.10    0.30
  -3   7   0   27.25    1.10
  -3   7   0   25.89    0.85
   3  -7   0   26.21    1.02
  -3   7  -1   18.29    0.93
  -3   7  -1   19.10    0.73
   3  -7   1   18.32    0.89
  -3   7  -2    6.87    0.44
  -3   7  -2    6.41    0.58
   3  -7   2    6.05    0.54
  -3   7  -3   27.06    1.20
   3  -7   3   25.83    1.11
   3  -7   4    4.23    0.48
  -3   7  -4    4.44    0.52
  -3   7  -5    3.85    0.51
   3  -7   5    4.22    0.49
  -3   7  -6   14.74    0.88
  -3   7  -6   16.80    1.07
   3  -7   6   15.02    0.94
  -3   7  -7    0.27    0.20
  -3   7  -7    0.18    0.23
   3  -7   7    0.06    0.17
   3  -7   8    0.46    0.21
  -3   7  -8    0.99    0.28
  -3   7  -8    0.56    0.22
  -3   7  -9    5.63    0.63
   3  -6 -16   -0.12    0.17
  -3   6  16    0.29    0.24
   3  -6 -15    8.68    0.83
   3  -6 -15    7.53    0.83
  -3   6  15    8.60    0.86
  -3   6  14    2.76    0.37
   3  -6 -14    3.03    0.49
  -3   6  14    3.19    0.51
   3  -6 -14    2.50    0.46
   3  -6 -13    5.05    0.57
  -3   6  13    4.76    0.44
  -3   6  13    3.76    0.54
   3  -6 -13    3.84    0.54
   3  -6 -12   46.20    1.79
  -3   6  12   46.03    1.26
  -3   6  12   50.76    1.81
   3  -6 -12   49.06    1.65
  -3   6  11    0.06    0.09
   3  -6 -11   -0.03    0.16
  -3   6  11    0.24    0.17
   3  -6 -10   27.61    1.13
  -3   6  10   26.62    0.82
  -3   6  10   27.97    1.23
   3  -6  -9   38.41    1.26
  -3   6   9   36.23    0.87
  -3   6   9   37.81    1.35
  -3   6   8    0.58    0.11
  -3   6   8    0.17    0.16
   3  -6  -8    0.51    0.18
   3  -6  -8    0.43    0.11
   3  -6  -7   77.96    1.66
  -3   6   7   71.48    0.97
   3  -6  -7   73.80    1.30
  -3   6   7   74.05    1.69
   3  -6  -6   45.74    1.24
  -3   6   6   43.65    0.63
  -3   6   6   44.58    1.10
  -3   6   6   42.96    1.24
   3  -6  -6   43.26    1.03
   3  -6  -5    0.43    0.13
  -3   6   5    0.76    0.19
   3  -6  -5    0.91    0.20
  -3   6   5    0.96    0.17
  -3   6   4   11.85    0.61
   3  -6  -4   13.48    0.62
  -3   6   4   12.08    0.57
  -3   6   3   15.58    0.67
   3  -6  -3   16.66    0.70
  -3   6   3   16.28    0.68
  -3   6   2    1.84    0.25
  -3   6   2    1.68    0.22
   3  -6  -2    1.57    0.25
  -3   6   1    3.13    0.30
  -3   6   1    3.36    0.35
   3  -6  -1    3.35    0.36
  -3   6   0    5.36    0.46
   3  -6   0    5.45    0.24
  -3   6   0    5.55    0.39
   3  -6   0    5.26    0.46
   3  -6   1    3.07    0.21
  -3   6  -1    3.35    0.39
  -3   6  -1    3.17    0.29
   3  -6   1    3.47    0.38
   3  -6   2    0.39    0.16
  -3   6  -2    0.88    0.18
   3  -6   2    0.86    0.14
  -3   6  -2    0.79    0.21
  -3   6  -3    5.75    0.40
  -3   6  -3    5.23    0.42
   3  -6   3    5.68    0.37
  -3   6  -3    5.77    0.54
   3  -6   3    5.35    0.49
   3  -6   4    1.32    0.20
  -3   6  -4    1.29    0.28
  -3   6  -4    1.29    0.22
   3  -6   4    1.27    0.28
   3  -6   5    0.84    0.18
  -3   6  -5    0.47    0.19
  -3   6  -5    0.80    0.22
   3  -6   5    1.05    0.26
  -3   6  -6    2.88    0.39
   3  -6   6    2.58    0.32
  -3   6  -6    2.41    0.39
   3  -6   6    2.51    0.37
  -3   6  -7    5.69    0.56
  -3   6  -7    5.16    0.59
   3  -6   7    4.92    0.48
   3  -6   7    4.53    0.50
   3  -6   8   -0.14    0.18
  -3   6  -8   -0.04    0.16
  -3   6  -8   -0.11    0.16
  -3   6  -9    1.80    0.37
  -3   6  -9    1.45    0.35
  -3   6 -10    0.99    0.29
  -3   5  16    1.76    0.34
  -3   5  16    2.37    0.48
   3  -5 -16    1.81    0.42
  -3   5  15    3.20    0.43
   3  -5 -15    3.96    0.59
   3  -5 -15    3.57    0.59
  -3   5  15    3.80    0.58
  -3   5  14   -0.18    0.24
  -3   5  14   -0.02    0.14
   3  -5 -14   -0.08    0.17
   3  -5 -14    0.20    0.23
  -3   5  13    0.06    0.09
   3  -5 -13    0.05    0.20
   3  -5 -13    0.28    0.24
  -3   5  13   -0.01    0.18
   3  -5 -12    2.84    0.43
   3  -5 -12    3.46    0.52
  -3   5  12    3.30    0.48
  -3   5  12    3.45    0.38
  -3   5  11    0.26    0.11
   3  -5 -11    0.04    0.19
   3  -5 -11    0.48    0.21
  -3   5  11    0.20    0.16
   3  -5 -10    6.93    0.56
  -3   5  10    6.50    0.43
  -3   5  10    6.11    0.58
   3  -5  -9    2.89    0.35
  -3   5   9    3.37    0.28
  -3   5   9    3.15    0.40
   3  -5  -8   10.90    0.63
  -3   5   8   11.90    0.48
  -3   5   8   11.15    0.70
   3  -5  -7   24.48    0.90
  -3   5   7   23.74    0.59
  -3   5   7   24.52    0.97
   3  -5  -7   24.16    0.67
   3  -5  -6   13.34    0.65
  -3   5   6   13.93    0.39
  -3   5   6   14.00    0.70
   3  -5  -6   14.56    0.55
  -3   5   5    0.27    0.14
   3  -5  -5    0.14    0.11
  -3   5   5    0.04    0.07
   3  -5  -5   -0.02    0.10
  -3   5   5    0.09    0.03
  -3   5   4   28.05    0.79
   3  -5  -4   28.92    0.88
   3  -5  -4   29.42    0.83
  -3   5   4   28.77    0.91
  -3   5   3   39.09    1.03
  -3   5   3   39.81    0.95
   3  -5  -3   41.40    1.02
   3  -5  -2    0.28    0.16
  -3   5   2   -0.03    0.09
  -3   5   2    0.24    0.10
  -3   5   1   24.63    0.79
  -3   5   1   23.11    0.82
   3  -5  -1   23.78    0.83
  -3   5   0   14.62    0.61
  -3   5   0   14.67    0.69
   3  -5   0   14.63    0.35
   3  -5   0   15.35    0.70
   3  -5   1    0.86    0.22
  -3   5  -1    0.88    0.16
   3  -5   1    0.69    0.10
  -3   5  -1    0.40    0.13
  -3   5  -1    0.66    0.18
  -3   5  -2   34.24    1.15
  -3   5  -2   32.60    0.96
   3  -5   2   31.43    0.72
   3  -5   2   32.22    1.06
   3  -5   3    2.84    0.34
  -3   5  -3    2.12    0.32
  -3   5  -3    3.10    0.32
   3  -5   3    2.63    0.24
  -3   5  -4    3.88    0.37
  -3   5  -4    3.52    0.37
  -3   5  -4    3.44    0.41
   3  -5   4    3.89    0.40
   3  -5   4    3.95    0.33
   3  -5   5   12.63    0.73
  -3   5  -5   12.57    0.72
  -3   5  -5   12.15    0.79
  -3   5  -5   12.50    0.65
   3  -5   5   12.62    0.62
   3  -5   6    0.10    0.11
  -3   5  -6   -0.09    0.15
  -3   5  -6    0.07    0.15
   3  -5   6    0.08    0.13
  -3   5  -6    0.20    0.15
   3  -5   7   27.83    1.06
  -3   5  -7   29.23    1.21
   3  -5   7   28.59    1.15
   3  -5   8    1.22    0.28
  -3   5  -8    0.88    0.23
   3  -5   8    1.35    0.27
   3  -5   9    2.72    0.38
  -3   5  -9    2.52    0.43
  -3   5 -10    9.14    0.80
   3  -5  10    8.62    0.72
   3  -5  11   -0.10    0.13
  -3   5 -11    0.36    0.20
   3  -4 -16    9.16    0.88
  -3   4  16    9.83    0.81
  -3   4  15    0.05    0.16
  -3   4  15   -0.19    0.17
   3  -4 -15    0.01    0.20
   3  -4 -15   -0.13    0.21
   3  -4 -15   -0.19    0.21
  -3   4  14   -0.17    0.17
   3  -4 -14   -0.22    0.24
  -3   4  14    0.06    0.19
   3  -4 -14    0.09    0.16
   3  -4 -13    9.25    0.77
   3  -4 -13   10.02    0.88
  -3   4  13    9.46    0.81
  -3   4  13    7.84    0.62
  -3   4  12   -0.08    0.10
   3  -4 -12   -0.03    0.21
   3  -4 -12    0.17    0.17
  -3   4  12   -0.10    0.20
   3  -4 -11   27.34    1.17
  -3   4  11   26.02    0.97
   3  -4 -11   25.81    1.28
  -3   4  11   25.44    1.20
   3  -4 -10    1.40    0.30
  -3   4  10    1.42    0.23
  -3   4  10    1.21    0.28
   3  -4  -9    4.89    0.45
  -3   4   9    4.95    0.48
  -3   4   9    5.28    0.37
   3  -4  -8   48.95    0.92
   3  -4  -8   49.06    1.31
  -3   4   8   49.00    1.02
  -3   4   8   50.60    1.44
  -3   4   7    2.35    0.32
  -3   4   7    2.10    0.20
   3  -4  -7    2.35    0.28
   3  -4  -7    2.26    0.19
   3  -4  -6   99.77    1.67
  -3   4   6   98.16    1.14
  -3   4   6   97.50    1.81
   3  -4  -6   95.81    1.25
   3  -4  -5   68.12    1.32
  -3   4   5   65.08    0.76
  -3   4   5   66.87    1.41
   3  -4  -5   66.44    1.09
   3  -4  -4    3.82    0.31
  -3   4   4    3.79    0.27
  -3   4   4    3.48    0.13
  -3   4   4    4.05    0.34
   3  -4  -4    3.75    0.28
   3  -4  -3  280.53    2.42
  -3   4   3  279.48    2.68
  -3   4   3  282.09    2.26
   3  -4  -2   62.11    1.18
  -3   4   2   61.27    1.11
  -3   4   2   62.32    1.24
  -3   4   1   36.37    0.93
   3  -4  -1   37.50    0.95
  -3   4   1   36.81    0.92
   3  -4   0   90.91    1.52
   3  -4   0   86.52    0.73
  -3   4   0   87.71    1.45
  -3   4   0   87.63    1.55
  -3   4  -1   18.27    0.74
  -3   4  -1   17.80    0.68
   3  -4   1   18.09    0.43
   3  -4   1   18.68    0.72
  -3   4  -2   67.18    1.48
   3  -4   2   67.08    1.40
   3  -4   2   67.58    0.99
  -3   4  -2   65.98    1.33
  -3   4  -3   19.85    0.78
  -3   4  -3   19.70    0.85
  -3   4  -3   19.37    0.74
   3  -4   3   19.65    0.61
   3  -4   3   19.72    0.79
   3  -4   4    0.15    0.09
  -3   4  -4    0.36    0.16
  -3   4  -4    0.16    0.16
   3  -4   4    0.18    0.16
  -3   4  -5   15.53    0.77
  -3   4  -5   16.07    0.73
   3  -4   5   15.52    0.66
   3  -4   5   15.15    0.74
   3  -4   6    2.29    0.31
  -3   4  -6    2.20    0.33
   3  -4   6    2.52    0.30
  -3   4  -6    2.96    0.35
  -3   4  -7   17.65    0.91
  -3   4  -7   19.30    0.86
   3  -4   7   19.33    0.89
   3  -4   7   20.18    0.87
   3  -4   8    0.01    0.10
  -3   4  -8    0.04    0.15
   3  -4   8    0.12    0.12
   3  -4   9    2.70    0.37
  -3   4  -9    2.63    0.43
  -3   4 -10    3.87    0.51
   3  -4  10    4.46    0.51
   3  -4  11    2.41    0.39
  -3   4 -11    2.63    0.46
   3  -4  12    1.34    0.32
  -3   3  16    5.71    0.64
  -3   3  15    1.27    0.30
   3  -3 -15    2.33    0.49
   3  -3 -15    2.62    0.52
   3  -3 -15    1.51    0.36
   3  -3 -14   -0.10    0.15
  -3   3  14    0.15    0.15
   3  -3 -14   -0.24    0.25
   3  -3 -14   -0.29    0.25
  -3   3  14   -0.12    0.13
   3  -3 -13   22.10    1.20
   3  -3 -13   19.45    1.21
  -3   3  13   20.12    1.13
  -3   3  13   18.38    0.96
   3  -3 -12   16.20    0.98
   3  -3 -12   14.54    1.01
  -3   3  12   15.54    0.97
  -3   3  12   15.81    0.84
   3  -3 -11    9.67    0.71
   3  -3 -11   11.08    0.84
  -3   3  11   11.52    0.79
  -3   3  11   10.99    0.65
  -3   3  10   11.81    0.77
   3  -3 -10   11.97    0.74
   3  -3 -10   11.41    0.82
  -3   3  10   12.25    0.64
   3  -3  -9    2.58    0.35
  -3   3   9    2.39    0.28
  -3   3   9    2.33    0.34
   3  -3  -8   29.52    1.02
  -3   3   8   29.73    1.09
  -3   3   8   30.68    0.85
   3  -3  -8   29.61    0.72
   3  -3  -7   16.45    0.53
  -3   3   7   17.04    0.58
  -3   3   7   20.33    0.85
   3  -3  -7   18.01    0.75
   3  -3  -7   16.26    0.42
   3  -3  -6    4.19    0.24
   3  -3  -6    4.72    0.37
  -3   3   6    4.49    0.39
  -3   3   6    4.61    0.27
   3  -3  -5   13.02    0.56
  -3   3   5   12.68    0.61
  -3   3   5   12.38    0.38
   3  -3  -5   12.70    0.43
   3  -3  -4    9.38    0.45
  -3   3   4    9.32    0.27
  -3   3   4    9.45    0.50
   3  -3  -4    9.33    0.39
  -3   3   3   68.33    0.98
  -3   3   3   69.08    1.29
   3  -3  -3   68.19    1.14
   3  -3  -3   68.03    1.10
  -3   3   2   50.16    1.08
  -3   3   2   50.95    0.87
   3  -3  -2   51.39    0.99
  -3   3   1    0.93    0.17
   3  -3  -1    0.94    0.16
  -3   3   1    1.21    0.15
  -3   3   0   12.17    0.54
   3  -3   0   12.61    0.24
  -3   3   0   12.47    0.52
   3  -3   0   12.59    0.53
  -3   3  -1   76.02    1.37
  -3   3  -1   76.78    1.36
   3  -3   1   77.67    0.83
   3  -3   1   78.60    1.35
   3  -3   2    1.08    0.20
   3  -3   2    0.87    0.11
  -3   3  -2    0.85    0.18
  -3   3  -2    1.11    0.20
  -3   3  -3   16.97    0.68
  -3   3  -3   18.78    0.72
   3  -3   3   18.15    0.55
   3  -3   3   17.56    0.70
   3  -3   4   21.40    0.78
  -3   3  -4   21.37    0.80
  -3   3  -4   21.52    0.81
   3  -3   4   22.05    0.68
  -3   3  -5    4.81    0.41
  -3   3  -5    4.68    0.42
   3  -3   5    4.61    0.35
   3  -3   5    4.97    0.40
   3  -3   6    2.24    0.27
  -3   3  -6    2.45    0.32
   3  -3   6    2.68    0.31
  -3   3  -6    2.44    0.33
  -3   3  -7    0.00    0.12
   3  -3   7   -0.12    0.13
   3  -3   7   -0.17    0.14
  -3   3  -7    0.09    0.17
   3  -3   8    0.06    0.11
   3  -3   8    0.14    0.13
  -3   3  -8    0.21    0.15
  -3   3  -8    0.00    0.15
   3  -3   9    2.75    0.37
  -3   3  -9    2.07    0.35
  -3   3  -9    2.60    0.36
   3  -3  10    0.03    0.13
  -3   3 -10    0.08    0.18
   3  -3  11    4.16    0.51
  -3   3 -11    4.29    0.56
   3  -3  12    0.16    0.18
  -3   3 -12   -0.25    0.18
   3  -2 -15    4.58    0.65
   3  -2 -15    4.70    0.65
  -3   2  15    5.12    0.60
  -3   2  14    0.12    0.12
   3  -2 -14    0.12    0.21
   3  -2 -13    1.39    0.36
  -3   2  13    1.16    0.28
   3  -2 -13    1.36    0.35
   3  -2 -13    1.24    0.29
  -3   2  13    1.05    0.29
   3  -2 -12    6.16    0.62
   3  -2 -12    6.10    0.66
  -3   2  12    6.67    0.62
  -3   2  12    6.47    0.56
  -3   2  11    1.57    0.27
   3  -2 -11    1.62    0.30
  -3   2  11    1.20    0.26
   3  -2 -11    1.63    0.34
  -3   2  10    1.03    0.21
   3  -2 -10    1.51    0.33
   3  -2 -10    0.74    0.24
  -3   2  10    1.23    0.26
   3  -2  -9    4.58    0.44
  -3   2   9    4.01    0.41
  -3   2   9    4.68    0.39
  -3   2   9    4.16    0.36
   3  -2  -8    2.00    0.27
   3  -2  -8    2.07    0.21
  -3   2   8    1.78    0.23
  -3   2   8    2.11    0.29
  -3   2   8    2.28    0.26
  -3   2   7   30.87    1.03
  -3   2   7   31.21    0.84
   3  -2  -7   29.82    0.73
   3  -2  -7   31.29    0.99
  -3   2   6    1.77    0.25
   3  -2  -6    1.50    0.23
   3  -2  -6    1.46    0.16
  -3   2   6    1.52    0.18
   3  -2  -5    6.00    0.37
  -3   2   5    6.36    0.42
   3  -2  -5    5.72    0.26
  -3   2   5    5.74    0.30
   3  -2  -4   29.76    0.63
   3  -2  -4   29.66    0.77
  -3   2   4   30.57    0.88
  -3   2   4   29.33    0.58
   3  -2  -3    9.36    0.38
  -3   2   3    9.15    0.32
  -3   2   3    9.00    0.27
   3  -2  -3    9.74    0.41
  -3   2   3   10.04    0.48
   3  -2  -2    9.68    0.38
  -3   2   2    9.63    0.22
  -3   2   2   10.08    0.47
  -3   2   2   10.33    0.33
   3  -2  -2   10.18    0.41
  -3   2   1    2.69    0.19
   3  -2  -1    3.04    0.24
  -3   2   1    2.38    0.09
  -3   2   1    2.78    0.25
   3  -2   0   47.93    0.46
   3  -2   0   49.23    0.95
  -3   2   0   47.98    1.02
  -3   2   0   48.97    0.90
  -3   2  -1  192.97    1.93
  -3   2  -1  196.93    2.12
   3  -2   1  200.98    1.24
   3  -2   1  202.75    2.00
   3  -2   2   15.28    0.58
  -3   2  -2   14.97    0.57
  -3   2  -2   15.37    0.61
   3  -2   2   14.95    0.41
  -3   2  -3  133.50    1.79
   3  -2   3  132.36    1.76
  -3   2  -3  135.05    1.87
   3  -2   3  134.70    1.42
  -3   2  -4   57.22    1.28
   3  -2   4   54.86    1.02
  -3   2  -4   56.15    1.24
   3  -2   4   56.32    1.18
  -3   2  -5    6.16    0.45
   3  -2   5    7.03    0.45
  -3   2  -5    6.09    0.45
   3  -2   5    6.13    0.38
   3  -2   6  135.86    1.98
  -3   2  -6  142.91    2.23
   3  -2   6  140.40    1.97
  -3   2  -6  138.24    2.20
  -3   2  -7   79.83    1.78
  -3   2  -7   83.45    1.78
   3  -2   7   85.25    1.66
   3  -2   7   83.26    1.60
   3  -2   8    8.36    0.52
   3  -2   8    7.58    0.54
  -3   2  -8    7.76    0.58
  -3   2  -8    7.71    0.60
  -3   2  -9    8.77    0.68
  -3   2  -9    9.18    0.66
   3  -2   9    8.43    0.60
   3  -2   9    9.06    0.56
  -3   2 -10    5.46    0.54
   3  -2  10    4.96    0.50
  -3   2 -10    5.08    0.56
   3  -2  11    8.79    0.70
  -3   2 -11    8.00    0.74
   3  -2  12    2.27    0.39
  -3   2 -12    1.88    0.39
   3  -2  13    0.62    0.24
  -3   2 -13    0.07    0.19
   3  -1 -15   10.42    0.96
  -3   1  15    8.31    0.78
   3  -1 -14    5.75    0.69
   3  -1 -14    4.41    0.61
  -3   1  14    4.30    0.55
   3  -1 -13    1.46    0.37
  -3   1  13    1.09    0.28
   3  -1 -13    1.56    0.38
  -3   1  12   21.44    1.03
  -3   1  12   23.66    1.10
   3  -1 -12   21.72    1.05
   3  -1 -12   20.63    1.18
   3  -1 -12   21.97    1.18
   3  -1 -11   17.87    1.00
   3  -1 -11   17.63    1.04
  -3   1  11   17.80    0.92
  -3   1  11   15.34    0.83
   3  -1 -10    0.69    0.24
  -3   1  10    0.80    0.20
   3  -1 -10    0.76    0.24
  -3   1  10    0.90    0.22
  -3   1  10    0.54    0.16
   3  -1  -9   53.44    1.52
   3  -1  -9   54.42    1.65
  -3   1   9   54.40    1.47
  -3   1   9   55.16    1.35
  -3   1   8   67.74    1.39
  -3   1   8   68.00    1.56
   3  -1  -8   65.55    1.27
   3  -1  -8   67.47    1.58
   3  -1  -7   18.80    0.79
  -3   1   7   18.81    0.69
  -3   1   7   18.08    0.77
   3  -1  -7   18.21    0.63
  -3   1   6   68.79    1.20
   3  -1  -6   72.71    1.40
   3  -1  -6   66.73    0.64
  -3   1   6   69.12    1.41
   3  -1  -6   68.90    1.13
   3  -1  -5   17.22    0.64
  -3   1   5   18.56    0.57
   3  -1  -5   18.21    0.55
  -3   1   5   18.00    0.69
  -3   1   4   82.23    1.07
   3  -1  -4   83.75    1.27
  -3   1   4   80.76    1.37
   3  -1  -4   80.81    0.98
   3  -1  -3  103.78    1.29
  -3   1   3  102.67    1.47
   3  -1  -3  101.67    1.15
  -3   1   3  102.28    1.05
  -3   1   2   28.16    0.76
   3  -1  -2   29.34    0.63
  -3   1   2   29.60    0.45
  -3   1   2   28.36    0.50
   3  -1  -2   28.97    0.64
   3  -1  -1  138.05    1.25
  -3   1   1  138.38    1.63
   3  -1  -1  133.46    1.44
  -3   1   1  136.08    1.00
  -3   1   1  136.13    1.06
   3  -1   0   21.94    0.60
   3  -1   0   21.43    0.35
  -3   1   0   21.01    0.49
  -3   1   0   21.07    0.64
  -3   1   0   21.94    0.38
   3  -1   1  119.11    0.96
  -3   1  -1  117.61    1.56
   3  -1   1  120.21    1.44
  -3   1  -2   83.60    1.25
  -3   1  -2   84.20    1.37
   3  -1   2   82.04    0.93
   3  -1   2   82.40    1.25
   3  -1   3   41.63    0.92
  -3   1  -3   41.75    0.95
   3  -1   3   41.50    0.76
  -3   1  -3   42.11    1.03
   3  -1   4   37.07    0.90
  -3   1  -4   36.11    0.93
  -3   1  -4   35.97    1.00
   3  -1   4   36.83    0.80
  -3   1  -5   50.54    1.19
   3  -1   5   50.63    1.09
  -3   1  -5   52.79    1.27
   3  -1   5   52.26    1.06
  -3   1  -6   16.73    0.75
   3  -1   6   17.65    0.67
  -3   1  -6   18.23    0.80
   3  -1   6   17.00    0.66
  -3   1  -7   53.20    1.40
  -3   1  -7   54.60    1.44
   3  -1   7   52.85    1.27
   3  -1   7   54.24    1.21
   3  -1   8    0.02    0.10
  -3   1  -8    0.30    0.20
  -3   1  -8   -0.07    0.18
   3  -1   8   -0.06    0.10
   3  -1   9    0.30    0.14
  -3   1  -9    0.24    0.18
   3  -1   9    0.18    0.11
  -3   1  -9    0.05    0.15
  -3   1 -10   23.02    1.11
  -3   1 -10   22.68    1.08
   3  -1  10   22.68    1.02
   3  -1  11    0.29    0.19
  -3   1 -11    0.39    0.19
  -3   1 -11    0.47    0.22
  -3   1 -12    1.03    0.28
  -3   1 -12    0.96    0.26
  -3   1 -13    1.06    0.33
   3  -1  13    1.27    0.31
   3   0 -14    1.00    0.37
  -3   0  14    0.71    0.24
   3   0 -14    0.71    0.28
   3   0 -13    6.76    0.72
   3   0 -13    6.87    0.72
  -3   0  13    5.92    0.61
   3   0 -12    7.19    0.70
   3   0 -12    5.32    0.60
  -3   0  12    6.01    0.59
   3   0 -11   17.50    1.01
   3   0 -11   16.23    0.99
  -3   0  11   16.88    0.86
   3   0 -11   16.52    0.84
  -3   0  11   16.49    0.88
  -3   0  11   15.26    0.85
   3   0 -10    0.05    0.17
   3   0 -10    0.04    0.15
  -3   0  10    0.26    0.11
  -3   0  10    0.00    0.18
   3   0  -9   20.62    0.97
   3   0  -9   22.29    1.05
  -3   0   9   21.93    0.90
   3   0  -9   18.88    0.73
  -3   0   9   20.34    0.86
   3   0  -8   37.05    1.23
  -3   0   8   35.72    1.07
   3   0  -8   37.63    1.30
  -3   0   8   37.75    1.12
   3   0  -8   37.28    1.01
   3   0  -7    8.65    0.56
  -3   0   7    8.80    0.52
   3   0  -7    8.30    0.47
  -3   0   7    9.04    0.50
   3   0  -6   14.87    0.67
  -3   0   6   15.50    0.61
   3   0  -6   13.74    0.25
   3   0  -6   15.00    0.59
  -3   0   6   15.73    0.65
   3   0  -5   17.40    0.66
  -3   0   5   17.49    0.59
  -3   0   5   16.71    0.64
   3   0  -5   16.37    0.34
   3   0  -5   18.00    0.59
   3   0  -4    7.87    0.37
   3   0  -4    7.77    0.26
  -3   0   4    7.43    0.36
  -3   0   4    8.05    0.42
   3   0  -4    7.34    0.39
   3   0  -3   95.13    1.24
  -3   0   3   92.93    1.35
   3   0  -3   91.04    1.20
  -3   0   3   92.29    1.15
   3   0  -2    7.71    0.32
  -3   0   2    7.81    0.38
  -3   0   2    7.59    0.31
   3   0  -2    7.86    0.32
  -3   0   1    1.22    0.13
   3   0  -1    1.11    0.11
  -3   0   1    0.96    0.13
  -3   0   1    1.13    0.06
   3   0  -1    1.19    0.14
  -3   0   0    0.98    0.10
   3   0   0    1.08    0.10
  -3   0   0    1.08    0.09
  -3   0   0    1.05    0.17
   3   0   0    1.03    0.14
   3   0   1    0.71    0.13
   3   0   1    0.54    0.07
  -3   0  -1    0.86    0.17
   3   0   2   28.76    0.55
   3   0   2   28.64    0.69
  -3   0  -2   28.57    0.78
  -3   0  -2   28.80    0.69
   3   0   3    0.22    0.07
   3   0   3    0.43    0.12
  -3   0  -3    0.18    0.10
  -3   0  -3    0.03    0.14
   3   0   4    0.97    0.13
  -3   0  -4    0.76    0.16
  -3   0  -4    0.58    0.16
   3   0   4    0.89    0.15
  -3   0  -5   35.61    0.95
  -3   0  -5   38.04    1.07
   3   0   5   37.19    0.86
   3   0   5   36.80    0.87
   3   0   6    0.14    0.10
   3   0   6    0.30    0.13
  -3   0  -6    0.57    0.19
  -3   0  -6    0.37    0.17
  -3   0  -7   18.28    0.79
   3   0   7   20.43    0.70
  -3   0  -7   20.74    0.89
   3   0   7   20.08    0.75
  -3   0  -8   14.61    0.70
  -3   0  -8   13.33    0.73
  -3   0  -8   15.31    0.82
   3   0   8   14.12    0.69
   3   0   8   14.79    0.61
   3   0   9    1.90    0.29
  -3   0  -9    1.73    0.26
   3   0   9    1.83    0.23
  -3   0  -9    1.85    0.30
   3   0   9    1.98    0.24
  -3   0  -9    1.91    0.32
  -3   0 -10   39.00    1.32
  -3   0 -10   38.67    1.39
  -3   0 -10   40.29    1.45
   3   0  10   40.99    1.34
  -3   0 -11   13.79    0.84
  -3   0 -11   15.50    0.94
  -3   0 -11   15.85    0.95
   3   0  11   15.80    0.88
   3   0  12    3.68    0.46
  -3   0 -12    3.36    0.48
  -3   0 -12    3.85    0.50
  -3   0 -13    8.63    0.80
  -3   0 -13    8.90    0.78
   3   0  13    8.44    0.72
   3   0  14    2.12    0.41
  -3   0 -14    2.36    0.46
   3   1 -14    0.71    0.31
  -3  -1  14    0.67    0.28
   3   1 -13    2.10    0.46
  -3  -1  13    2.04    0.41
   3   1 -13    2.31    0.42
  -3  -1  12    1.32    0.31
  -3  -1  12    1.27    0.32
   3   1 -12    1.24    0.35
   3   1 -12    1.73    0.36
   3   1 -11    7.82    0.72
   3   1 -11    8.31    0.71
  -3  -1  11    7.93    0.64
   3   1 -10    0.81    0.23
  -3  -1  10    0.71    0.20
   3   1 -10    0.45    0.25
   3   1  -9    0.97    0.29
   3   1  -9    1.16    0.26
   3   1  -9    0.55    0.14
  -3  -1   9    0.90    0.19
  -3  -1   9    0.90    0.22
   3   1  -8   35.79    1.23
   3   1  -8   37.69    1.28
  -3  -1   8   34.97    1.11
  -3  -1   8   37.53    1.06
   3   1  -8   34.93    1.04
   3   1  -7    0.16    0.12
   3   1  -7    0.13    0.18
   3   1  -7   -0.05    0.10
  -3  -1   7    0.11    0.08
  -3  -1   7    0.25    0.16
   3   1  -6    6.69    0.16
   3   1  -6    8.03    0.52
  -3  -1   6    7.82    0.44
  -3  -1   6    7.99    0.48
   3   1  -6    7.46    0.45
   3   1  -5   53.22    1.19
   3   1  -5   52.88    0.69
  -3  -1   5   52.62    1.11
  -3  -1   5   52.51    1.07
   3   1  -5   52.30    1.12
  -3  -1   4   28.23    0.76
   3   1  -4   28.60    0.80
  -3  -1   4   29.20    0.76
   3   1  -4   28.87    0.77
   3   1  -3   98.95    1.33
  -3  -1   3  101.18    1.34
   3   1  -3   97.90    0.99
   3   1  -3   97.83    1.32
  -3  -1   3  100.91    1.36
  -3  -1   2   33.38    0.76
   3   1  -2   32.02    0.67
   3   1  -2   32.36    0.59
  -3  -1   2   32.53    0.74
   3   1  -2   32.91    0.73
  -3  -1   1   36.37    0.73
   3   1  -1   36.36    0.62
   3   1  -1   35.73    0.65
   3   1  -1   37.86    0.75
  -3  -1   1   36.49    0.76
   3   1   0  175.86    1.10
   3   1   0  171.75    1.49
  -3  -1   0  172.82    1.64
  -3  -1   0  167.66    1.46
   3   1   0  174.72    1.56
   3   1   1  173.16    1.59
   3   1   1  175.08    0.83
   3   1   1  170.77    1.33
  -3  -1  -1  170.03    1.73
  -3  -1  -2   28.79    0.64
   3   1   2   28.50    0.57
   3   1   2   29.38    0.68
  -3  -1  -2   29.73    0.77
  -3  -1  -3  211.74    1.86
   3   1   3  216.66    1.72
  -3  -1  -3  214.25    2.18
   3   1   3  212.32    1.86
  -3  -1  -4    7.92    0.40
   3   1   4    7.97    0.36
  -3  -1  -4    7.95    0.46
   3   1   4    7.94    0.38
  -3  -1  -5   59.28    0.90
  -3  -1  -5   60.80    1.18
   3   1   5   60.11    1.08
  -3  -1  -5   61.73    1.33
   3   1   5   60.73    1.06
  -3  -1  -6   93.25    1.31
   3   1   6   96.43    1.38
  -3  -1  -6   93.45    1.57
   3   1   6   96.50    1.42
  -3  -1  -6   94.94    1.78
   3   1   6   94.08    1.47
  -3  -1  -7   28.56    0.82
  -3  -1  -7   29.22    0.95
   3   1   7   28.96    0.81
  -3  -1  -7   29.90    1.06
   3   1   7   28.37    0.87
   3   1   7   30.37    0.80
   3   1   8   75.60    1.30
  -3  -1  -8   72.68    1.46
  -3  -1  -8   72.41    1.62
   3   1   8   75.29    1.34
  -3  -1  -8   74.65    1.77
   3   1   8   75.52    1.52
   3   1   9    1.90    0.29
  -3  -1  -9    1.38    0.24
  -3  -1  -9    1.60    0.28
   3   1   9    1.69    0.21
   3   1   9    1.65    0.20
  -3  -1  -9    1.59    0.29
  -3  -1 -10   37.26    1.23
  -3  -1 -10   36.03    1.37
  -3  -1 -10   35.26    1.28
   3   1  10   34.83    1.19
  -3  -1 -11   48.11    1.49
  -3  -1 -11   44.23    1.54
  -3  -1 -11   46.50    1.64
   3   1  11   48.89    1.49
   3   1  12    0.20    0.13
  -3  -1 -12    0.00    0.16
  -3  -1 -12    0.18    0.17
  -3  -1 -13    8.58    0.78
  -3  -1 -13    8.23    0.76
   3   1  13    9.04    0.73
  -3  -1 -14   10.07    0.90
  -3  -1 -14   11.35    0.92
   3   1  14   10.67    0.83
   3   2 -13   -0.08    0.22
  -3  -2  13    0.23    0.20
   3   2 -12    3.50    0.55
  -3  -2  12    3.43    0.49
  -3  -2  12    3.84    0.50
   3   2 -11   -0.14    0.16
   3   2 -11    0.13    0.22
  -3  -2  11   -0.47    0.25
   3   2 -10    5.61    0.60
   3   2 -10    5.12    0.53
  -3  -2  10    5.28    0.52
   3   2  -9   20.15    1.04
   3   2  -9   19.84    0.97
   3   2  -9   20.71    0.86
  -3  -2   9   19.26    0.93
   3   2  -8    7.70    0.52
   3   2  -8    7.70    0.62
  -3  -2   8    8.77    0.60
   3   2  -8    8.39    0.61
  -3  -2   8    8.28    0.47
   3   2  -8    7.64    0.44
  -3  -2   7   51.65    1.34
   3   2  -7   53.07    1.42
  -3  -2   7   51.07    1.11
   3   2  -7   50.67    1.28
   3   2  -7   51.79    1.44
   3   2  -6    1.40    0.29
  -3  -2   6    1.25    0.17
   3   2  -6    1.33    0.23
   3   2  -6    1.65    0.24
  -3  -2   6    1.55    0.26
   3   2  -5  101.83    1.06
   3   2  -5  108.73    1.81
   3   2  -5  109.77    1.75
  -3  -2   5  104.74    1.40
  -3  -2   5  112.48    1.75
   3   2  -4  243.67    1.80
  -3  -2   4  243.32    2.44
   3   2  -4  241.54    2.47
  -3  -2   4  237.13    2.01
   3   2  -4  238.71    2.47
  -3  -2   3    0.37    0.09
   3   2  -3    0.44    0.14
  -3  -2   3    0.12    0.11
   3   2  -3    0.18    0.10
   3   2  -2   83.44    1.18
  -3  -2   2   83.75    1.33
  -3  -2   2   81.89    1.09
   3   2  -2   84.25    1.28
   3   2  -1  136.73    1.53
   3   2  -1  136.65    1.33
   3   2  -1  134.50    1.33
  -3  -2   1  133.06    1.30
   3   2  -1  139.01    0.86
  -3  -2   1  135.47    1.62
  -3  -2   0   42.64    0.83
   3   2   0   42.18    0.80
   3   2   0   40.82    0.61
   3   2   0   41.29    0.75
  -3  -2   0   41.23    0.75
   3   2   1  217.43    1.07
   3   2   1  214.09    1.65
  -3  -2  -1  214.84    1.72
   3   2   1  214.82    1.76
  -3  -2  -1  210.23    1.82
   3   2   1  215.83    1.75
   3   2   2    1.30    0.14
   3   2   2    1.40    0.16
  -3  -2  -2    1.05    0.15
  -3  -2  -3    0.41    0.09
   3   2   3    0.35    0.10
  -3  -2  -3    0.51    0.14
   3   2   3    0.45    0.10
   3   2   3    0.71    0.12
  -3  -2  -4    0.73    0.07
  -3  -2  -4    0.68    0.13
   3   2   4    0.69    0.13
  -3  -2  -4    0.65    0.15
   3   2   4    0.58    0.11
   3   2   4    0.71    0.13
  -3  -2  -5    3.47    0.20
  -3  -2  -5    3.68    0.28
   3   2   5    3.60    0.27
   3   2   5    3.90    0.28
  -3  -2  -5    3.73    0.34
   3   2   5    3.68    0.26
  -3  -2  -6   41.80    0.80
  -3  -2  -6   43.23    1.02
   3   2   6   44.87    0.96
   3   2   6   44.05    0.99
  -3  -2  -6   44.30    1.18
   3   2   6   42.02    0.87
   3   2   7    1.74    0.23
  -3  -2  -7    1.45    0.18
  -3  -2  -7    1.33    0.21
   3   2   7    1.54    0.20
   3   2   7    1.33    0.17
  -3  -2  -7    1.37    0.25
  -3  -2  -8    6.95    0.43
  -3  -2  -8    6.92    0.49
   3   2   8    7.53    0.42
   3   2   8    6.94    0.37
   3   2   8    7.63    0.48
  -3  -2  -8    7.32    0.55
   3   2   9    1.37    0.24
   3   2   9    1.31    0.17
   3   2   9    1.37    0.19
  -3  -2  -9    1.25    0.27
  -3  -2  -9    1.18    0.22
  -3  -2  -9    1.17    0.23
   3   2  10    2.26    0.31
  -3  -2 -10    2.09    0.29
  -3  -2 -10    1.65    0.30
   3   2  10    2.07    0.24
  -3  -2 -10    1.78    0.33
  -3  -2 -11    9.52    0.64
  -3  -2 -11    8.18    0.69
   3   2  11    8.39    0.61
  -3  -2 -11    8.41    0.65
   3   2  12    0.62    0.21
  -3  -2 -12    0.52    0.23
  -3  -2 -12    0.46    0.21
   3   2  13    0.07    0.13
  -3  -2 -13    0.49    0.22
  -3  -2 -13    0.13    0.20
  -3  -2 -14   10.23    0.87
  -3  -2 -14    9.53    0.87
   3   2  14    9.99    0.79
   3   2  15    1.55    0.35
  -3  -2 -15    2.31    0.47
  -3  -2 -15    1.62    0.38
  -3  -3  13    0.18    0.19
   3   3 -12    9.98    0.91
  -3  -3  12    8.83    0.79
   3   3 -11    0.99    0.35
  -3  -3  11    0.82    0.28
   3   3 -10   -0.13    0.24
   3   3 -10    0.00    0.15
  -3  -3  10    0.49    0.21
   3   3  -9    7.58    0.67
   3   3  -9    6.90    0.58
   3   3  -9    7.48    0.56
  -3  -3   9    7.06    0.60
   3   3  -8    3.18    0.44
   3   3  -8    2.89    0.37
   3   3  -8    2.92    0.33
  -3  -3   8    3.13    0.40
   3   3  -7   15.27    0.83
  -3  -3   7   16.22    0.81
   3   3  -7   16.58    0.79
   3   3  -7   17.09    0.79
   3   3  -6    1.41    0.28
   3   3  -6    1.04    0.21
   3   3  -6    0.96    0.20
  -3  -3   6    1.09    0.14
  -3  -3   6    1.89    0.32
   3   3  -5    2.50    0.19
   3   3  -5    2.97    0.36
   3   3  -5    2.71    0.29
  -3  -3   5    3.09    0.22
  -3  -3   5    2.91    0.34
   3   3  -5    2.19    0.27
   3   3  -4   10.70    0.57
  -3  -3   4   10.26    0.56
   3   3  -4   10.79    0.42
   3   3  -4   10.60    0.51
   3   3  -4   10.88    0.57
  -3  -3   4   10.80    0.39
   3   3  -3   30.90    0.88
   3   3  -3   31.16    0.92
   3   3  -3   30.87    0.73
  -3  -3   3   29.48    0.61
  -3  -3   3   30.20    0.91
   3   3  -2  130.73    1.64
   3   3  -2  125.29    1.48
   3   3  -2  129.16    1.28
  -3  -3   2  131.29    1.81
   3   3  -2  127.70    1.77
  -3  -3   2  119.71    1.20
   3   3  -1   20.88    0.59
  -3  -3   1   21.03    0.46
   3   3  -1   21.96    0.49
   3   3  -1   21.44    0.68
  -3  -3   1   21.87    0.71
  -3  -3   0    0.15    0.09
   3   3   0    0.20    0.07
   3   3   0    0.24    0.05
  -3  -3   0    0.21    0.08
   3   3   0    0.21    0.08
  -3  -3  -1  104.90    1.21
   3   3   1  104.72    1.32
  -3  -3  -1  105.41    1.34
   3   3   2   19.94    0.55
   3   3   2   20.88    0.56
   3   3   2   19.24    0.58
  -3  -3  -2   20.72    0.59
   3   3   3    3.88    0.24
  -3  -3  -3    3.86    0.22
   3   3   3    3.72    0.25
   3   3   3    3.34    0.25
  -3  -3  -3    3.93    0.29
  -3  -3  -4   61.95    0.96
   3   3   4   62.57    0.90
   3   3   4   58.97    1.00
   3   3   4   61.30    1.08
  -3  -3  -4   60.29    1.18
  -3  -3  -5   85.60    0.84
  -3  -3  -5   87.17    1.27
   3   3   5   88.22    1.32
   3   3   5   88.19    1.34
  -3  -3  -5   91.40    1.55
  -3  -3  -6   25.89    0.57
  -3  -3  -6   26.65    0.76
   3   3   6   25.93    0.75
   3   3   6   28.11    0.80
  -3  -3  -6   26.68    0.90
  -3  -3  -7   26.35    0.83
   3   3   7   27.40    0.80
  -3  -3  -7   25.72    0.67
  -3  -3  -7   26.79    0.97
   3   3   7   27.35    0.84
  -3  -3  -8    7.58    0.49
   3   3   8    7.27    0.42
   3   3   8    7.53    0.48
  -3  -3  -8    8.16    0.58
  -3  -3  -8    7.25    0.41
  -3  -3  -9   25.59    0.84
  -3  -3  -9   25.54    0.95
   3   3   9   24.04    0.89
  -3  -3  -9   24.82    1.05
  -3  -3 -10   37.64    1.12
  -3  -3 -10   36.21    1.22
   3   3  10   35.65    1.15
  -3  -3 -10   37.77    1.38
  -3  -3 -11    7.72    0.55
  -3  -3 -11    8.83    0.65
   3   3  11    7.96    0.58
  -3  -3 -11    7.39    0.66
  -3  -3 -12   19.22    1.01
   3   3  12   18.94    0.94
  -3  -3 -12   19.17    1.11
   3   3  13    1.99    0.35
  -3  -3 -13    1.47    0.34
  -3  -3 -13    1.07    0.30
  -3  -3 -14   12.43    0.94
   3   3  14   12.12    0.85
  -3  -3 -14   13.46    1.03
  -3  -3 -15   13.21    1.02
   3   3  15   11.24    0.86
  -3  -3 -15   11.35    0.99
  -3  -3 -16    0.76    0.32
   3   4 -12    2.44    0.47
  -3  -4  12    2.72    0.49
   3   4 -11    0.99    0.32
  -3  -4  11    0.26    0.22
   3   4 -10   -0.24    0.23
  -3  -4  10   -0.26    0.20
   3   4  -9    4.60    0.56
  -3  -4   9    5.87    0.59
   3   4  -9    4.96    0.48
   3   4  -8    7.93    0.70
   3   4  -8    9.40    0.64
   3   4  -8    7.97    0.59
  -3  -4   8    9.00    0.69
   3   4  -7    2.27    0.37
   3   4  -7    2.98    0.34
  -3  -4   7    3.10    0.41
   3   4  -7    3.00    0.36
  -3  -4   7    2.40    0.28
   3   4  -6    0.03    0.20
   3   4  -6    0.26    0.15
   3   4  -6    0.23    0.12
  -3  -4   6    0.57    0.24
   3   4  -5   47.05    1.29
   3   4  -5   46.37    1.34
   3   4  -5   45.32    0.90
   3   4  -5   47.85    1.16
  -3  -4   5   48.40    1.35
   3   4  -4    8.56    0.56
   3   4  -4    7.69    0.39
  -3  -4   4    9.52    0.60
   3   4  -4    9.44    0.48
   3   4  -4    8.73    0.24
  -3  -4   4    8.61    0.28
   3   4  -4    9.05    0.55
   3   4  -3   53.67    1.25
   3   4  -3   51.04    1.02
   3   4  -3   52.82    1.04
   3   4  -3   53.99    1.02
   3   4  -3   54.83    1.30
  -3  -4   3   52.50    0.68
  -3  -4   3   54.25    1.31
  -3  -4   2    1.96    0.28
   3   4  -2    1.46    0.17
   3   4  -2    1.59    0.22
   3   4  -2    1.62    0.19
   3   4  -2    1.46    0.23
  -3  -4   2    1.73    0.13
   3   4  -1   18.44    0.62
   3   4  -1   18.49    0.63
   3   4  -1   18.21    0.53
   3   4  -1   18.90    0.71
  -3  -4   1   18.26    0.70
   3   4   0  198.87    1.85
   3   4   0  185.47    2.11
   3   4   0  189.07    2.02
   3   4   0  188.72    1.60
  -3  -4   0  186.75    1.36
  -3  -4   0  193.58    2.13
   3   4   1   31.43    0.62
  -3  -4  -1   30.26    0.62
   3   4   1   30.50    0.82
  -3  -4  -1   31.07    0.80
   3   4   2  249.68    2.10
  -3  -4  -2  252.68    2.18
  -3  -4  -2  249.05    1.98
   3   4   2  248.65    2.20
  -3  -4  -3   66.50    0.81
   3   4   3   67.11    1.08
  -3  -4  -3   66.53    1.11
   3   4   3   67.59    1.09
  -3  -4  -4  159.08    0.99
  -3  -4  -4  160.03    1.44
   3   4   4  161.33    1.72
  -3  -4  -4  163.54    1.88
   3   4   4  161.87    1.58
  -3  -4  -5  236.86    1.36
  -3  -4  -5  248.01    2.01
   3   4   5  247.10    2.23
   3   4   5  249.59    1.86
  -3  -4  -5  251.49    2.53
   3   4   6    1.45    0.19
  -3  -4  -6    1.38    0.13
  -3  -4  -6    1.42    0.18
  -3  -4  -6    1.20    0.18
   3   4   6    1.46    0.14
  -3  -4  -7   68.02    1.01
  -3  -4  -7   73.00    1.32
   3   4   7   72.06    1.37
  -3  -4  -7   70.59    1.55
   3   4   7   70.03    0.91
  -3  -4  -8   49.79    0.99
  -3  -4  -8   54.54    1.24
   3   4   8   53.41    1.25
  -3  -4  -8   54.41    1.46
   3   4   8   53.93    0.76
   3   4   9    0.10    0.13
  -3  -4  -9    0.23    0.13
  -3  -4  -9    0.02    0.12
  -3  -4  -9   -0.18    0.22
  -3  -4 -10   37.41    1.05
  -3  -4 -10   38.08    1.20
   3   4  10   37.76    1.16
  -3  -4 -10   37.91    1.39
   3   4  11    1.64    0.27
  -3  -4 -11    1.62    0.29
  -3  -4 -11    1.64    0.33
   3   4  12    2.79    0.37
  -3  -4 -12    3.31    0.42
  -3  -4 -12    2.64    0.42
  -3  -4 -13    6.99    0.64
   3   4  13    8.22    0.65
  -3  -4 -13    7.49    0.73
   3   4  14    0.24    0.17
  -3  -4 -14    0.36    0.18
  -3  -4 -14   -0.10    0.24
  -3  -4 -15    4.51    0.59
   3   4  15    4.17    0.53
  -3  -4 -15    4.38    0.63
  -3  -4 -16    0.12    0.22
   3   5 -11    0.73    0.29
  -3  -5  11    1.49    0.38
   3   5 -10   10.59    0.89
  -3  -5  10   10.74    0.87
   3   5  -9   -0.11    0.24
   3   5  -9    0.11    0.13
  -3  -5   9   -0.03    0.18
   3   5  -8   23.38    1.19
  -3  -5   8   24.69    1.18
   3   5  -8   24.04    1.08
   3   5  -7    4.86    0.53
   3   5  -7    5.44    0.50
  -3  -5   7    5.98    0.57
  -3  -5   7    5.56    0.46
   3   5  -6    1.09    0.24
   3   5  -6    0.41    0.20
   3   5  -6    0.83    0.18
  -3  -5   6    1.27    0.31
   3   5  -5   49.45    1.48
   3   5  -5   47.16    1.03
   3   5  -5   51.05    1.30
   3   5  -5   52.38    1.21
  -3  -5   5   49.97    1.45
   3   5  -5   51.23    1.42
  -3  -5   4    0.44    0.22
   3   5  -4    0.11    0.19
   3   5  -4    0.05    0.07
   3   5  -4    0.07    0.12
   3   5  -4    0.03    0.08
   3   5  -4   -0.04    0.12
   3   5  -3   46.30    1.25
   3   5  -3   45.10    1.05
   3   5  -3   46.98    0.95
   3   5  -3   45.75    1.07
  -3  -5   3   44.83    1.27
   3   5  -3   46.51    1.28
  -3  -5   2    0.33    0.17
   3   5  -2    0.82    0.19
   3   5  -2    0.85    0.16
   3   5  -2    0.64    0.17
   3   5  -2    0.95    0.13
   3   5  -2    0.64    0.13
  -3  -5   2    0.57    0.05
  -3  -5   1    0.02    0.14
  -3  -5   1    0.24    0.05
   3   5  -1    0.33    0.11
   3   5  -1    0.43    0.08
   3   5  -1   -0.08    0.15
   3   5  -1    0.33    0.10
   3   5   0   82.45    1.25
   3   5   0   85.28    1.47
   3   5   0   85.13    1.54
  -3  -5   0   81.97    0.81
  -3  -5   0   84.70    1.52
   3   5   1    3.28    0.30
  -3  -5  -1    3.46    0.21
   3   5   1    3.41    0.33
  -3  -5  -1    3.92    0.33
   3   5   1    3.58    0.25
   3   5   2   49.54    0.91
   3   5   2   49.09    1.09
   3   5   2   48.07    1.12
  -3  -5  -2   46.05    0.84
  -3  -5  -2   48.48    1.05
   3   5   3    6.96    0.38
  -3  -5  -3    6.16    0.34
   3   5   3    7.02    0.40
  -3  -5  -3    6.75    0.39
  -3  -5  -4    1.33    0.12
  -3  -5  -4    1.11    0.17
   3   5   4    1.88    0.21
   3   5   4    1.22    0.17
  -3  -5  -5   32.58    0.58
   3   5   5   33.95    0.85
  -3  -5  -5   34.97    0.71
  -3  -5  -5   33.45    0.91
   3   5   5   33.78    0.79
  -3  -5  -6   28.37    0.58
  -3  -5  -6   29.61    0.73
   3   5   6   29.00    0.82
  -3  -5  -6   29.42    0.93
   3   5   6   29.97    0.71
  -3  -5  -7    2.77    0.21
  -3  -5  -7    2.77    0.26
   3   5   7    3.00    0.21
  -3  -5  -7    2.93    0.33
   3   5   7    2.29    0.26
  -3  -5  -8   15.97    0.54
  -3  -5  -8   17.68    0.68
   3   5   8   17.20    0.72
  -3  -5  -8   17.13    0.82
   3   5   8   16.73    0.46
  -3  -5  -9    3.60    0.30
  -3  -5  -9    3.77    0.35
   3   5   9    3.92    0.38
  -3  -5  -9    4.06    0.45
  -3  -5 -10    7.12    0.45
  -3  -5 -10    7.24    0.52
   3   5  10    7.34    0.53
  -3  -5 -10    8.00    0.64
  -3  -5 -11   12.55    0.72
   3   5  11   10.77    0.66
  -3  -5 -11   11.07    0.80
   3   5  12    0.85    0.21
  -3  -5 -12    1.07    0.24
  -3  -5 -12    0.63    0.23
   3   5  13    2.16    0.34
  -3  -5 -13    2.96    0.40
  -3  -5 -13    1.90    0.37
  -3  -5 -14    5.62    0.61
   3   5  14    4.78    0.53
  -3  -5 -14    4.03    0.58
   3   5  15    3.18    0.45
  -3  -5 -15    3.03    0.47
  -3  -5 -15    2.28    0.48
  -3  -5 -16    2.03    0.42
  -3  -5 -16    1.88    0.44
   3   6 -10    1.29    0.31
  -3  -6  10    1.60    0.39
   3   6  -9   -0.20    0.26
   3   6  -9    0.35    0.17
   3   6  -9   -0.02    0.13
  -3  -6   9    0.06    0.19
   3   6  -8   11.67    0.88
  -3  -6   8   12.17    0.89
   3   6  -8   10.47    0.75
   3   6  -8   11.57    0.80
   3   6  -7    0.00    0.26
  -3  -6   7    0.17    0.11
   3   6  -7    0.31    0.15
  -3  -6   7    0.39    0.22
   3   6  -7    0.49    0.18
   3   6  -6    4.61    0.51
   3   6  -6    3.96    0.41
   3   6  -6    4.31    0.46
  -3  -6   6    3.89    0.41
  -3  -6   6    3.80    0.48
   3   6  -5    9.20    0.67
  -3  -6   5    8.81    0.65
   3   6  -5    8.00    0.55
   3   6  -5    7.87    0.60
   3   6  -4    1.30    0.21
   3   6  -4    1.50    0.24
  -3  -6   4    1.48    0.30
   3   6  -4    1.26    0.24
   3   6  -3    8.04    0.49
   3   6  -3    7.43    0.48
   3   6  -3    8.19    0.57
  -3  -6   3    8.86    0.61
   3   6  -2    7.25    0.46
   3   6  -2    5.69    0.40
   3   6  -2    6.13    0.49
  -3  -6   2    5.38    0.46
   3   6  -1    6.25    0.43
   3   6  -1    5.89    0.39
   3   6  -1    6.21    0.48
  -3  -6   1    5.86    0.47
   3   6   0    3.49    0.33
  -3  -6   0    3.07    0.13
   3   6   0    2.85    0.31
   3   6   0    3.07    0.27
  -3  -6   0    3.40    0.35
   3   6   1    7.55    0.41
   3   6   1    8.07    0.50
  -3  -6  -1    7.77    0.29
   3   6   1    7.63    0.49
  -3  -6  -1    7.46    0.47
   3   6   2   23.10    0.81
   3   6   2   23.27    0.84
   3   6   2   22.48    0.69
  -3  -6  -2   22.19    0.57
  -3  -6  -2   22.94    0.78
   3   6   3    9.24    0.44
   3   6   3    9.21    0.54
  -3  -6  -3    8.24    0.38
   3   6   3    9.32    0.49
  -3  -6  -3    9.66    0.49
   3   6   4   24.26    0.88
   3   6   4   24.20    0.74
  -3  -6  -4   23.51    0.44
  -3  -6  -4   22.82    0.70
   3   6   4   24.25    0.76
   3   6   5   22.01    0.84
  -3  -6  -5   23.04    0.53
   3   6   5   22.52    0.72
  -3  -6  -5   21.34    0.73
   3   6   5   22.70    0.70
   3   6   6   89.72    1.48
   3   6   6   87.60    1.30
  -3  -6  -6   84.58    1.10
   3   6   6   89.00    1.72
  -3  -6  -6   87.57    1.19
  -3  -6  -6   87.61    1.59
  -3  -6  -7    2.25    0.19
  -3  -6  -7    2.28    0.22
   3   6   7    2.53    0.28
   3   6   7    2.16    0.29
   3   6   7    2.40    0.21
  -3  -6  -7    2.83    0.32
  -3  -6  -8   85.91    1.27
   3   6   8   87.72    1.76
  -3  -6  -8   87.13    1.45
   3   6   8   85.90    1.60
  -3  -6  -8   86.14    1.80
   3   6   8   86.20    1.07
  -3  -6  -9  125.47    1.67
   3   6   9  131.75    2.18
   3   6   9  131.16    2.09
  -3  -6  -9  134.28    2.40
  -3  -6 -10    0.74    0.24
  -3  -6 -10    0.09    0.09
   3   6  10    0.60    0.15
   3   6  10    0.52    0.16
   3   6  11   55.28    1.45
   3   6  11   52.84    1.45
  -3  -6 -11   51.53    1.70
  -3  -6 -12   24.80    1.05
   3   6  12   21.34    0.97
  -3  -6 -12   23.55    1.22
  -3  -6 -13    2.34    0.36
  -3  -6 -13    2.83    0.47
   3   6  13    1.99    0.33
  -3  -6 -14   39.96    1.52
   3   6  14   38.63    1.45
  -3  -6 -14   36.67    1.70
  -3  -6 -15    1.22    0.33
  -3  -6 -15    1.56    0.39
   3   6  15    1.55    0.32
  -3  -6 -16    2.49    0.45
   3   6  16    2.37    0.42
  -3  -6 -16    1.79    0.45
   3   7 -10   -0.04    0.11
  -3  -7  10   -0.03    0.19
   3   7  -9    2.61    0.41
  -3  -7   9    2.65    0.48
   3   7  -8    0.57    0.21
   3   7  -8    0.55    0.21
  -3  -7   8    0.71    0.29
   3   7  -7    7.79    0.65
   3   7  -7    7.33    0.66
  -3  -7   7    9.26    0.78
  -3  -7   6    4.25    0.54
  -3  -7   6    4.56    0.48
   3   7  -6    3.67    0.47
   3   7  -6    4.11    0.45
  -3  -7   5    4.08    0.50
   3   7  -5    4.95    0.47
   3   7  -5    4.54    0.48
  -3  -7   5    4.42    0.47
   3   7  -4   51.51    1.54
   3   7  -4   48.86    1.37
  -3  -7   4   51.05    1.55
   3   7  -4   48.89    1.27
   3   7  -3    5.40    0.43
   3   7  -3    5.14    0.43
  -3  -7   3    5.59    0.53
   3   7  -3    5.33    0.49
   3   7  -2   10.13    0.58
   3   7  -2   11.47    0.61
   3   7  -2   10.47    0.67
  -3  -7   2   11.70    0.71
   3   7  -1   50.15    1.29
   3   7  -1   50.46    1.22
   3   7  -1   48.87    1.37
  -3  -7   1   51.06    1.40
   3   7   0   15.81    0.73
   3   7   0   16.06    0.67
   3   7   0   16.33    0.77
  -3  -7   0   16.77    0.78
   3   7   1   83.48    1.68
  -3  -7  -1   86.36    1.68
   3   7   1   87.03    1.70
  -3  -7  -1   83.38    0.89
   3   7   1   85.05    1.52
   3   7   2   41.06    1.19
   3   7   2   42.36    1.15
  -3  -7  -2   41.84    1.14
  -3  -7  -2   40.47    0.76
   3   7   2   41.93    1.06
  -3  -7  -3   -0.04    0.15
   3   7   3    0.57    0.16
   3   7   3    0.34    0.17
  -3  -7  -3    0.39    0.10
   3   7   3    0.31    0.12
   3   7   4   72.65    1.40
   3   7   4   72.42    1.61
   3   7   4   73.92    1.39
  -3  -7  -4   68.63    1.21
  -3  -7  -4   74.74    1.44
   3   7   5    3.19    0.30
   3   7   5    3.12    0.36
  -3  -7  -5    3.13    0.18
  -3  -7  -5    3.08    0.29
   3   7   5    2.74    0.27
  -3  -7  -6   21.56    0.62
   3   7   6   23.68    0.94
  -3  -7  -6   22.57    0.57
   3   7   6   23.46    0.78
  -3  -7  -6   22.24    0.80
   3   7   6   23.12    0.71
   3   7   7    7.24    0.53
   3   7   7    6.64    0.44
  -3  -7  -7    6.84    0.36
  -3  -7  -7    5.88    0.33
  -3  -7  -7    7.12    0.49
   3   7   7    6.72    0.36
  -3  -7  -8   -0.01    0.12
  -3  -7  -8    0.09    0.06
   3   7   8    0.03    0.11
  -3  -7  -8   -0.04    0.10
   3   7   8    0.28    0.08
   3   7   8    0.07    0.12
  -3  -7  -9   37.95    0.94
   3   7   9   41.16    1.28
   3   7   9   38.94    1.14
  -3  -7  -9   39.84    1.30
  -3  -7 -10    6.04    0.40
   3   7  10    5.78    0.49
   3   7  10    5.87    0.48
  -3  -7 -10    6.21    0.56
   3   7  11   17.86    0.85
   3   7  11   16.89    0.83
  -3  -7 -11   18.72    1.01
   3   7  12   17.25    0.88
  -3  -7 -12   15.10    0.97
  -3  -7 -13    5.61    0.53
   3   7  13    5.06    0.51
  -3  -7 -13    6.54    0.70
  -3  -7 -14   16.16    0.94
   3   7  14   16.00    0.93
  -3  -7 -14   16.99    1.15
  -3  -7 -15    9.23    0.77
   3   7  15    8.80    0.73
  -3  -7 -15    8.08    0.84
  -3  -7 -16    0.27    0.14
  -3  -7 -16    0.26    0.27
   3   7  16    0.36    0.18
   3   8  -9    2.35    0.41
  -3  -8   9    2.37    0.44
   3   8  -8    0.21    0.14
  -3  -8   8    0.95    0.34
   3   8  -7    1.69    0.35
  -3  -8   7    2.38    0.44
   3   8  -7    2.82    0.42
   3   8  -6    2.28    0.38
  -3  -8   6    2.02    0.34
   3   8  -6    2.04    0.35
  -3  -8   6    2.37    0.41
  -3  -8   5    3.06    0.46
  -3  -8   5    2.21    0.36
   3   8  -5    2.53    0.37
   3   8  -5    2.51    0.38
   3   8  -4   30.37    1.16
   3   8  -4   30.33    1.26
  -3  -8   4   32.05    1.29
  -3  -8   4   29.98    1.24
   3   8  -3    4.53    0.43
  -3  -8   3    5.07    0.52
   3   8  -3    3.97    0.41
   3   8  -3    4.17    0.47
   3   8  -2    4.23    0.46
   3   8  -2    4.56    0.43
  -3  -8   2    4.72    0.48
   3   8  -2    4.02    0.39
  -3  -8   1    3.36    0.41
   3   8  -1    2.80    0.33
   3   8  -1    2.16    0.33
   3   8  -1    2.75    0.32
   3   8   0    9.75    0.62
   3   8   0   10.37    0.65
   3   8   0   10.21    0.58
  -3  -8   0   10.36    0.65
   3   8   1   26.31    1.00
   3   8   1   25.75    0.91
   3   8   1   26.38    1.00
  -3  -8  -1   26.78    1.00
   3   8   2    6.57    0.46
  -3  -8  -2    5.79    0.29
   3   8   2    6.21    0.49
   3   8   2    6.34    0.48
  -3  -8  -2    6.31    0.48
  -3  -8  -3    2.04    0.27
   3   8   3    1.62    0.27
  -3  -8  -3    1.92    0.19
   3   8   3    1.90    0.26
   3   8   3    2.17    0.28
  -3  -8  -4   13.37    0.66
   3   8   4   12.91    0.71
   3   8   4   12.38    0.62
  -3  -8  -4   13.25    0.54
   3   8   4   13.49    0.64
  -3  -8  -5    4.27    0.37
   3   8   5    4.24    0.42
  -3  -8  -5    4.44    0.35
   3   8   5    4.59    0.36
   3   8   6    4.52    0.44
   3   8   6    4.57    0.37
  -3  -8  -6    4.64    0.24
  -3  -8  -6    4.39    0.37
   3   8   6    4.14    0.32
   3   8   7   10.14    0.56
  -3  -8  -7   10.22    0.41
  -3  -8  -7   10.73    0.61
   3   8   7   10.27    0.48
   3   8   7   10.72    0.67
  -3  -8  -7    9.53    0.46
   3   8   8    9.79    0.64
   3   8   8    9.85    0.57
  -3  -8  -8   10.63    0.47
  -3  -8  -8    9.34    0.47
  -3  -8  -8    9.94    0.62
   3   8   8   10.00    0.43
  -3  -8  -9    3.17    0.28
   3   8   9    3.30    0.38
  -3  -8  -9    4.53    0.47
   3   8   9    4.02    0.39
  -3  -8 -10    6.02    0.42
   3   8  10    6.26    0.50
  -3  -8 -10    6.26    0.57
   3   8  10    7.39    0.57
   3   8  11    4.65    0.45
   3   8  11    3.96    0.43
  -3  -8 -11    4.02    0.48
   3   8  12    9.76    0.65
   3   8  12    9.02    0.65
  -3  -8 -12    9.61    0.77
   3   8  13    8.47    0.64
  -3  -8 -13   10.68    0.86
  -3  -8 -14    3.24    0.43
  -3  -8 -14    3.25    0.54
   3   8  14    2.30    0.36
  -3  -8 -15   11.16    0.81
   3   8  15   11.78    0.83
  -3  -8 -15   13.48    1.08
   3   8  16    0.43    0.22
  -3  -8 -16    0.73    0.23
  -3  -8 -16    0.64    0.26
   3   9  -8    0.35    0.19
  -3  -9   8    0.28    0.19
   3   9  -7    0.68    0.23
  -3  -9   7    0.65    0.29
  -3  -9   6    0.81    0.25
   3   9  -6    0.40    0.18
  -3  -9   6    0.49    0.28
   3   9  -6    0.55    0.24
  -3  -9   5    0.11    0.21
   3   9  -5    0.17    0.18
  -3  -9   5    0.26    0.19
   3   9  -5   -0.06    0.10
   3   9  -4    4.02    0.46
   3   9  -4    4.44    0.53
  -3  -9   4    4.28    0.53
  -3  -9   4    4.81    0.54
  -3  -9   3    2.49    0.39
   3   9  -3    2.84    0.41
   3   9  -3    2.79    0.36
  -3  -9   3    2.65    0.40
   3   9  -2    0.10    0.13
   3   9  -2   -0.01    0.15
   3   9  -2   -0.04    0.11
  -3  -9   2    0.09    0.16
   3   9  -1    5.90    0.51
  -3  -9   1    5.40    0.51
   3   9  -1    5.74    0.48
   3   9  -1    5.81    0.54
   3   9   0   29.80    1.13
   3   9   0   30.56    1.17
   3   9   0   29.17    1.04
  -3  -9   0   32.34    1.17
  -3  -9  -1    0.06    0.15
   3   9   1    0.03    0.14
   3   9   1    0.02    0.09
   3   9   1    0.19    0.14
   3   9   2   18.98    0.90
   3   9   2   19.17    0.88
  -3  -9  -2   20.59    0.90
   3   9   2   18.64    0.82
   3   9   3   19.90    0.93
  -3  -9  -3   19.85    0.88
  -3  -9  -3   19.08    0.59
   3   9   3   18.22    0.83
   3   9   3   18.49    0.83
  -3  -9  -4    0.53    0.14
   3   9   4    0.86    0.22
   3   9   4    0.93    0.21
  -3  -9  -4    1.08    0.17
   3   9   4    0.98    0.21
   3   9   5   55.86    1.43
  -3  -9  -5   59.79    1.44
  -3  -9  -5   60.00    1.26
   3   9   5   59.07    1.36
   3   9   5   59.54    1.60
   3   9   6   19.38    0.79
   3   9   6   21.09    0.96
  -3  -9  -6   20.97    0.80
   3   9   6   19.15    0.74
  -3  -9  -6   20.20    0.85
  -3  -9  -7    2.53    0.26
   3   9   7    2.67    0.31
   3   9   7    2.61    0.35
  -3  -9  -7    2.57    0.31
   3   9   7    3.08    0.29
  -3  -9  -8   33.13    0.94
   3   9   8   34.50    1.25
   3   9   8   33.44    1.06
  -3  -9  -8   34.06    1.15
   3   9   8   33.38    0.86
  -3  -9  -9    2.80    0.29
   3   9   9    3.09    0.35
   3   9   9    3.02    0.38
  -3  -9  -9    3.10    0.38
   3   9  10   22.80    1.02
   3   9  10   23.16    0.95
  -3  -9 -10   22.16    1.04
   3   9  11    7.67    0.60
   3   9  11    7.27    0.56
  -3  -9 -11    7.82    0.66
  -3  -9 -12    0.10    0.15
   3   9  12    0.23    0.14
   3   9  12    0.10    0.13
   3   9  13   20.93    1.02
  -3  -9 -13   22.66    1.24
  -3  -9 -14    4.60    0.49
   3   9  14    4.10    0.48
  -3  -9 -14    4.76    0.64
  -3  -9 -15   11.41    0.80
   3   9  15   11.94    0.84
  -3  -9 -15   13.21    1.06
  -3  -9 -16    6.39    0.64
   3   9  16    6.31    0.64
  -3  -9 -16    7.16    0.85
   3  10  -7    0.92    0.27
  -3 -10   7    0.81    0.32
  -3 -10   6   -0.07    0.17
   3  10  -6    0.22    0.16
  -3 -10   6    0.24    0.21
  -3 -10   5   -0.05    0.13
   3  10  -5    0.12    0.11
   3  10  -5    0.14    0.16
  -3 -10   5    0.32    0.22
  -3 -10   4    5.25    0.59
   3  10  -4    4.64    0.51
   3  10  -4    4.86    0.59
  -3 -10   4    5.30    0.60
   3  10  -3    3.05    0.45
  -3 -10   3    3.26    0.47
  -3 -10   3    3.50    0.48
   3  10  -3    2.68    0.38
   3  10  -2    6.79    0.64
   3  10  -2    6.54    0.56
  -3 -10   2    7.55    0.65
  -3 -10   2    7.15    0.67
  -3 -10   1    2.34    0.40
   3  10  -1    2.20    0.32
   3  10  -1    3.30    0.41
   3  10  -1    2.52    0.40
   3  10   0   10.58    0.72
   3  10   0    9.80    0.71
   3  10   0    9.50    0.64
  -3 -10   0   11.84    0.75
   3  10   1   13.45    0.81
   3  10   1   14.71    0.85
   3  10   1   14.30    0.77
  -3 -10  -1   15.31    0.83
   3  10   2    1.60    0.29
  -3 -10  -2    2.17    0.33
   3  10   2    1.93    0.29
   3  10   2    1.67    0.29
   3  10   3   17.40    0.91
   3  10   3   16.95    0.85
  -3 -10  -3   16.57    0.85
   3  10   3   15.10    0.80
   3  10   4   18.10    0.88
   3  10   4   21.24    1.01
   3  10   4   20.51    0.90
  -3 -10  -4   22.64    0.97
   3  10   5    8.46    0.64
   3  10   5    9.06    0.62
  -3 -10  -5    9.27    0.51
   3  10   5    9.01    0.58
  -3 -10  -5    9.63    0.63
   3  10   6   16.96    0.91
  -3 -10  -6   16.18    0.72
   3  10   6   17.49    0.76
  -3 -10  -6   17.64    0.83
  -3 -10  -7    2.75    0.34
   3  10   7    2.44    0.36
  -3 -10  -7    2.58    0.32
   3  10   7    2.57    0.29
   3  10   8    5.88    0.47
  -3 -10  -8    6.07    0.50
   3  10   8    5.89    0.40
  -3 -10  -8    5.60    0.42
   3  10   8    5.60    0.53
  -3 -10  -9   15.56    0.71
   3  10   9   15.85    0.88
   3  10   9   15.75    0.77
  -3 -10  -9   16.16    0.86
   3  10  10    0.41    0.16
  -3 -10 -10    0.44    0.21
   3  10  10    0.47    0.17
   3  10  11    3.66    0.41
   3  10  11    3.36    0.41
  -3 -10 -11    4.82    0.52
   3  10  12    3.24    0.41
   3  10  12    3.43    0.41
  -3 -10 -12    3.75    0.50
   3  10  13    0.43    0.19
  -3 -10 -13   -0.06    0.18
   3  10  14    5.21    0.55
  -3 -10 -14    5.85    0.68
  -3 -10 -15    3.79    0.59
   3  10  15    3.36    0.46
   3  10  16    1.44    0.32
   3  11  -6   -0.12    0.12
  -3 -11   6    0.46    0.26
  -3 -11   5    0.11    0.14
   3  11  -5   -0.09    0.11
  -3 -11   4    3.78    0.55
   3  11  -4    3.58    0.47
  -3 -11   4    4.67    0.58
  -3 -11   3    2.15    0.40
   3  11  -3    1.10    0.26
  -3 -11   3    1.60    0.36
   3  11  -3    1.56    0.35
  -3 -11   2   -0.05    0.16
   3  11  -2    0.00    0.09
  -3 -11   2    0.31    0.22
  -3 -11   1    0.73    0.27
  -3 -11   1    1.04    0.26
   3  11  -1    0.88    0.25
   3  11  -1    0.74    0.21
   3  11  -1    0.71    0.24
  -3 -11   0    2.33    0.36
  -3 -11   0    2.86    0.43
   3  11   0    2.69    0.40
   3  11   0    2.34    0.35
   3  11   0    2.08    0.37
   3  11   1    7.28    0.63
   3  11   1    5.59    0.51
   3  11   1    6.14    0.58
  -3 -11  -1    7.19    0.60
  -3 -11  -2    2.14    0.34
   3  11   2    2.33    0.36
   3  11   2    1.77    0.33
   3  11   2    2.18    0.33
   3  11   3    6.22    0.58
   3  11   3    5.85    0.53
  -3 -11  -3    6.09    0.55
   3  11   3    6.09    0.54
   3  11   4    9.06    0.66
   3  11   4   10.11    0.73
   3  11   4    9.97    0.67
  -3 -11  -4   10.35    0.70
   3  11   5    9.10    0.66
   3  11   5    9.08    0.69
   3  11   5    9.67    0.63
   3  11   6   14.07    0.86
   3  11   6   14.13    0.83
  -3 -11  -6   15.90    0.73
   3  11   6   13.63    0.72
  -3 -11  -6   16.36    0.85
  -3 -11  -7    4.48    0.46
  -3 -11  -7    4.54    0.42
   3  11   7    4.77    0.42
   3  11   7    4.44    0.49
  -3 -11  -8    2.62    0.35
  -3 -11  -8    2.22    0.30
   3  11   8    2.78    0.39
  -3 -11  -8    3.02    0.37
   3  11   9   22.06    0.95
   3  11   9   21.88    1.09
  -3 -11  -9   23.36    0.92
  -3 -11  -9   24.17    1.06
   3  11  10    0.23    0.15
   3  11  10    0.12    0.10
  -3 -11 -10    0.16    0.14
   3  11  11    9.14    0.71
   3  11  11    9.76    0.67
  -3 -11 -11   10.47    0.77
   3  11  12    8.68    0.69
   3  11  12    9.40    0.67
  -3 -11 -12    9.36    0.77
   3  11  13    1.44    0.29
  -3 -11 -13    1.33    0.33
   3  11  14    8.24    0.69
  -3 -11 -14    7.33    0.75
  -3 -11 -15    2.91    0.50
   3  11  15    1.72    0.34
   3  11  16    0.23    0.15
  -3 -12   5    0.22    0.21
  -3 -12   5    0.03    0.19
   3  12  -5    0.26    0.16
  -3 -12   4    3.18    0.53
   3  12  -4    3.31    0.48
  -3 -12   4    3.39    0.52
  -3 -12   3    0.59    0.24
  -3 -12   3    0.54    0.25
   3  12  -3    0.90    0.26
  -3 -12   2    0.10    0.17
   3  12  -2    0.18    0.13
   3  12  -2   -0.28    0.22
  -3 -12   2    0.17    0.16
   3  12  -1    1.52    0.30
  -3 -12   1    1.63    0.37
   3  12  -1    2.55    0.45
  -3 -12   1    2.72    0.42
   3  12   0    1.39    0.27
  -3 -12   0    2.13    0.36
   3  12   0    1.65    0.34
  -3 -12   0    1.35    0.33
  -3 -12  -1    0.68    0.23
  -3 -12  -1    0.76    0.27
   3  12   1    0.53    0.21
   3  12   1    0.55    0.17
   3  12   1    0.80    0.26
  -3 -12  -2    1.80    0.32
  -3 -12  -2    1.50    0.34
   3  12   2    1.41    0.30
   3  12   2    1.55    0.31
   3  12   2    1.40    0.27
  -3 -12  -3    0.41    0.19
   3  12   3    0.25    0.15
   3  12   3    0.37    0.17
   3  12   3    0.20    0.14
   3  12   4    5.36    0.53
   3  12   4    5.12    0.56
   3  12   4    4.60    0.49
  -3 -12  -4    4.71    0.51
  -3 -12  -5    2.05    0.33
   3  12   5    2.21    0.36
   3  12   5    2.57    0.38
   3  12   5    2.13    0.32
  -3 -12  -6    3.13    0.41
   3  12   6    2.16    0.37
   3  12   6    2.53    0.38
   3  12   7   11.06    0.81
  -3 -12  -7   11.89    0.78
   3  12   7   11.61    0.69
   3  12   8    7.74    0.68
  -3 -12  -8    9.06    0.63
  -3 -12  -8    9.71    0.70
  -3 -12  -9   11.62    0.70
   3  12   9   11.80    0.83
  -3 -12  -9   13.03    0.80
  -3 -12  -9   13.59    0.83
   3  12  10   20.28    0.96
   3  12  10   21.19    1.11
  -3 -12 -10   21.33    1.06
   3  12  11    1.05    0.27
  -3 -12 -11    1.33    0.31
   3  12  11    0.82    0.23
   3  12  12    5.30    0.57
   3  12  12    5.10    0.51
  -3 -12 -12    5.50    0.60
   3  12  13   11.37    0.78
   3  12  13   10.48    0.79
  -3 -12 -13   11.24    0.88
  -3 -12 -14    0.45    0.25
   3  12  14    0.49    0.18
   3  12  15    7.94    0.70
  -3 -12 -15    8.06    0.83
  -3 -13   3    0.62    0.27
   3  13  -3    0.51    0.20
  -3 -13   2    0.40    0.23
  -3 -13   2    0.00    0.16
   3  13  -2    0.04    0.11
  -3 -13   1    1.23    0.33
   3  13  -1    1.16    0.27
  -3 -13   1    1.34    0.32
  -3 -13   0    3.68    0.56
   3  13   0    3.12    0.43
  -3 -13   0    4.27    0.52
  -3 -13  -1    0.67    0.25
  -3 -13  -1    0.41    0.23
   3  13   1    0.82    0.28
   3  13   1    0.13    0.12
   3  13   2    0.63    0.22
  -3 -13  -2    1.22    0.30
  -3 -13  -2    0.71    0.25
   3  13   2    1.37    0.32
   3  13   2    0.66    0.25
  -3 -13  -3    2.27    0.38
   3  13   3    2.13    0.39
   3  13   3    2.14    0.37
   3  13   3    2.22    0.39
  -3 -13  -3    1.87    0.37
  -3 -13  -4    0.20    0.19
  -3 -13  -4   -0.09    0.22
   3  13   4    0.00    0.16
   3  13   4   -0.04    0.12
   3  13   4   -0.10    0.16
  -3 -13  -5    3.10    0.43
  -3 -13  -5    2.79    0.44
   3  13   5    2.66    0.40
   3  13   5    2.72    0.40
   3  13   5    3.37    0.48
   3  13   6    0.16    0.14
   3  13   6    0.04    0.13
  -3 -13  -7    0.83    0.24
   3  13   7    0.83    0.25
   3  13   7    0.55    0.22
  -3 -13  -8    1.45    0.31
   3  13   8    1.94    0.38
  -3 -13  -9    3.10    0.43
   3  13   9    2.23    0.41
  -3 -13 -10    4.01    0.48
   3  13  10    4.45    0.54
  -3 -13 -10    4.29    0.50
  -3 -13 -10    4.28    0.48
  -3 -13 -11    0.29    0.13
   3  13  11    0.43    0.19
   3  13  11    0.68    0.25
  -3 -13 -11    0.37    0.17
   3  13  12    1.57    0.30
  -3 -13 -12    1.78    0.37
   3  13  12    1.87    0.37
   3  13  13    7.97    0.72
   3  13  13    6.90    0.63
  -3 -13 -13    7.23    0.72
  -3 -13 -14    0.02    0.17
   3  13  14   -0.13    0.13
   3  13  15    3.93    0.50
   3  14  -1    0.25    0.14
  -3 -14   0    1.64    0.42
   3  14   0    0.94    0.27
  -3 -14  -1    0.11    0.20
   3  14   1    0.35    0.18
  -3 -14  -2    1.36    0.38
   3  14   2    0.69    0.22
  -3 -14  -3    1.54    0.39
   3  14   3    1.29    0.33
   3  14   3    1.76    0.33
  -3 -14  -4    0.11    0.16
   3  14   4   -0.21    0.18
  -3 -14  -4   -0.03    0.18
   3  14   4    0.06    0.11
  -3 -14  -5    4.17    0.51
   3  14   5    5.45    0.63
  -3 -14  -5    4.31    0.57
   3  14   5    3.48    0.48
  -3 -14  -6   -0.28    0.21
   3  14   6    0.36    0.20
  -3 -14  -6    0.20    0.16
   3  14   6    0.20    0.18
  -3 -14  -7   -0.41    0.23
  -3 -14  -7   -0.23    0.20
   3  14   7   -0.17    0.23
   3  14   7    0.32    0.21
  -3 -14  -8    3.86    0.50
   3  14   8    3.29    0.50
  -3 -14  -8    2.43    0.41
  -3 -14  -9   -0.50    0.20
   3  14   9    0.10    0.15
  -3 -14  -9   -0.14    0.19
  -3 -14 -10    3.25    0.45
  -3 -14 -10    3.55    0.48
   3  14  10    2.79    0.45
  -3 -14 -11    2.08    0.37
   3  14  11    1.74    0.37
  -3 -14 -12   -0.09    0.12
   3  14  12    0.18    0.15
  -3 -14 -12   -0.02    0.12
  -3 -14 -13    4.78    0.59
   3  14  13    4.76    0.58
   3  14  13    4.16    0.50
  -3 -14 -13    4.29    0.58
   3  14  14    4.43    0.53
  -3 -14 -14    5.56    0.68
   3  15   1    0.55    0.21
   3  15   2    0.62    0.21
  -3 -15  -3    0.67    0.31
   3  15   3    0.47    0.20
  -3 -15  -4    5.29    0.68
   3  15   4    4.14    0.54
  -3 -15  -5    0.17    0.21
   3  15   5    0.11    0.15
   3  15   5    0.53    0.22
   3  15   6    0.09    0.12
   3  15   6    0.88    0.31
  -3 -15  -6    0.83    0.30
  -3 -15  -7    4.94    0.63
   3  15   7    6.41    0.71
   3  15   7    5.01    0.61
  -3 -15  -8    0.37    0.19
   3  15   8    0.93    0.29
  -3 -15  -9    4.01    0.55
   3  15   9    3.45    0.53
  -3 -15 -10    0.57    0.22
   3  15  10    0.94    0.31
   3  15  11    0.50    0.25
   3  15  12    0.91    0.29
   3  15  13   -0.13    0.15
   3  16   6    0.14    0.11
  -3 -16  -7    1.63    0.41
   3  16   7    0.83    0.27
  -3 -16  -8    0.29    0.20
  -3 -16  -9    3.96    0.57
  -4  13  11    0.11    0.15
  -4  13  10    0.39    0.20
   4 -13  -9    0.42    0.24
  -4  13   9    0.24    0.15
   4 -13  -8    0.33    0.21
  -4  13   8    0.00    0.11
  -4  13   8    0.22    0.16
   4 -13  -7    0.66    0.28
   4 -13  -7    0.38    0.22
  -4  13   7    0.60    0.22
  -4  13   6   -0.18    0.15
   4 -13  -6    0.10    0.20
   4 -13  -5    0.00    0.17
  -4  13   5    0.57    0.23
   4 -13  -4    1.07    0.33
  -4  13   4    0.59    0.22
  -4  13   3    0.36    0.21
  -4  12  12    1.65    0.38
   4 -12 -11    0.59    0.26
  -4  12  11    0.30    0.19
   4 -12 -10    0.12    0.20
  -4  12  10   -0.01    0.14
   4 -12  -9    0.55    0.24
  -4  12   9    0.36    0.20
   4 -12  -8    0.35    0.20
   4 -12  -8   -0.16    0.20
  -4  12   8   -0.10    0.14
  -4  12   8   -0.12    0.17
  -4  12   7    4.35    0.53
   4 -12  -7    3.44    0.51
  -4  12   7    3.43    0.45
   4 -12  -7    4.06    0.51
   4 -12  -6    2.62    0.44
  -4  12   6    2.22    0.39
  -4  12   6    2.65    0.39
   4 -12  -5    0.46    0.21
  -4  12   5    0.40    0.20
   4 -12  -4    7.10    0.71
  -4  12   4    7.32    0.71
   4 -12  -3    3.35    0.51
  -4  12   3    2.99    0.46
   4 -12  -2    2.26    0.46
  -4  12   2    2.06    0.39
   4 -12  -1    5.17    0.67
  -4  12   1    5.84    0.67
  -4  12   0    0.52    0.21
   4 -11 -14    2.27    0.45
   4 -11 -13    8.63    0.83
  -4  11  13    9.01    0.86
   4 -11 -12    0.62    0.27
  -4  11  12    0.60    0.26
   4 -11 -11    8.26    0.77
  -4  11  11    6.75    0.69
   4 -11 -10    3.41    0.50
  -4  11  10    2.47    0.41
   4 -11  -9   -0.04    0.13
  -4  11   9   -0.01    0.12
   4 -11  -8    4.30    0.55
  -4  11   8    4.27    0.49
  -4  11   8    4.36    0.51
   4 -11  -8    4.69    0.50
   4 -11  -7    0.42    0.18
  -4  11   7    0.49    0.20
  -4  11   7    0.37    0.17
  -4  11   6    0.30    0.12
   4 -11  -6    0.39    0.20
   4 -11  -6    0.25    0.15
  -4  11   6    0.36    0.17
  -4  11   5    0.04    0.11
  -4  11   5    0.07    0.10
   4 -11  -5    0.14    0.19
   4 -11  -4    1.03    0.31
  -4  11   4    0.76    0.23
  -4  11   4    1.19    0.24
   4 -11  -3    1.31    0.32
  -4  11   3    1.59    0.33
  -4  11   2    0.15    0.18
   4 -11  -2    0.29    0.23
   4 -11  -1    0.38    0.26
  -4  11   1    0.06    0.14
  -4  11   0    1.66    0.36
   4 -11   0    1.84    0.41
   4 -11   1    1.13    0.35
  -4  11  -1    0.32    0.18
   4 -11   2    2.58    0.50
  -4  11  -2    1.92    0.41
   4 -10 -14   -0.01    0.14
   4 -10 -13    2.10    0.42
  -4  10  13    2.58    0.48
   4 -10 -12    1.82    0.39
  -4  10  12    1.73    0.38
   4 -10 -11   -0.04    0.22
  -4  10  11    0.25    0.20
   4 -10 -10    0.73    0.26
  -4  10  10    0.39    0.20
   4 -10  -9    0.97    0.28
  -4  10   9    0.72    0.23
   4 -10  -8    0.98    0.25
   4 -10  -8    0.74    0.22
  -4  10   8    0.98    0.26
   4 -10  -7    0.99    0.27
  -4  10   7    0.99    0.24
  -4  10   7    1.20    0.27
   4 -10  -7    1.02    0.25
   4 -10  -6    0.63    0.24
  -4  10   6    0.58    0.20
   4 -10  -6    0.12    0.15
  -4  10   6    0.43    0.16
  -4  10   5    0.18    0.15
   4 -10  -5    0.30    0.20
  -4  10   5    0.08    0.12
  -4  10   4    0.55    0.20
   4 -10  -4    0.27    0.17
  -4  10   4    0.51    0.17
  -4  10   3    0.01    0.10
  -4  10   3   -0.02    0.10
   4 -10  -3    0.09    0.18
   4 -10  -2    0.44    0.22
  -4  10   2    0.18    0.17
   4 -10  -1    0.76    0.28
  -4  10   1    0.62    0.23
   4 -10   0    1.08    0.32
  -4  10   0    1.76    0.36
   4 -10   1    1.96    0.42
  -4  10  -1    0.75    0.26
  -4  10  -2    4.37    0.57
   4 -10   2    5.04    0.62
   4 -10   3    2.80    0.49
  -4  10  -3    2.13    0.43
   4 -10   4   -0.40    0.28
  -4  10  -4    0.11    0.12
   4  -9 -14    0.11    0.16
   4  -9 -14    0.07    0.15
  -4   9  14   -0.20    0.23
   4  -9 -13    4.41    0.58
  -4   9  13    4.34    0.60
   4  -9 -12   10.78    0.85
  -4   9  12   10.53    0.87
   4  -9 -11    0.91    0.27
  -4   9  11    0.93    0.27
   4  -9 -10   16.49    1.00
  -4   9  10   13.63    0.91
   4  -9  -9   20.05    1.07
  -4   9   9   17.29    0.99
   4  -9  -8    5.39    0.56
   4  -9  -8    6.09    0.50
  -4   9   8    4.96    0.52
   4  -9  -7   38.44    1.42
  -4   9   7   36.67    1.25
   4  -9  -7   39.59    1.30
  -4   9   7   35.79    1.31
  -4   9   6    6.91    0.55
   4  -9  -6    7.92    0.61
   4  -9  -6    7.41    0.62
  -4   9   6    6.86    0.56
  -4   9   5    4.10    0.44
  -4   9   5    4.68    0.46
   4  -9  -5    5.00    0.49
  -4   9   4   29.54    1.11
   4  -9  -4   30.78    1.23
  -4   9   4   28.87    1.15
  -4   9   3    0.05    0.10
   4  -9  -3    0.44    0.25
  -4   9   3    0.16    0.14
  -4   9   2   11.46    0.67
  -4   9   2   11.02    0.75
   4  -9  -2   11.84    0.80
   4  -9  -1    1.23    0.27
  -4   9   1    1.44    0.24
  -4   9   1    1.53    0.31
   4  -9   0    0.65    0.24
  -4   9   0    0.42    0.19
  -4   9  -1    2.77    0.43
   4  -9   1    2.87    0.46
  -4   9  -2    0.24    0.18
   4  -9   2    0.39    0.24
   4  -9   3    1.32    0.35
  -4   9  -3    0.47    0.23
   4  -9   4    1.25    0.36
  -4   9  -4    0.92    0.29
   4  -9   5   -0.09    0.20
  -4   9  -5    0.05    0.12
   4  -9   6    1.60    0.39
   4  -8 -15    0.55    0.26
   4  -8 -14    7.54    0.76
   4  -8 -14    5.39    0.70
  -4   8  14    6.13    0.74
   4  -8 -13    0.19    0.18
  -4   8  13   -0.33    0.21
   4  -8 -12   10.34    0.82
  -4   8  12   10.46    0.87
   4  -8 -11    0.57    0.22
  -4   8  11    0.54    0.25
   4  -8 -10    1.67    0.33
  -4   8  10    1.91    0.36
   4  -8  -9   14.24    0.87
  -4   8   9   12.98    0.85
   4  -8  -8    0.23    0.18
   4  -8  -8    0.33    0.16
  -4   8   8    0.19    0.13
  -4   8   7    6.69    0.50
   4  -8  -7    7.60    0.62
  -4   8   7    6.68    0.57
   4  -8  -7    6.76    0.51
  -4   8   6    5.06    0.44
   4  -8  -6    5.33    0.51
  -4   8   6    5.05    0.48
   4  -8  -6    5.66    0.48
   4  -8  -5    1.49    0.28
  -4   8   5    0.92    0.23
   4  -8  -5    1.03    0.22
  -4   8   5    1.07    0.22
  -4   8   4    9.11    0.60
   4  -8  -4    8.99    0.63
  -4   8   4    8.91    0.60
  -4   8   3    5.17    0.45
  -4   8   3    4.80    0.46
   4  -8  -3    5.91    0.53
   4  -8  -2    1.82    0.31
  -4   8   2    1.84    0.27
  -4   8   2    1.70    0.30
   4  -8  -1    0.91    0.26
  -4   8   1    1.00    0.22
  -4   8   1    0.95    0.23
  -4   8   0    8.44    0.67
  -4   8   0    9.54    0.59
   4  -8   0    9.69    0.72
   4  -8   1    0.78    0.27
  -4   8  -1    0.52    0.17
  -4   8  -1    0.52    0.20
   4  -8   2    1.06    0.28
  -4   8  -2    1.05    0.28
   4  -8   3    0.03    0.17
  -4   8  -3    0.17    0.13
   4  -8   4    0.21    0.20
  -4   8  -4    0.09    0.15
  -4   8  -5    0.07    0.13
   4  -8   5    0.16    0.18
  -4   8  -6   -0.05    0.14
   4  -8   6    0.11    0.19
   4  -8   7    2.62    0.47
   4  -7 -15   -0.10    0.21
   4  -7 -15   -0.05    0.17
  -4   7  15    0.50    0.31
   4  -7 -14    0.46    0.24
   4  -7 -14    0.43    0.28
  -4   7  14    0.45    0.21
   4  -7 -13    1.15    0.33
   4  -7 -13    0.54    0.25
  -4   7  13    0.60    0.26
   4  -7 -12    1.83    0.36
  -4   7  12    1.30    0.34
   4  -7 -11   -0.23    0.22
  -4   7  11   -0.17    0.19
   4  -7 -10   -0.16    0.16
  -4   7  10    0.10    0.18
   4  -7  -9    4.99    0.51
  -4   7   9    4.04    0.48
   4  -7  -8    7.25    0.59
  -4   7   8    6.60    0.58
   4  -7  -8    6.55    0.45
   4  -7  -7    0.08    0.14
   4  -7  -7   -0.09    0.11
  -4   7   7    0.10    0.13
   4  -7  -6    4.25    0.45
  -4   7   6    4.48    0.39
   4  -7  -6    3.98    0.38
  -4   7   6    3.89    0.41
  -4   7   5    4.41    0.39
   4  -7  -5    3.75    0.40
  -4   7   5    4.45    0.44
   4  -7  -5    4.73    0.42
  -4   7   4   13.69    0.72
   4  -7  -4   14.48    0.74
  -4   7   4   13.85    0.68
  -4   7   3   20.86    0.87
  -4   7   3   21.94    0.88
   4  -7  -3   22.38    0.94
  -4   7   2    3.98    0.39
  -4   7   2    4.45    0.42
   4  -7  -2    5.31    0.49
  -4   7   1   13.88    0.70
   4  -7  -1   14.13    0.80
  -4   7   1   12.86    0.74
  -4   7   0   27.84    0.99
  -4   7   0   27.52    1.13
   4  -7   0   28.01    1.13
   4  -7   1    0.69    0.25
  -4   7  -1    0.28    0.13
  -4   7  -1    0.48    0.20
   4  -7   2   34.70    1.32
  -4   7  -2   38.14    1.16
  -4   7  -2   34.84    1.37
   4  -7   3    1.09    0.28
  -4   7  -3    1.25    0.30
  -4   7  -4    0.16    0.14
   4  -7   4    0.08    0.18
   4  -7   5    5.43    0.58
  -4   7  -5    6.10    0.65
   4  -7   6   -0.31    0.19
  -4   7  -6   -0.08    0.19
   4  -7   7    4.03    0.54
  -4   7  -7    5.16    0.64
  -4   7  -8    0.41    0.24
   4  -7   8    0.23    0.19
   4  -6 -15    2.66    0.51
   4  -6 -15    2.87    0.54
  -4   6  15    2.08    0.44
   4  -6 -14    0.38    0.23
   4  -6 -14    0.12    0.20
  -4   6  14    0.37    0.19
   4  -6 -13   14.07    0.97
   4  -6 -13   13.45    1.05
  -4   6  13   12.84    1.01
   4  -6 -12    3.30    0.46
  -4   6  12    2.87    0.45
   4  -6 -11    6.71    0.61
  -4   6  11    6.52    0.66
  -4   6  10   19.66    1.07
   4  -6 -10   20.10    1.00
   4  -6  -9    0.26    0.15
  -4   6   9    0.41    0.15
   4  -6  -8   36.90    1.25
  -4   6   8   37.70    1.36
   4  -6  -7    0.62    0.16
   4  -6  -7    0.67    0.19
  -4   6   7    0.39    0.17
   4  -6  -6   36.14    1.17
  -4   6   6   37.36    1.03
  -4   6   6   35.28    1.21
   4  -6  -6   37.66    1.05
  -4   6   5   75.30    1.44
   4  -6  -5   74.94    1.52
   4  -6  -5   73.67    1.62
  -4   6   5   70.63    1.64
  -4   6   4    1.68    0.26
   4  -6  -4    1.63    0.26
  -4   6   4    1.57    0.22
   4  -6  -4    1.45    0.26
  -4   6   3   65.61    1.50
  -4   6   3   63.30    1.37
   4  -6  -3   66.75    1.52
  -4   6   2   24.72    0.90
  -4   6   2   24.50    0.91
   4  -6  -2   25.09    0.96
  -4   6   1    3.36    0.36
   4  -6  -1    4.57    0.44
  -4   6   1    4.32    0.39
  -4   6   0   40.27    1.15
  -4   6   0   39.62    1.27
   4  -6   0   39.22    1.25
  -4   6  -1   15.71    0.73
  -4   6  -1   15.86    0.84
   4  -6   1   16.83    0.86
   4  -6   2    1.18    0.27
  -4   6  -2    2.11    0.29
  -4   6  -2    1.66    0.30
  -4   6  -3    4.89    0.44
  -4   6  -3    5.14    0.53
  -4   6  -3    5.41    0.44
   4  -6   3    5.14    0.50
  -4   6  -4    9.23    0.71
  -4   6  -4    9.34    0.61
   4  -6   4    9.18    0.68
   4  -6   5    0.66    0.24
  -4   6  -5    1.31    0.30
  -4   6  -5    1.16    0.24
  -4   6  -6    7.05    0.69
   4  -6   6    6.02    0.59
  -4   6  -7    0.41    0.20
  -4   6  -7    0.33    0.21
   4  -6   7    0.37    0.19
  -4   6  -8    0.75    0.25
  -4   6  -8    0.65    0.26
   4  -6   8    0.85    0.32
  -4   6  -9    2.50    0.47
  -4   6  -9    2.36    0.42
   4  -5 -15    5.00    0.70
   4  -5 -15    4.93    0.65
  -4   5  15    4.57    0.63
  -4   5  14    1.30    0.34
   4  -5 -14    1.95    0.45
   4  -5 -14    1.71    0.40
   4  -5 -13   12.79    0.92
   4  -5 -13   14.24    1.07
  -4   5  13   11.91    0.95
   4  -5 -12    8.50    0.72
   4  -5 -12    9.55    0.85
  -4   5  12    9.56    0.81
   4  -5 -11    0.06    0.16
  -4   5  11    0.22    0.17
   4  -5 -10    5.08    0.50
  -4   5  10    4.08    0.50
  -4   5   9    8.94    0.69
   4  -5  -9    7.96    0.60
   4  -5  -8    2.53    0.32
  -4   5   8    3.27    0.42
   4  -5  -7    1.00    0.17
   4  -5  -7    0.59    0.18
  -4   5   7    1.02    0.24
  -4   5   6    0.64    0.20
   4  -5  -6    0.84    0.22
   4  -5  -6    0.78    0.17
  -4   5   5    0.58    0.18
   4  -5  -5    0.36    0.12
  -4   5   5    0.50    0.13
   4  -5  -5    0.45    0.15
  -4   5   4    3.61    0.30
   4  -5  -4    3.66    0.34
   4  -5  -4    3.62    0.34
  -4   5   4    3.63    0.38
  -4   5   3   10.08    0.59
  -4   5   3   10.62    0.51
   4  -5  -3   10.35    0.56
  -4   5   2    0.14    0.12
  -4   5   2    0.13    0.09
   4  -5  -2   -0.09    0.20
   4  -5  -1    1.06    0.23
  -4   5   1    1.02    0.19
  -4   5   1    1.06    0.19
   4  -5   0    4.10    0.41
  -4   5   0    5.31    0.42
  -4   5   0    5.57    0.45
  -4   5  -1   17.93    0.79
  -4   5  -1   17.13    0.82
  -4   5  -1   18.63    0.77
   4  -5   1   18.93    0.86
  -4   5  -2    0.50    0.17
  -4   5  -2    0.41    0.14
   4  -5   2    0.77    0.23
  -4   5  -3    8.76    0.63
  -4   5  -3    8.68    0.57
   4  -5   3    8.09    0.59
  -4   5  -4   16.73    0.91
  -4   5  -4   16.80    0.81
   4  -5   4   16.99    0.86
   4  -5   5   -0.04    0.14
  -4   5  -5   -0.06    0.17
  -4   5  -5    0.02    0.12
  -4   5  -6   10.06    0.72
  -4   5  -6   10.86    0.81
  -4   5  -6   10.57    0.68
   4  -5   6   10.18    0.72
  -4   5  -7    3.39    0.48
  -4   5  -7    3.62    0.45
   4  -5   7    3.64    0.45
  -4   5  -8    0.99    0.30
  -4   5  -8    0.92    0.26
   4  -5   8    0.95    0.26
  -4   5  -9    5.08    0.60
  -4   5  -9    6.14    0.69
  -4   5 -10    0.38    0.23
  -4   5 -10    0.59    0.24
  -4   4  15    1.42    0.30
   4  -4 -15    2.02    0.46
  -4   4  15    1.42    0.37
   4  -4 -15    2.15    0.47
  -4   4  14    0.21    0.16
  -4   4  14    0.35    0.15
   4  -4 -14    0.42    0.23
   4  -4 -14    0.72    0.31
  -4   4  13    2.93    0.39
   4  -4 -13    2.79    0.47
   4  -4 -13    3.05    0.50
  -4   4  13    3.19    0.48
   4  -4 -12    7.77    0.69
   4  -4 -12    9.03    0.82
  -4   4  12    8.02    0.73
  -4   4  12    7.93    0.58
  -4   4  11    0.23    0.09
   4  -4 -11    0.11    0.18
  -4   4  11    0.05    0.16
  -4   4  10    0.90    0.18
   4  -4 -10    0.82    0.26
  -4   4  10    1.34    0.30
   4  -4  -9   36.73    1.25
  -4   4   9   37.02    1.38
  -4   4   9   35.86    0.96
  -4   4   8    0.16    0.08
   4  -4  -8   -0.13    0.16
  -4   4   8    0.19    0.14
   4  -4  -7    9.17    0.57
  -4   4   7    9.03    0.39
  -4   4   7    9.57    0.64
   4  -4  -7    8.81    0.41
   4  -4  -6   56.23    1.33
   4  -4  -6   55.64    1.08
  -4   4   6   53.78    0.81
  -4   4   6   56.36    1.48
  -4   4   5    0.87    0.20
   4  -4  -5    1.09    0.20
  -4   4   5    1.07    0.09
   4  -4  -5    1.01    0.18
   4  -4  -4   69.35    1.30
  -4   4   4   67.58    1.14
   4  -4  -4   69.48    1.37
  -4   4   4   66.46    1.49
  -4   4   3    1.26    0.16
  -4   4   3    1.19    0.21
   4  -4  -3    1.41    0.21
   4  -4  -3    1.23    0.21
  -4   4   2    5.05    0.33
  -4   4   2    5.60    0.43
   4  -4  -2    5.25    0.39
  -4   4   1   66.08    1.29
  -4   4   1   66.77    1.42
   4  -4  -1   64.85    1.38
   4  -4   0    0.11    0.16
  -4   4   0    0.17    0.13
  -4   4   0    0.38    0.12
   4  -4   0    0.10    0.03
  -4   4  -1   83.50    1.65
  -4   4  -1   83.37    1.65
   4  -4   1   82.55    0.88
   4  -4   1   88.74    1.70
  -4   4  -2   18.79    0.83
  -4   4  -2   16.73    0.76
   4  -4   2   16.16    0.48
   4  -4   2   17.40    0.78
  -4   4  -3   27.89    1.05
  -4   4  -3   28.10    1.00
   4  -4   3   29.01    0.73
   4  -4   3   30.01    1.05
  -4   4  -4   27.77    1.10
  -4   4  -4   28.15    1.03
   4  -4   4   27.54    0.80
   4  -4   4   27.27    1.04
  -4   4  -5    3.85    0.42
  -4   4  -5    4.35    0.44
   4  -4   5    4.09    0.34
   4  -4   5    3.95    0.43
  -4   4  -6   27.90    1.14
  -4   4  -6   27.74    1.08
   4  -4   6   29.52    0.98
   4  -4   6   28.07    1.11
  -4   4  -7   23.34    1.10
  -4   4  -7   22.97    1.02
   4  -4   7   22.56    0.93
   4  -4   7   21.84    1.01
   4  -4   8    0.26    0.17
   4  -4   8    0.17    0.10
  -4   4  -8   -0.20    0.20
  -4   4  -8    0.34    0.19
  -4   4  -9    4.75    0.56
   4  -4   9    4.91    0.50
  -4   4 -10    4.07    0.57
   4  -4  10    3.97    0.47
  -4   4 -11    0.12    0.20
  -4   3  15    0.02    0.13
   4  -3 -15    0.00    0.18
   4  -3 -15    0.06    0.18
   4  -3 -14    7.31    0.77
   4  -3 -14    6.79    0.76
  -4   3  14    6.30    0.68
  -4   3  14    7.14    0.65
   4  -3 -13    3.96    0.54
   4  -3 -13    4.80    0.62
  -4   3  13    5.45    0.62
  -4   3  13    5.31    0.52
   4  -3 -12   12.03    0.87
   4  -3 -12   10.19    0.86
  -4   3  12   10.19    0.80
  -4   3  12    9.84    0.67
   4  -3 -11   20.04    1.05
   4  -3 -11   19.56    1.14
  -4   3  11   18.37    1.03
  -4   3  11   19.82    0.88
   4  -3 -10    1.74    0.31
  -4   3  10    2.56    0.30
  -4   3  10    2.62    0.38
   4  -3  -9   62.78    1.63
  -4   3   9   60.46    1.72
  -4   3   9   61.03    1.32
   4  -3  -8   59.06    1.49
  -4   3   8   60.09    1.65
  -4   3   8   59.84    1.19
   4  -3  -8   59.40    1.17
   4  -3  -7    5.45    0.44
  -4   3   7    5.51    0.47
  -4   3   7    5.82    0.34
  -4   3   7    5.51    0.36
   4  -3  -7    5.91    0.31
   4  -3  -6   71.91    1.46
   4  -3  -6   66.83    1.09
  -4   3   6   70.47    1.04
  -4   3   6   69.06    1.09
  -4   3   6   70.64    1.62
   4  -3  -5   43.43    1.08
  -4   3   5   43.32    0.70
  -4   3   5   42.56    1.21
  -4   3   5   42.88    0.75
   4  -3  -5   43.27    0.92
   4  -3  -4   23.13    0.75
  -4   3   4   22.22    0.46
  -4   3   4   22.88    0.87
  -4   3   4   21.28    0.39
   4  -3  -4   23.13    0.71
  -4   3   3   14.22    0.47
   4  -3  -3   13.65    0.55
   4  -3  -3   13.46    0.57
  -4   3   3   12.50    0.27
  -4   3   3   12.31    0.62
  -4   3   2    1.29    0.22
   4  -3  -2    1.52    0.18
   4  -3  -2    1.62    0.22
  -4   3   2    1.60    0.17
  -4   3   1   14.12    0.65
  -4   3   1   14.48    0.53
   4  -3  -1   13.64    0.60
   4  -3   0   21.67    0.32
  -4   3   0   22.75    0.84
  -4   3   0   20.69    0.29
  -4   3   0   22.77    0.73
   4  -3   0   21.91    0.77
   4  -3   1    5.71    0.23
  -4   3  -1    5.49    0.39
  -4   3  -1    6.01    0.45
   4  -3   1    6.12    0.43
  -4   3  -2    3.11    0.32
   4  -3   2    3.13    0.34
  -4   3  -2    3.76    0.38
   4  -3   2    3.18    0.21
   4  -3   3    0.05    0.14
   4  -3   3    0.19    0.07
  -4   3  -3    0.24    0.16
  -4   3  -4    4.44    0.42
  -4   3  -4    4.30    0.42
   4  -3   4    4.20    0.30
   4  -3   4    4.80    0.42
  -4   3  -5   36.15    1.19
   4  -3   5   38.56    1.00
  -4   3  -5   38.24    1.21
   4  -3   5   37.90    1.17
   4  -3   6    0.93    0.18
   4  -3   6    1.32    0.26
  -4   3  -6    1.01    0.26
  -4   3  -6    1.05    0.27
  -4   3  -7    4.76    0.49
  -4   3  -7    5.30    0.51
   4  -3   7    4.88    0.42
   4  -3   7    4.63    0.45
  -4   3  -8    2.85    0.42
  -4   3  -8    3.91    0.46
   4  -3   8    3.13    0.37
   4  -3   8    2.98    0.37
   4  -3   9    0.00    0.12
  -4   3  -9    0.27    0.20
   4  -3   9    0.38    0.17
  -4   3  -9   -0.10    0.15
  -4   3 -10    7.59    0.72
   4  -3  10    8.55    0.67
   4  -3  11    1.45    0.30
  -4   3 -11    1.65    0.38
   4  -3  12    0.16    0.15
  -4   2  15    0.38    0.21
   4  -2 -14    1.82    0.43
  -4   2  14    0.97    0.27
   4  -2 -14    2.37    0.47
   4  -2 -13    4.87    0.61
   4  -2 -13    5.12    0.65
  -4   2  13    4.38    0.53
  -4   2  13    5.02    0.53
   4  -2 -12    5.33    0.60
   4  -2 -12    4.22    0.56
  -4   2  12    5.08    0.55
  -4   2  12    4.36    0.46
   4  -2 -11    2.74    0.43
  -4   2  11    2.70    0.34
   4  -2 -11    3.19    0.47
  -4   2  11    2.82    0.40
   4  -2 -10    3.30    0.42
  -4   2  10    4.10    0.47
  -4   2  10    3.57    0.37
  -4   2  10    3.47    0.37
   4  -2  -9    4.36    0.45
  -4   2   9    4.08    0.46
  -4   2   9    4.02    0.37
  -4   2   9    4.45    0.38
  -4   2   8    7.82    0.47
   4  -2  -8    7.51    0.54
   4  -2  -8    7.30    0.43
  -4   2   8    8.09    0.59
   4  -2  -7   12.39    0.66
  -4   2   7   12.78    0.71
   4  -2  -7   12.22    0.54
  -4   2   7   11.79    0.53
   4  -2  -6    0.72    0.15
  -4   2   6    0.79    0.19
   4  -2  -6    0.60    0.15
  -4   2   6    0.53    0.12
   4  -2  -6    0.40    0.08
   4  -2  -5   32.78    0.92
  -4   2   5   32.47    1.03
  -4   2   5   34.00    0.74
   4  -2  -5   32.72    0.76
   4  -2  -4    0.23    0.10
   4  -2  -4    0.06    0.10
  -4   2   4    0.27    0.15
  -4   2   4    0.17    0.07
   4  -2  -3   58.54    1.08
  -4   2   3   58.18    1.30
  -4   2   3   58.62    0.82
  -4   2   3   56.14    0.74
   4  -2  -3   55.68    1.06
   4  -2  -2   10.78    0.49
  -4   2   2   10.61    0.28
   4  -2  -2   10.71    0.44
  -4   2   2   11.50    0.58
  -4   2   2   11.20    0.36
   4  -2  -1   12.68    0.46
  -4   2   1   12.71    0.60
  -4   2   1   12.81    0.60
   4  -2  -1   12.21    0.54
  -4   2   1   13.25    0.43
  -4   2   1   12.74    0.30
   4  -2   0   31.17    0.44
  -4   2   0   31.97    0.96
  -4   2   0   32.33    0.77
  -4   2   0   31.45    0.48
   4  -2   0   32.71    0.89
   4  -2   1    1.65    0.24
  -4   2  -1    1.58    0.20
  -4   2  -1    1.37    0.24
   4  -2   1    1.41    0.12
   4  -2   2    0.90    0.11
  -4   2  -2    0.85    0.22
   4  -2   2    1.03    0.20
  -4   2  -3   10.21    0.59
   4  -2   3   10.18    0.40
   4  -2   3   11.38    0.58
   4  -2   4    0.16    0.14
   4  -2   4    0.07    0.07
  -4   2  -4    0.38    0.16
  -4   2  -4    0.17    0.18
  -4   2  -5   31.81    1.07
  -4   2  -5   29.98    1.08
   4  -2   5   31.44    0.87
   4  -2   5   32.16    1.02
   4  -2   6   -0.01    0.08
  -4   2  -6   -0.04    0.15
   4  -2   6    0.06    0.15
  -4   2  -6    0.02    0.15
  -4   2  -7   10.72    0.69
   4  -2   7   11.82    0.66
  -4   2  -7   11.78    0.74
   4  -2   7   12.45    0.64
  -4   2  -8   23.79    1.08
  -4   2  -8   21.69    1.03
   4  -2   8   23.66    0.95
   4  -2   8   24.24    0.96
   4  -2   9    0.82    0.20
   4  -2   9    1.13    0.23
  -4   2  -9    0.45    0.22
  -4   2  -9    0.74    0.24
  -4   2 -10   17.76    1.04
  -4   2 -10   17.87    1.02
   4  -2  10   17.86    0.94
  -4   2 -11   10.64    0.86
   4  -2  11   10.35    0.76
   4  -2  12    0.27    0.19
  -4   2 -12    0.08    0.20
  -4   1  15    0.20    0.18
   4  -1 -14   -0.04    0.23
  -4   1  14    0.10    0.19
   4  -1 -14   -0.13    0.18
  -4   1  13    3.36    0.45
   4  -1 -13    4.53    0.60
   4  -1 -13    4.39    0.60
   4  -1 -12    0.23    0.28
  -4   1  12    0.06    0.13
   4  -1 -12    0.12    0.19
  -4   1  12    0.03    0.12
   4  -1 -11    0.28    0.21
  -4   1  11    0.07    0.11
   4  -1 -11    0.26    0.18
  -4   1  11   -0.06    0.12
  -4   1  11   -0.34    0.21
   4  -1 -10   10.14    0.73
   4  -1 -10   10.14    0.78
  -4   1  10   10.35    0.70
  -4   1  10    9.18    0.61
   4  -1  -9    3.33    0.42
  -4   1   9    3.83    0.42
  -4   1   9    2.47    0.30
   4  -1  -8   51.49    1.43
   4  -1  -8   51.20    1.21
  -4   1   8   49.53    1.40
  -4   1   8   51.09    1.25
   4  -1  -7    6.08    0.48
  -4   1   7    6.56    0.43
  -4   1   7    6.76    0.50
   4  -1  -7    5.84    0.40
   4  -1  -6   11.97    0.61
  -4   1   6   12.19    0.53
   4  -1  -6   11.56    0.36
  -4   1   6   11.30    0.62
   4  -1  -6   11.82    0.52
   4  -1  -5  131.23    1.69
  -4   1   5  136.44    2.05
   4  -1  -5  137.57    1.89
  -4   1   5  134.55    1.60
  -4   1   4   54.03    0.92
   4  -1  -4   56.50    1.12
   4  -1  -4   54.59    0.97
  -4   1   4   55.37    1.26
   4  -1  -3  115.13    1.48
  -4   1   3  112.50    1.76
  -4   1   3  108.71    1.20
   4  -1  -3  109.78    1.41
  -4   1   2  139.16    1.93
   4  -1  -2  141.95    1.52
  -4   1   2  144.45    1.02
  -4   1   2  136.34    1.27
   4  -1  -2  138.02    1.63
   4  -1  -1  113.35    1.27
  -4   1   1  114.53    1.71
  -4   1   1  117.28    1.00
  -4   1   1  111.25    1.15
   4  -1  -1  117.65    1.54
   4  -1   0  146.03    1.36
  -4   1   0  144.41    1.22
  -4   1   0  142.35    1.93
  -4   1   0  145.56    1.38
   4  -1   0  148.35    1.78
   4  -1   1  165.72    1.28
  -4   1  -1  163.60    1.67
   4  -1   1  168.22    1.94
  -4   1  -1  169.44    2.14
   4  -1   2    2.33    0.26
   4  -1   2    2.38    0.18
  -4   1  -2    2.68    0.32
   4  -1   3   94.03    1.54
  -4   1  -3   93.06    1.56
   4  -1   3   93.23    1.19
  -4   1  -3   93.66    1.71
   4  -1   4   72.82    1.40
  -4   1  -4   76.73    1.48
  -4   1  -4   75.51    1.60
   4  -1   4   73.44    1.17
   4  -1   5    0.11    0.08
  -4   1  -5    0.33    0.19
  -4   1  -5   -0.03    0.16
   4  -1   5    0.29    0.17
  -4   1  -6   11.77    0.65
  -4   1  -6   11.79    0.70
   4  -1   6   13.14    0.59
   4  -1   6   12.81    0.63
   4  -1   7   -0.04    0.08
  -4   1  -7   -0.01    0.13
  -4   1  -7   -0.24    0.23
   4  -1   7    0.16    0.14
  -4   1  -8    7.09    0.58
  -4   1  -8    6.42    0.57
   4  -1   8    6.55    0.49
   4  -1   8    7.26    0.51
  -4   1  -9    9.73    0.70
  -4   1  -9    8.77    0.70
   4  -1   9   10.28    0.66
   4  -1   9    9.72    0.59
   4  -1  10    1.85    0.31
  -4   1 -10    1.87    0.34
  -4   1 -10    1.30    0.31
  -4   1 -11    4.65    0.56
  -4   1 -11    5.12    0.57
   4  -1  11    4.68    0.50
   4  -1  12    1.28    0.30
  -4   1 -12    1.28    0.33
  -4   1 -12    1.16    0.31
  -4   1 -13    3.61    0.56
   4  -1  13    3.03    0.45
   4   0 -14   12.06    1.03
   4   0 -14   11.45    0.97
  -4   0  14   10.28    0.86
   4   0 -13    0.72    0.33
  -4   0  13    0.56    0.21
   4   0 -13    0.65    0.27
   4   0 -12    9.75    0.83
  -4   0  12    7.87    0.67
   4   0 -12   10.11    0.84
  -4   0  12    9.14    0.71
   4   0 -11    7.63    0.70
   4   0 -11    7.59    0.70
  -4   0  11    6.46    0.57
   4   0 -10    1.88    0.38
   4   0 -10    1.53    0.32
  -4   0  10    1.42    0.28
  -4   0  10    2.13    0.31
   4   0  -9   26.20    1.13
   4   0  -9   27.61    1.20
  -4   0   9   28.21    1.07
  -4   0   9   26.01    1.00
   4   0  -9   26.37    0.94
   4   0  -8    4.38    0.47
   4   0  -8    3.92    0.37
  -4   0   8    3.36    0.36
  -4   0   8    3.12    0.35
   4   0  -7   18.83    0.84
  -4   0   7   17.49    0.73
  -4   0   7   16.43    0.75
   4   0  -7   17.44    0.72
   4   0  -6   15.79    0.72
  -4   0   6   14.93    0.68
  -4   0   6   15.88    0.65
   4   0  -6   14.55    0.62
   4   0  -5   27.37    0.86
   4   0  -5   25.63    0.56
  -4   0   5   25.25    0.75
  -4   0   5   25.01    0.85
   4   0  -5   26.76    0.79
   4   0  -4   57.62    1.14
   4   0  -4   54.17    0.85
  -4   0   4   56.35    1.04
  -4   0   4   57.14    1.24
   4   0  -4   56.68    1.11
  -4   0   3    5.81    0.39
   4   0  -3    6.30    0.35
   4   0  -3    5.69    0.32
  -4   0   3    5.88    0.32
  -4   0   2    0.17    0.09
  -4   0   2    0.24    0.13
   4   0  -2    0.18    0.08
   4   0  -2    0.14    0.09
  -4   0   1   74.89    0.52
   4   0  -1   79.86    1.23
   4   0  -1   78.03    0.99
  -4   0   1   76.68    1.34
  -4   0   1   77.75    1.10
   4   0   0    5.68    0.25
  -4   0   0    5.84    0.39
  -4   0   0    5.57    0.21
  -4   0   0    5.38    0.27
   4   0   0    6.02    0.36
   4   0   1   88.70    0.89
   4   0   1   86.81    0.99
   4   0   1   90.23    1.37
  -4   0  -1   89.22    1.50
   4   0   2    7.83    0.32
  -4   0  -2    7.91    0.48
   4   0   2    7.81    0.42
   4   0   3    0.32    0.14
   4   0   3    0.11    0.07
  -4   0  -3    0.26    0.12
  -4   0  -3    0.47    0.18
  -4   0  -4   26.16    0.83
   4   0   4   25.02    0.79
   4   0   4   25.52    0.68
  -4   0  -4   25.51    0.92
  -4   0  -5    9.04    0.52
   4   0   5    8.94    0.44
  -4   0  -5    9.94    0.61
   4   0   5    9.58    0.51
  -4   0  -6    9.76    0.58
  -4   0  -6    9.73    0.63
   4   0   6   10.20    0.51
   4   0   6    9.87    0.53
  -4   0  -7   11.88    0.67
  -4   0  -7    9.92    0.66
   4   0   7   10.68    0.56
   4   0   7   10.85    0.57
   4   0   8    0.71    0.20
   4   0   8    0.54    0.16
  -4   0  -8    0.74    0.22
  -4   0  -8    0.54    0.20
  -4   0  -9    5.07    0.50
   4   0   9    5.37    0.43
   4   0   9    5.03    0.45
  -4   0  -9    4.17    0.48
   4   0   9    5.23    0.42
   4   0  10    0.42    0.17
  -4   0 -10    0.17    0.18
  -4   0 -10    0.09    0.23
   4   0  11    0.60    0.18
  -4   0 -11    0.53    0.20
  -4   0 -11    0.40    0.19
   4   0  12    0.92    0.24
  -4   0 -12    1.27    0.35
  -4   0 -12    1.19    0.33
   4   0  13    0.28    0.20
  -4   0 -13    0.43    0.21
  -4   0 -13    0.31    0.20
   4   1 -14    4.92    0.64
   4   1 -13    0.70    0.31
  -4  -1  13    0.43    0.22
   4   1 -13    0.65    0.28
   4   1 -12    6.81    0.72
   4   1 -12    6.09    0.65
  -4  -1  12    5.52    0.59
  -4  -1  12    5.38    0.57
   4   1 -11   -0.01    0.21
   4   1 -11    0.09    0.15
  -4  -1  11   -0.12    0.19
   4   1 -10    0.21    0.20
   4   1 -10   -0.27    0.23
  -4  -1  10   -0.25    0.20
   4   1  -9   14.95    0.89
   4   1  -9   15.00    0.88
  -4  -1   9   15.30    0.75
  -4  -1   9   14.00    0.79
   4   1  -9   14.94    0.74
   4   1  -8    0.30    0.20
   4   1  -8   -0.06    0.15
   4   1  -8    0.08    0.11
  -4  -1   8    0.05    0.09
  -4  -1   8    0.23    0.16
   4   1  -7    6.64    0.53
   4   1  -7    5.37    0.43
  -4  -1   7    6.42    0.45
  -4  -1   7    6.07    0.46
  -4  -1   6    2.91    0.29
   4   1  -6    3.20    0.32
  -4  -1   6    3.36    0.34
   4   1  -6    2.89    0.35
   4   1  -5    7.07    0.47
  -4  -1   5    6.84    0.43
   4   1  -5    6.97    0.44
  -4  -1   5    6.81    0.44
  -4  -1   4   22.82    0.74
   4   1  -4   22.73    0.75
   4   1  -4   21.99    0.55
   4   1  -4   21.67    0.73
  -4  -1   4   22.95    0.75
  -4  -1   3    0.26    0.10
  -4  -1   3    0.33    0.12
   4   1  -3    0.64    0.14
   4   1  -3    0.44    0.10
   4   1  -3    0.38    0.11
  -4  -1   2   12.96    0.54
   4   1  -2   12.71    0.52
   4   1  -2   12.26    0.44
  -4  -1   2   12.75    0.52
   4   1  -2   12.73    0.46
   4   1  -1   33.53    0.65
   4   1  -1   34.49    0.76
  -4  -1   1   32.99    0.84
  -4  -1   1   33.92    0.81
   4   1  -1   33.60    0.79
   4   1   0   18.72    0.42
  -4  -1   0   19.77    0.67
  -4  -1   0   19.95    0.58
   4   1   0   18.75    0.60
   4   1   1  105.58    0.82
   4   1   1  103.39    1.17
  -4  -1  -1  106.83    1.58
   4   1   1  108.05    1.46
  -4  -1  -1  104.66    1.23
   4   1   2   17.32    0.28
   4   1   2   17.84    0.50
  -4  -1  -2   17.81    0.68
   4   1   2   18.07    0.62
  -4  -1  -3    2.14    0.22
   4   1   3    1.99    0.18
  -4  -1  -3    1.84    0.27
   4   1   3    2.06    0.23
   4   1   4  108.50    1.57
  -4  -1  -4  107.92    1.58
   4   1   4  108.12    1.42
  -4  -1  -4  109.95    1.85
  -4  -1  -5   83.34    1.48
   4   1   5   82.35    1.33
  -4  -1  -5   81.12    1.66
   4   1   5   80.28    1.39
  -4  -1  -6    4.01    0.37
   4   1   6    3.66    0.31
  -4  -1  -6    4.75    0.47
   4   1   6    3.87    0.33
  -4  -1  -7   51.24    1.32
   4   1   7   51.39    1.21
   4   1   7   51.30    1.20
  -4  -1  -7   51.58    1.48
   4   1   7   51.67    1.18
  -4  -1  -8   49.21    1.38
   4   1   8   51.01    1.25
  -4  -1  -8   50.75    1.56
   4   1   8   49.73    1.26
   4   1   8   48.47    1.17
  -4  -1  -9    8.40    0.61
   4   1   9    9.11    0.54
  -4  -1  -9    9.33    0.72
   4   1   9    9.16    0.59
   4   1   9    9.13    0.53
  -4  -1 -10   23.32    1.07
   4   1  10   23.00    0.89
  -4  -1 -10   23.66    1.17
   4   1  10   22.39    0.97
   4   1  11    0.32    0.17
  -4  -1 -11    0.11    0.17
  -4  -1 -11    0.08    0.19
  -4  -1 -12    6.67    0.66
  -4  -1 -12    6.50    0.69
   4   1  12    6.57    0.59
  -4  -1 -13    9.78    0.85
  -4  -1 -13    8.16    0.79
   4   1  13    8.05    0.70
   4   1  14    2.44    0.42
  -4  -1 -14    3.53    0.55
  -4  -1 -14    3.67    0.58
   4   2 -13    1.67    0.42
  -4  -2  13    1.63    0.38
   4   2 -13    2.35    0.42
  -4  -2  13    1.76    0.38
   4   2 -12    0.65    0.25
   4   2 -12    0.29    0.24
  -4  -2  12    0.09    0.19
   4   2 -11    1.54    0.37
   4   2 -11    1.85    0.36
  -4  -2  11    2.08    0.39
   4   2 -10   11.29    0.80
   4   2 -10   12.21    0.87
  -4  -2  10   12.38    0.83
   4   2  -9    7.59    0.66
  -4  -2   9    7.53    0.61
   4   2  -9    7.34    0.62
   4   2  -9    7.17    0.54
   4   2  -8   29.41    1.19
  -4  -2   8   30.68    1.14
   4   2  -8   30.71    1.19
   4   2  -8   32.09    1.12
   4   2  -7    0.79    0.26
  -4  -2   7    0.80    0.22
   4   2  -7    1.11    0.23
   4   2  -7    1.01    0.21
  -4  -2   7    0.88    0.16
  -4  -2   6    1.27    0.25
   4   2  -6    1.57    0.25
   4   2  -6    1.71    0.28
  -4  -2   6    1.57    0.21
  -4  -2   5  108.88    1.82
   4   2  -5  105.74    1.82
   4   2  -5  106.01    1.28
   4   2  -5  108.83    1.85
  -4  -2   5  106.14    1.58
   4   2  -4   17.03    0.68
   4   2  -4   17.03    0.70
  -4  -2   4   17.51    0.70
  -4  -2   4   16.58    0.60
   4   2  -3   97.34    1.48
  -4  -2   3   96.47    1.42
   4   2  -3  100.48    1.59
  -4  -2   3   98.66    1.60
  -4  -2   2   26.21    0.74
   4   2  -2   28.40    0.72
   4   2  -2   26.87    0.66
   4   2  -2   26.52    0.37
  -4  -2   2   27.82    0.83
   4   2  -2   27.15    0.79
   4   2  -1    1.92    0.17
  -4  -2   1    1.58    0.20
   4   2  -1    1.94    0.19
  -4  -2   1    1.73    0.19
   4   2  -1    2.04    0.22
   4   2   0  177.07    1.37
   4   2   0  178.82    1.89
   4   2   0  175.98    1.77
  -4  -2   0  176.97    1.86
  -4  -2   0  180.04    1.89
   4   2   1    1.67    0.11
  -4  -2  -1    1.41    0.17
   4   2   1    1.13    0.16
  -4  -2  -1    1.52    0.21
   4   2   2   76.92    1.10
   4   2   2   74.97    1.22
  -4  -2  -2   75.85    1.34
   4   2   2   75.36    1.23
   4   2   3  151.39    1.60
   4   2   3  151.49    1.80
  -4  -2  -3  151.77    2.00
   4   2   3  154.23    1.78
  -4  -2  -4   14.95    0.56
   4   2   4   15.73    0.55
   4   2   4   15.14    0.59
  -4  -2  -4   15.77    0.69
   4   2   4   15.45    0.58
  -4  -2  -5  131.89    1.77
   4   2   5  132.62    1.70
   4   2   5  132.87    1.79
  -4  -2  -5  130.65    2.08
   4   2   5  130.30    1.72
  -4  -2  -6    6.34    0.42
   4   2   6    6.40    0.41
   4   2   6    6.33    0.40
  -4  -2  -6    6.12    0.49
   4   2   6    6.03    0.38
  -4  -2  -7   14.47    0.68
   4   2   7   14.75    0.64
   4   2   7   14.45    0.64
  -4  -2  -7   14.57    0.79
   4   2   7   15.98    0.64
  -4  -2  -8   73.01    1.25
   4   2   8   73.61    1.47
   4   2   8   73.17    1.52
  -4  -2  -8   72.58    1.83
  -4  -2  -8   73.62    1.62
   4   2   8   76.17    1.41
  -4  -2  -9   10.88    0.67
   4   2   9   11.15    0.59
   4   2   9   10.43    0.62
  -4  -2  -9   11.22    0.77
   4   2   9   11.24    0.55
  -4  -2 -10   17.31    0.90
   4   2  10   19.25    0.80
   4   2  10   18.85    0.87
  -4  -2 -10   18.77    1.04
  -4  -2 -11    8.58    0.67
   4   2  11    9.03    0.64
  -4  -2 -11    8.53    0.74
   4   2  12    2.77    0.39
  -4  -2 -12    2.75    0.43
  -4  -2 -12    2.14    0.41
  -4  -2 -13    6.79    0.68
   4   2  13    7.60    0.67
  -4  -2 -13    7.57    0.78
   4   2  14    0.92    0.28
  -4  -2 -14    0.76    0.27
  -4  -2 -14    0.78    0.33
  -4  -2 -15    0.22    0.25
   4   3 -12    0.40    0.29
  -4  -3  12    0.51    0.26
   4   3 -11    1.61    0.38
   4   3 -11    1.19    0.29
  -4  -3  11    1.32    0.34
   4   3 -10   19.27    1.03
   4   3 -10   20.42    1.16
  -4  -3  10   19.93    1.09
   4   3  -9    0.24    0.22
   4   3  -9    0.31    0.17
   4   3  -9    0.06    0.13
  -4  -3   9    0.12    0.17
   4   3  -8   21.91    1.08
  -4  -3   8   21.58    1.03
   4   3  -8   22.45    1.00
   4   3  -8   21.79    0.96
   4   3  -7   10.51    0.71
   4   3  -7   10.55    0.65
   4   3  -7   11.18    0.67
  -4  -3   7   10.28    0.68
   4   3  -6    4.85    0.48
  -4  -3   6    4.60    0.45
   4   3  -6    5.53    0.45
  -4  -3   6    5.39    0.34
   4   3  -6    5.40    0.45
   4   3  -5   47.19    1.29
   4   3  -5   47.22    0.91
  -4  -3   5   47.31    1.30
  -4  -3   5   49.08    1.00
   4   3  -5   48.39    1.31
   4   3  -4    2.06    0.29
   4   3  -4    1.95    0.21
  -4  -3   4    1.69    0.27
  -4  -3   4    2.08    0.21
   4   3  -4    1.60    0.25
  -4  -3   3    4.87    0.30
   4   3  -3    5.22    0.27
   4   3  -3    4.89    0.39
  -4  -3   3    4.91    0.40
   4   3  -3    5.76    0.40
  -4  -3   2    0.30    0.15
  -4  -3   2    0.19    0.09
   4   3  -2    0.15    0.11
   4   3  -2    0.17    0.04
   4   3  -2    0.15    0.12
   4   3  -1   14.20    0.59
   4   3  -1   14.72    0.51
  -4  -3   1   14.25    0.49
   4   3  -1   14.21    0.31
  -4  -3   1   14.81    0.63
   4   3   0   46.61    0.79
   4   3   0   45.08    0.94
  -4  -3   0   48.05    0.91
  -4  -3   0   47.04    1.05
   4   3   0   46.06    1.01
  -4  -3  -1    3.43    0.27
   4   3   1    3.13    0.18
   4   3   1    2.99    0.26
  -4  -3  -1    2.97    0.26
   4   3   1    3.17    0.26
   4   3   2   20.21    0.61
   4   3   2   19.31    0.64
  -4  -3  -2   19.62    0.67
   4   3   2   20.48    0.63
  -4  -3  -2   20.11    0.63
   4   3   3   25.61    0.69
   4   3   3   25.09    0.68
   4   3   3   24.72    0.74
  -4  -3  -3   25.85    0.81
  -4  -3  -4    0.88    0.14
   4   3   4    0.84    0.15
  -4  -3  -4    1.00    0.21
   4   3   4    0.78    0.14
  -4  -3  -5   43.32    0.97
   4   3   5   41.88    0.96
   4   3   5   41.98    1.02
  -4  -3  -5   43.12    1.17
  -4  -3  -6    5.07    0.20
  -4  -3  -6    5.75    0.39
   4   3   6    5.66    0.39
   4   3   6    5.35    0.37
  -4  -3  -6    5.92    0.49
  -4  -3  -7    0.39    0.08
   4   3   7    0.63    0.17
  -4  -3  -7    0.56    0.16
   4   3   7    0.64    0.16
  -4  -3  -7    0.39    0.22
  -4  -3  -8   19.41    0.80
   4   3   8   18.19    0.74
   4   3   8   19.16    0.77
  -4  -3  -8   20.04    0.96
  -4  -3  -9    6.19    0.49
   4   3   9    6.48    0.45
   4   3   9    6.25    0.47
  -4  -3  -9    6.49    0.58
  -4  -3 -10   13.44    0.76
   4   3  10   13.03    0.66
   4   3  10   12.99    0.71
  -4  -3 -10   12.10    0.84
  -4  -3 -11   12.76    0.79
   4   3  11   13.45    0.77
  -4  -3 -11   12.52    0.89
  -4  -3 -12   10.90    0.78
   4   3  12   10.06    0.71
  -4  -3 -12    9.40    0.82
   4   3  13    3.65    0.46
  -4  -3 -13    3.54    0.49
  -4  -3 -13    3.01    0.50
  -4  -3 -14   14.32    1.00
   4   3  14   13.32    0.90
  -4  -3 -14   11.82    1.00
   4   3  15   -0.03    0.13
  -4  -3 -15    0.26    0.21
  -4  -3 -15    0.15    0.15
   4   4 -12    0.09    0.20
  -4  -4  12   -0.36    0.28
   4   4 -11    2.01    0.43
  -4  -4  11    1.23    0.35
   4   4 -10    2.46    0.44
   4   4 -10    2.86    0.41
  -4  -4  10    3.18    0.47
   4   4  -9    0.26    0.20
   4   4  -9    0.46    0.19
   4   4  -9    0.60    0.19
  -4  -4   9    0.76    0.27
   4   4  -8    9.10    0.73
  -4  -4   8   10.49    0.77
   4   4  -8   10.02    0.67
   4   4  -8   10.02    0.69
   4   4  -7    6.22    0.59
   4   4  -7    5.86    0.49
   4   4  -7    5.94    0.52
  -4  -4   7    6.74    0.59
   4   4  -6    1.83    0.32
   4   4  -6    1.79    0.26
  -4  -4   6    1.60    0.32
   4   4  -6    1.78    0.29
   4   4  -5   45.99    1.36
   4   4  -5   44.71    0.96
   4   4  -5   46.17    1.19
  -4  -4   5   45.91    1.35
   4   4  -5   45.80    1.33
   4   4  -4   45.66    1.27
  -4  -4   4   45.74    1.32
   4   4  -4   45.97    1.02
   4   4  -4   46.48    1.00
   4   4  -4   47.37    1.12
  -4  -4   4   46.46    0.84
   4   4  -4   47.92    1.33
  -4  -4   3    0.25    0.17
  -4  -4   3    0.31    0.08
   4   4  -3    0.29    0.16
   4   4  -3    0.30    0.11
   4   4  -3    0.24    0.08
   4   4  -3    0.23    0.14
  -4  -4   2   17.65    0.76
   4   4  -2   16.16    0.65
   4   4  -2   15.29    0.60
   4   4  -2   16.64    0.50
   4   4  -2   16.35    0.73
  -4  -4   2   16.50    0.50
   4   4  -1   61.09    1.14
  -4  -4   1   60.49    0.90
   4   4  -1   61.65    0.88
   4   4  -1   59.71    1.32
  -4  -4   1   63.25    1.38
   4   4   0    3.94    0.21
   4   4   0    4.03    0.27
   4   4   0    4.01    0.34
  -4  -4   0    4.28    0.27
  -4  -4   0    4.09    0.34
  -4  -4  -1   76.18    1.17
  -4  -4  -1   77.32    1.38
   4   4   1   75.21    1.34
  -4  -4  -2   17.05    0.60
   4   4   2   16.74    0.61
  -4  -4  -2   17.56    0.63
   4   4   3    1.26    0.18
  -4  -4  -3    1.38    0.21
   4   4   3    1.39    0.19
   4   4   4   73.29    1.25
  -4  -4  -4   74.95    1.11
  -4  -4  -4   73.48    1.41
   4   4   4   72.97    1.18
  -4  -4  -5    0.14    0.09
   4   4   5    0.27    0.09
   4   4   5    0.11    0.11
  -4  -4  -5    0.17    0.13
   4   4   5    0.20    0.09
  -4  -4  -6   37.34    0.51
   4   4   6   40.89    0.84
  -4  -4  -6   40.51    0.96
   4   4   6   41.42    1.03
   4   4   6   40.95    1.06
  -4  -4  -6   40.45    1.18
  -4  -4  -7   42.76    0.70
   4   4   7   45.12    0.87
  -4  -4  -7   48.43    1.13
   4   4   7   46.74    1.16
   4   4   7   48.36    1.17
  -4  -4  -7   46.39    1.34
   4   4   8   15.56    0.51
  -4  -4  -8   15.17    0.69
   4   4   8   15.34    0.70
  -4  -4  -8   15.70    0.83
  -4  -4  -9  100.13    1.86
   4   4   9   96.06    1.84
  -4  -4  -9   99.60    2.19
   4   4  10    0.34    0.14
  -4  -4 -10    0.24    0.15
  -4  -4 -10    0.30    0.17
  -4  -4 -11   19.48    0.94
   4   4  11   19.66    0.91
  -4  -4 -11   18.88    1.08
  -4  -4 -12   32.14    1.28
   4   4  12   30.59    1.20
  -4  -4 -12   30.90    1.45
   4   4  13    0.54    0.21
  -4  -4 -13    0.12    0.14
  -4  -4 -13    0.25    0.18
  -4  -4 -14   32.15    1.46
   4   4  14   31.83    1.37
  -4  -4 -14   29.77    1.58
   4   4  15    3.84    0.52
  -4  -4 -15    3.74    0.55
  -4  -4 -15    3.72    0.60
   4   5 -11    0.98    0.34
  -4  -5  11    0.93    0.32
   4   5 -10    0.37    0.22
  -4  -5  10    0.97    0.28
   4   5  -9    6.52    0.68
  -4  -5   9    7.69    0.72
   4   5  -9    6.92    0.62
  -4  -5   8    0.59    0.27
   4   5  -8    0.27    0.22
   4   5  -8    0.71    0.19
   4   5  -8    0.56    0.17
   4   5  -8    0.64    0.21
   4   5  -7    2.94    0.43
   4   5  -7    4.02    0.40
   4   5  -7    3.70    0.39
   4   5  -7    3.02    0.40
  -4  -5   7    2.80    0.43
   4   5  -6    6.84    0.57
  -4  -5   6    7.27    0.63
   4   5  -6    8.05    0.64
   4   5  -6    6.53    0.48
   4   5  -6    7.57    0.51
   4   5  -5   13.31    0.78
  -4  -5   5   14.65    0.83
   4   5  -5   14.20    0.65
   4   5  -5   14.83    0.67
   4   5  -5   14.26    0.79
   4   5  -4   52.91    1.44
   4   5  -4   51.47    1.15
   4   5  -4   52.74    1.16
   4   5  -4   51.45    1.15
   4   5  -4   51.68    1.44
  -4  -5   4   50.93    1.45
   4   5  -3   16.20    0.75
   4   5  -3   16.85    0.67
   4   5  -3   16.88    0.60
   4   5  -3   17.08    0.81
   4   5  -3   16.74    0.61
  -4  -5   3   16.07    0.80
  -4  -5   2    1.46    0.29
  -4  -5   2    1.16    0.12
   4   5  -2    0.92    0.17
   4   5  -2    0.96    0.18
   4   5  -2    1.87    0.28
   4   5  -2    0.95    0.14
   4   5  -1   93.14    1.54
   4   5  -1   89.24    1.57
   4   5  -1   89.56    1.73
   4   5  -1   93.92    1.29
  -4  -5   1   93.12    1.79
   4   5   0   37.23    1.08
   4   5   0   38.29    1.04
  -4  -5   0   38.14    0.71
  -4  -5   0   37.31    1.09
   4   5   0   38.80    0.80
   4   5   1   42.01    0.80
   4   5   1   40.96    1.09
  -4  -5  -1   39.66    0.81
  -4  -5  -1   42.12    1.10
  -4  -5  -2   71.51    1.37
  -4  -5  -2   67.15    1.14
   4   5   2   70.99    1.38
   4   5   3   21.96    0.72
  -4  -5  -3   21.67    0.70
   4   5   3   21.88    0.74
  -4  -5  -3   20.97    0.73
   4   5   4   70.78    1.29
  -4  -5  -4   68.77    0.99
  -4  -5  -4   69.74    1.35
   4   5   4   70.19    1.26
  -4  -5  -5   11.43    0.26
   4   5   5   12.34    0.55
  -4  -5  -5   12.60    0.47
  -4  -5  -5   12.15    0.60
   4   5   5   12.10    0.51
  -4  -5  -6    5.81    0.21
  -4  -5  -6    6.66    0.38
   4   5   6    6.62    0.42
  -4  -5  -6    5.85    0.45
   4   5   6    6.42    0.36
  -4  -5  -7   15.31    0.41
  -4  -5  -7   16.18    0.63
   4   5   7   17.13    0.71
  -4  -5  -7   15.43    0.77
   4   5   7   16.28    0.55
   4   5   8    5.57    0.31
  -4  -5  -8    5.81    0.42
   4   5   8    5.81    0.45
  -4  -5  -8    5.28    0.50
  -4  -5  -9   20.57    0.82
   4   5   9   19.84    0.84
  -4  -5  -9   20.77    0.99
  -4  -5 -10    5.52    0.46
   4   5  10    5.02    0.45
  -4  -5 -10    5.09    0.52
   4   5  11    2.64    0.36
  -4  -5 -11    2.58    0.35
  -4  -5 -11    2.45    0.42
  -4  -5 -12    6.67    0.58
   4   5  12    6.69    0.57
  -4  -5 -12    5.75    0.64
  -4  -5 -13    6.75    0.62
   4   5  13    7.93    0.65
  -4  -5 -13    8.00    0.79
  -4  -5 -14    8.05    0.72
   4   5  14    7.48    0.66
  -4  -5 -14    7.08    0.79
   4   5  15    2.26    0.41
  -4  -5 -15    2.42    0.44
  -4  -5 -15    2.06    0.45
   4   6 -10    1.37    0.37
  -4  -6  10    0.89    0.31
   4   6  -9    5.39    0.65
   4   6  -9    5.54    0.59
  -4  -6   9    5.74    0.65
   4   6  -8    1.41    0.33
   4   6  -8    1.30    0.31
  -4  -6   8    1.04    0.30
   4   6  -7   -0.05    0.15
   4   6  -7    0.07    0.16
   4   6  -7    0.06    0.08
  -4  -6   7    0.26    0.23
  -4  -6   6    2.41    0.40
   4   6  -6    1.88    0.32
   4   6  -6    1.74    0.33
   4   6  -6    1.78    0.25
   4   6  -6    2.25    0.30
   4   6  -5    6.82    0.58
  -4  -6   5    8.06    0.65
   4   6  -5    7.98    0.49
   4   6  -5    7.97    0.53
   4   6  -5    8.10    0.62
   4   6  -4   26.12    1.07
   4   6  -4   26.49    0.88
   4   6  -4   27.46    0.82
   4   6  -4   27.03    0.91
   4   6  -4   26.84    1.10
  -4  -6   4   27.68    1.13
   4   6  -3    4.18    0.40
  -4  -6   3    4.32    0.45
   4   6  -3    5.00    0.39
   4   6  -3    4.58    0.31
   4   6  -3    3.78    0.32
   4   6  -3    4.71    0.46
  -4  -6   2    2.20    0.34
   4   6  -2    3.45    0.33
   4   6  -2    2.21    0.20
   4   6  -2    2.20    0.24
   4   6  -2    2.02    0.30
   4   6  -1   25.98    0.90
   4   6  -1   25.99    0.57
  -4  -6   1   23.99    0.51
   4   6  -1   25.71    0.76
   4   6  -1   26.83    1.01
  -4  -6   1   26.84    1.01
   4   6   0   23.71    0.87
  -4  -6   0   20.62    0.47
   4   6   0   21.81    0.69
   4   6   0   21.98    0.88
  -4  -6   0   22.92    0.91
   4   6   1   19.22    0.79
  -4  -6  -1   18.34    0.53
  -4  -6  -1   18.43    0.78
   4   6   1   20.12    0.83
   4   6   1   17.86    0.61
   4   6   2   12.86    0.51
   4   6   2   12.22    0.62
   4   6   2   13.17    0.66
  -4  -6  -2   13.30    0.50
  -4  -6  -2   13.89    0.66
  -4  -6  -3   16.03    0.60
  -4  -6  -3   17.02    0.71
   4   6   3   15.37    0.68
   4   6   4   26.36    0.83
  -4  -6  -4   26.46    0.82
   4   6   4   26.54    0.86
  -4  -6  -4   26.76    0.88
  -4  -6  -5   15.20    0.39
   4   6   5   16.37    0.66
  -4  -6  -5   15.90    0.49
  -4  -6  -5   15.65    0.67
   4   6   5   15.56    0.64
  -4  -6  -6    0.08    0.04
  -4  -6  -6    0.12    0.08
  -4  -6  -6   -0.07    0.15
   4   6   6    0.01    0.10
   4   6   6    0.17    0.10
  -4  -6  -7    1.06    0.12
  -4  -6  -7    1.98    0.23
  -4  -6  -7    1.73    0.26
   4   6   7    1.50    0.19
   4   6   7    1.33    0.25
  -4  -6  -8   20.42    0.74
   4   6   8   20.19    0.82
  -4  -6  -8   18.19    0.87
   4   6   8   18.88    0.62
  -4  -6  -9    0.19    0.11
  -4  -6  -9    0.30    0.16
   4   6   9    0.34    0.15
  -4  -6 -10   14.46    0.72
   4   6  10   15.23    0.78
  -4  -6 -10   14.87    0.89
   4   6  11    2.92    0.37
  -4  -6 -11    3.44    0.38
  -4  -6 -11    2.25    0.39
  -4  -6 -12    1.77    0.32
  -4  -6 -12    1.98    0.38
   4   6  12    2.18    0.35
  -4  -6 -13   22.43    1.08
   4   6  13   23.66    1.11
  -4  -6 -13   23.83    1.32
  -4  -6 -14    0.28    0.18
   4   6  14    0.07    0.15
  -4  -6 -14   -0.19    0.23
  -4  -6 -15    7.72    0.72
   4   6  15    8.05    0.72
  -4  -6 -15    7.75    0.86
  -4  -6 -16    6.57    0.70
   4   7  -9    0.87    0.25
  -4  -7   9    2.08    0.44
  -4  -7   8    1.83    0.38
   4   7  -8    2.18    0.39
   4   7  -7    0.26    0.13
   4   7  -7    0.14    0.10
  -4  -7   7    0.32    0.23
  -4  -7   6    2.85    0.37
   4   7  -6    2.61    0.40
   4   7  -6    3.26    0.39
  -4  -7   6    3.37    0.48
   4   7  -5    4.14    0.41
   4   7  -5    4.00    0.46
  -4  -7   5    3.78    0.47
   4   7  -4    0.35    0.13
  -4  -7   4    0.46    0.28
   4   7  -4    0.11    0.08
   4   7  -4    0.01    0.14
  -4  -7   3    1.12    0.28
   4   7  -3    0.94    0.20
   4   7  -3    0.84    0.17
   4   7  -3    1.12    0.24
  -4  -7   2    4.51    0.46
   4   7  -2    5.09    0.42
   4   7  -2    5.33    0.40
   4   7  -2    5.58    0.50
  -4  -7   1    1.59    0.31
   4   7  -1    1.44    0.21
   4   7  -1    1.37    0.29
   4   7  -1    1.44    0.24
   4   7   0   44.32    1.24
   4   7   0   46.30    1.34
  -4  -7   0   46.13    1.34
   4   7   0   44.58    1.08
   4   7   1   10.18    0.61
  -4  -7  -1    9.92    0.36
   4   7   1   11.16    0.65
  -4  -7  -1   10.24    0.62
   4   7   1   10.50    0.52
   4   7   2    5.48    0.37
   4   7   2    6.52    0.50
  -4  -7  -2    6.71    0.34
   4   7   2    6.06    0.47
  -4  -7  -2    5.94    0.47
   4   7   3   96.02    1.56
   4   7   3   97.86    1.91
  -4  -7  -3   98.35    1.45
   4   7   3   98.50    1.80
  -4  -7  -3   96.46    1.80
   4   7   4   15.95    0.80
  -4  -7  -4   16.42    0.64
   4   7   4   16.81    0.73
  -4  -7  -4   17.35    0.75
   4   7   5   84.57    1.57
   4   7   5   87.09    1.84
  -4  -7  -5   83.38    1.00
  -4  -7  -5   84.80    1.55
   4   7   5   86.50    1.59
   4   7   6  116.14    2.16
   4   7   6  115.18    1.86
  -4  -7  -6  117.63    1.37
  -4  -7  -6  118.65    1.94
   4   7   6  120.37    1.81
  -4  -7  -6  107.42    1.23
   4   7   7   28.55    0.84
  -4  -7  -7   27.16    0.63
   4   7   7   28.12    1.08
   4   7   7   28.07    0.94
  -4  -7  -7   27.68    0.75
  -4  -7  -7   28.19    1.01
   4   7   8   72.22    1.74
   4   7   8   71.95    1.56
  -4  -7  -8   74.12    1.35
  -4  -7  -8   70.99    1.70
   4   7   8   78.20    1.32
   4   7   9   24.19    1.03
  -4  -7  -9   24.15    0.84
   4   7   9   23.32    0.93
  -4  -7  -9   23.14    1.03
   4   7  10    5.05    0.48
  -4  -7 -10    4.97    0.41
   4   7  10    5.10    0.46
  -4  -7 -10    4.01    0.46
   4   7  11   15.51    0.85
  -4  -7 -11   18.11    0.84
   4   7  11   15.73    0.83
  -4  -7 -11   15.51    0.95
   4   7  12    6.70    0.57
  -4  -7 -12    6.79    0.55
   4   7  12    6.70    0.57
  -4  -7 -12    7.02    0.68
  -4  -7 -13    6.44    0.57
   4   7  13    6.18    0.57
  -4  -7 -13    6.32    0.68
   4   7  14    3.60    0.46
  -4  -7 -14    3.54    0.45
  -4  -7 -14    3.49    0.54
   4   7  15    4.06    0.51
  -4  -7 -15    3.18    0.46
  -4  -7 -15    4.23    0.64
  -4  -7 -16    4.39    0.56
   4   8  -9    3.05    0.48
  -4  -8   8    0.11    0.21
   4   8  -8    0.00    0.13
  -4  -8   7    2.70    0.47
   4   8  -7    3.61    0.50
  -4  -8   6    1.58    0.37
  -4  -8   6    1.49    0.32
   4   8  -6    1.03    0.28
   4   8  -6    1.18    0.25
  -4  -8   5    0.16    0.17
   4   8  -5    0.06    0.09
   4   8  -5    0.19    0.17
   4   8  -4   12.58    0.72
   4   8  -4   13.49    0.87
  -4  -8   4   13.29    0.86
  -4  -8   3    0.32    0.18
   4   8  -3    0.38    0.14
   4   8  -3    0.31    0.18
   4   8  -3    0.29    0.12
   4   8  -2   11.26    0.66
   4   8  -2   10.22    0.59
   4   8  -2   11.20    0.74
  -4  -8   2   12.06    0.77
   4   8  -1   20.29    0.89
   4   8  -1   19.29    0.78
   4   8  -1   19.60    0.95
  -4  -8   1   20.77    0.97
  -4  -8   0    3.47    0.42
   4   8   0    3.97    0.41
   4   8   0    4.00    0.44
   4   8   0    3.73    0.35
   4   8   1    7.74    0.56
   4   8   1    6.64    0.45
   4   8   1    7.12    0.55
  -4  -8  -1    7.26    0.56
  -4  -8  -2    0.01    0.22
   4   8   2   -0.22    0.17
   4   8   2   -0.06    0.09
  -4  -8  -2    0.09    0.07
   4   8   3   22.41    0.83
   4   8   3   23.45    0.98
  -4  -8  -3   22.59    0.69
   4   8   3   23.57    0.94
  -4  -8  -3   24.20    0.96
   4   8   4   12.22    0.73
   4   8   4   11.59    0.60
  -4  -8  -4   12.19    0.55
   4   8   4   13.50    0.69
  -4  -8  -4   12.80    0.68
   4   8   5   10.86    0.70
  -4  -8  -5   10.95    0.56
  -4  -8  -5   11.25    0.63
   4   8   5   11.50    0.62
   4   8   6   12.08    0.63
   4   8   6   12.62    0.75
  -4  -8  -6   11.37    0.61
   4   8   6   13.57    0.64
   4   8   7    0.98    0.23
  -4  -8  -7    1.59    0.26
   4   8   7    1.38    0.21
   4   8   7    1.20    0.22
   4   8   8   30.55    1.19
   4   8   8   31.44    1.05
  -4  -8  -8   33.29    0.86
  -4  -8  -8   33.09    1.16
   4   8   8   31.30    0.87
   4   8   9   23.99    1.07
   4   8   9   24.04    0.96
  -4  -8  -9   25.39    0.83
  -4  -8  -9   24.74    1.07
   4   8  10    0.09    0.15
  -4  -8 -10   -0.10    0.10
  -4  -8 -10    0.02    0.17
   4   8  10    0.15    0.15
   4   8  11    1.85    0.31
  -4  -8 -11    2.02    0.28
  -4  -8 -11    2.94    0.42
   4   8  11    2.05    0.34
   4   8  12    7.31    0.61
  -4  -8 -12    8.84    0.61
   4   8  12    8.77    0.65
  -4  -8 -12    8.00    0.72
  -4  -8 -13    0.21    0.14
  -4  -8 -13    0.04    0.19
   4   8  13    0.01    0.12
  -4  -8 -14    7.14    0.62
   4   8  14    7.04    0.63
  -4  -8 -14    7.52    0.79
  -4  -8 -15   -0.06    0.16
  -4  -8 -15   -0.29    0.25
   4   8  15    0.10    0.17
  -4  -8 -16    0.03    0.15
   4   9  -8    0.35    0.21
   4   9  -7    2.58    0.45
  -4  -9   7    2.89    0.50
  -4  -9   6    1.89    0.37
   4   9  -6    2.50    0.43
  -4  -9   6    2.43    0.47
  -4  -9   5    0.45    0.20
   4   9  -5    0.52    0.19
   4   9  -5    0.03    0.14
  -4  -9   5    0.37    0.24
   4   9  -4    7.38    0.58
   4   9  -4    9.07    0.74
  -4  -9   4    9.47    0.76
  -4  -9   3    0.92    0.28
   4   9  -3    0.55    0.18
   4   9  -3    0.61    0.23
   4   9  -3    0.72    0.19
  -4  -9   2    4.01    0.48
   4   9  -2    3.62    0.40
   4   9  -2    2.90    0.34
   4   9  -2    3.36    0.44
  -4  -9   1    4.38    0.48
   4   9  -1    4.15    0.43
   4   9  -1    3.57    0.36
   4   9  -1    4.22    0.47
  -4  -9   0    3.58    0.43
   4   9   0    3.53    0.36
   4   9   0    3.69    0.42
   4   9   0    2.87    0.40
   4   9   1    5.83    0.52
   4   9   1    6.25    0.54
  -4  -9  -1    6.04    0.54
   4   9   1    5.65    0.44
  -4  -9  -2    0.94    0.24
   4   9   2    0.86    0.19
   4   9   2    0.61    0.19
   4   9   2    0.67    0.21
  -4  -9  -3    1.89    0.30
   4   9   3    1.58    0.28
   4   9   3    1.77    0.29
   4   9   3    1.79    0.26
   4   9   4   19.31    0.83
   4   9   4   20.45    0.97
  -4  -9  -4   20.28    0.71
  -4  -9  -4   18.69    0.89
   4   9   4   19.67    0.88
  -4  -9  -5    0.68    0.18
   4   9   5    1.22    0.22
   4   9   5    1.04    0.25
  -4  -9  -5    0.81    0.17
   4   9   6    3.10    0.40
  -4  -9  -6    3.56    0.35
   4   9   6    3.36    0.34
  -4  -9  -6    3.65    0.39
   4   9   7   12.64    0.79
   4   9   7   11.68    0.65
  -4  -9  -7   12.77    0.69
   4   9   7   12.49    0.62
   4   9   8   -0.03    0.16
  -4  -9  -8    0.06    0.13
   4   9   8    0.01    0.12
   4   9   8    0.08    0.07
   4   9   9   33.40    1.30
   4   9   9   32.89    1.14
  -4  -9  -9   33.92    1.25
   4   9  10   17.72    0.95
   4   9  10   16.74    0.85
  -4  -9 -10   17.38    0.94
   4   9  11    0.77    0.22
  -4  -9 -11    1.09    0.28
   4   9  11    1.03    0.24
   4   9  12   33.37    1.33
   4   9  12   32.54    1.26
  -4  -9 -12   34.02    1.46
   4   9  13    9.19    0.71
  -4  -9 -13    7.70    0.75
   4   9  14    9.60    0.75
  -4  -9 -14   10.01    0.90
   4   9  15   12.34    0.88
  -4  -9 -15   12.95    1.07
   4  10  -7    0.09    0.17
   4  10  -6    2.87    0.50
  -4 -10   6    2.78    0.49
   4  10  -5    0.02    0.16
  -4 -10   5    0.21    0.18
  -4 -10   5    0.12    0.23
  -4 -10   4    1.36    0.33
  -4 -10   4    0.52    0.23
   4  10  -4    0.72    0.21
   4  10  -4    0.70    0.27
  -4 -10   3    2.92    0.45
  -4 -10   3    2.82    0.43
   4  10  -3    2.69    0.36
   4  10  -3    3.10    0.39
   4  10  -3    2.49    0.42
  -4 -10   2    3.04    0.43
   4  10  -2    2.66    0.34
   4  10  -2    2.84    0.38
   4  10  -2    2.87    0.42
   4  10  -1    4.68    0.49
   4  10  -1    3.76    0.40
  -4 -10   1    4.63    0.52
   4  10  -1    3.79    0.47
   4  10   0    8.53    0.64
   4  10   0    8.03    0.66
   4  10   0    8.07    0.57
  -4 -10   0    9.08    0.71
  -4 -10  -1    1.08    0.27
   4  10   1    1.63    0.30
   4  10   1    1.58    0.30
   4  10   1    1.44    0.26
  -4 -10  -2    9.73    0.69
   4  10   2    9.89    0.70
   4  10   2   10.10    0.70
   4  10   2   10.57    0.65
   4  10   3   23.98    0.98
   4  10   3   26.63    1.14
   4  10   3   24.79    1.05
  -4 -10  -3   27.84    1.15
   4  10   4    7.54    0.56
   4  10   4    9.79    0.71
   4  10   4    9.34    0.64
  -4 -10  -4    9.52    0.67
   4  10   5   12.07    0.78
   4  10   5   12.34    0.72
  -4 -10  -5   12.63    0.61
   4  10   5   12.19    0.70
  -4 -10  -5   12.89    0.77
  -4 -10  -6    0.89    0.21
   4  10   6    0.83    0.23
  -4 -10  -6    0.86    0.18
   4  10   6    1.14    0.22
   4  10   7   12.36    0.81
  -4 -10  -7   14.33    0.74
   4  10   7   12.79    0.66
  -4 -10  -7   13.97    0.79
   4  10   8   32.27    1.31
   4  10   8   31.25    1.11
  -4 -10  -8   32.65    1.17
   4  10   8   30.51    0.96
   4  10   9    9.66    0.72
   4  10   9   10.83    0.67
  -4 -10  -9   10.87    0.72
   4  10  10   15.46    0.92
   4  10  10   13.62    0.78
  -4 -10 -10   15.41    0.90
   4  10  11    3.70    0.46
   4  10  11    3.72    0.43
  -4 -10 -11    3.85    0.49
   4  10  12    7.82    0.67
   4  10  12    8.41    0.66
  -4 -10 -12    9.52    0.78
   4  10  13   13.83    0.88
   4  10  13   13.97    0.87
  -4 -10 -13   14.64    1.01
  -4 -10 -14    0.48    0.28
   4  10  14    0.07    0.15
   4  10  15    4.84    0.57
  -4 -10 -15    4.22    0.61
  -4 -11   5    1.03    0.32
   4  11  -5    1.25    0.35
  -4 -11   5    1.49    0.37
  -4 -11   4    1.11    0.34
  -4 -11   4    1.79    0.38
   4  11  -4    1.61    0.36
  -4 -11   3    1.97    0.39
   4  11  -3    2.27    0.35
  -4 -11   3    2.12    0.38
   4  11  -3    2.71    0.45
   4  11  -2    6.03    0.58
  -4 -11   2    6.35    0.65
   4  11  -2    6.90    0.69
   4  11  -2    5.41    0.52
  -4 -11   2    6.86    0.66
   4  11  -1    1.02    0.28
  -4 -11   1    1.12    0.28
   4  11  -1    1.09    0.27
   4  11  -1    1.37    0.26
   4  11   0    5.44    0.57
  -4 -11   0    6.71    0.62
   4  11   0    5.41    0.49
   4  11   0    5.07    0.53
  -4 -11  -1    0.32    0.20
   4  11   1    0.25    0.17
   4  11   1    0.22    0.18
   4  11   1    0.16    0.10
  -4 -11  -2    0.72    0.23
   4  11   2    1.42    0.27
   4  11   2    1.37    0.31
   4  11   2    0.83    0.24
   4  11   3    6.21    0.54
   4  11   3    7.00    0.62
   4  11   3    5.79    0.55
  -4 -11  -3    6.74    0.61
  -4 -11  -4    2.10    0.35
   4  11   4    2.50    0.40
   4  11   4    2.90    0.37
   4  11   4    2.74    0.38
  -4 -11  -5    1.86    0.32
   4  11   5    1.82    0.34
   4  11   5    1.84    0.30
   4  11   5    1.70    0.29
  -4 -11  -6    0.67    0.24
   4  11   6    0.57    0.19
   4  11   6    0.49    0.12
  -4 -11  -7    0.38    0.18
   4  11   7    0.19    0.17
  -4 -11  -7    0.66    0.18
   4  11   7    0.47    0.15
   4  11   8    7.54    0.66
  -4 -11  -8    8.64    0.62
  -4 -11  -8    8.13    0.64
   4  11   9    2.18    0.37
  -4 -11  -9    2.72    0.38
   4  11   9    1.94    0.32
   4  11  10    0.32    0.17
  -4 -11 -10    0.59    0.22
   4  11  10    0.42    0.17
   4  11  11    0.32    0.18
  -4 -11 -11    0.35    0.18
   4  11  11    0.35    0.17
   4  11  12    0.89    0.25
  -4 -11 -12    2.05    0.39
   4  11  12    1.89    0.34
   4  11  13   10.14    0.79
   4  11  13   10.83    0.78
  -4 -11 -13   10.87    0.88
  -4 -11 -14    2.46    0.47
   4  11  14    1.55    0.33
   4  11  15    4.25    0.54
  -4 -11 -15    3.74    0.58
  -4 -12   5   -0.28    0.19
  -4 -12   4    0.58    0.27
  -4 -12   4    0.40    0.26
  -4 -12   3    5.13    0.65
  -4 -12   3    4.65    0.59
   4  12  -3    4.45    0.59
  -4 -12   2    2.33    0.46
   4  12  -2    2.23    0.35
  -4 -12   2    2.66    0.44
   4  12  -2    3.27    0.50
   4  12  -1    0.03    0.15
  -4 -12   1    0.17    0.19
   4  12  -1    0.03    0.12
  -4 -12   1    0.55    0.21
   4  12  -1    0.40    0.17
   4  12   0    5.56    0.57
   4  12   0    5.43    0.60
   4  12   0    4.92    0.50
  -4 -12   0    6.54    0.64
  -4 -12  -1    1.25    0.32
   4  12   1    1.54    0.32
   4  12   1    1.30    0.29
   4  12   1    0.88    0.23
  -4 -12  -2    0.05    0.15
   4  12   2   -0.02    0.10
   4  12   2   -0.11    0.15
   4  12   2   -0.08    0.19
   4  12   3    8.86    0.67
   4  12   3    9.70    0.75
   4  12   3    9.48    0.73
  -4 -12  -3   10.02    0.77
   4  12   4    4.76    0.50
   4  12   4    5.52    0.59
   4  12   4    5.00    0.53
  -4 -12  -4    5.34    0.57
   4  12   5    0.29    0.17
  -4 -12  -5    0.11    0.16
   4  12   5    0.17    0.14
   4  12   5    0.23    0.14
   4  12   6    6.49    0.63
  -4 -12  -6    5.53    0.56
   4  12   6    5.94    0.54
   4  12   7    5.93    0.61
   4  12   7    6.24    0.52
  -4 -12  -7    5.76    0.58
   4  12   8    6.26    0.63
  -4 -12  -8    6.29    0.60
  -4 -12  -8    6.90    0.56
   4  12   9    8.03    0.71
  -4 -12  -9    8.54    0.66
  -4 -12  -9    7.60    0.67
  -4 -12 -10    0.62    0.23
   4  12  10    0.64    0.23
  -4 -12 -10    0.97    0.26
   4  12  10    0.80    0.22
   4  12  11    7.93    0.71
   4  12  11    6.43    0.59
  -4 -12 -11    7.35    0.67
   4  12  12    8.62    0.75
   4  12  12    8.11    0.67
  -4 -12 -12    7.89    0.72
   4  12  13    1.70    0.33
   4  12  13    1.77    0.35
  -4 -12 -13    1.54    0.36
   4  12  14    7.31    0.69
  -4 -12 -14    7.38    0.76
   4  12  15    0.16    0.12
  -4 -13   3    0.66    0.26
  -4 -13   2    0.09    0.16
   4  13  -2   -0.13    0.16
  -4 -13   1    0.82    0.33
  -4 -13   1    0.77    0.28
   4  13  -1    0.69    0.28
   4  13  -1    0.37    0.15
  -4 -13   0    0.28    0.23
  -4 -13   0    0.38    0.21
   4  13   0    0.03    0.15
   4  13   0   -0.16    0.10
   4  13   0   -0.05    0.13
  -4 -13  -1    0.99    0.30
  -4 -13  -1    0.48    0.20
   4  13   1    1.01    0.28
   4  13   1    0.60    0.20
   4  13   2    5.00    0.58
   4  13   2    4.68    0.57
  -4 -13  -2    5.78    0.61
   4  13   2    4.42    0.49
  -4 -13  -3    0.26    0.20
   4  13   3    0.56    0.20
   4  13   3    0.47    0.21
   4  13   4   13.56    0.87
   4  13   4   15.43    0.99
   4  13   4   14.54    0.92
  -4 -13  -4   16.28    1.00
   4  13   5    0.01    0.10
  -4 -13  -5    0.08    0.17
   4  13   5   -0.02    0.13
  -4 -13  -6    1.28    0.31
   4  13   6    0.77    0.25
   4  13   6    0.98    0.26
   4  13   6    1.04    0.26
   4  13   7   12.09    0.89
   4  13   7   11.09    0.73
  -4 -13  -7   12.15    0.86
  -4 -13  -8    0.77    0.23
   4  13   8    1.05    0.28
  -4 -13  -9    4.97    0.56
   4  13   9    4.33    0.55
  -4 -13 -10    0.31    0.17
   4  13  10    0.62    0.24
  -4 -13 -10    0.34    0.16
  -4 -13 -11    0.21    0.16
   4  13  11    0.25    0.17
   4  13  11    0.26    0.16
  -4 -13 -11    0.42    0.22
   4  13  12    4.31    0.56
   4  13  12    3.86    0.48
  -4 -13 -12    5.05    0.59
   4  13  13    0.21    0.16
  -4 -13 -13   -0.11    0.17
   4  13  13   -0.10    0.11
   4  13  14    0.10    0.13
  -4 -13 -14    0.56    0.26
  -4 -14   1    1.37    0.33
  -4 -14   0   -0.19    0.18
  -4 -14   0    0.15    0.18
   4  14   0    0.17    0.20
   4  14   0   -0.04    0.08
  -4 -14  -1    0.03    0.19
  -4 -14  -1    0.25    0.23
   4  14   1    0.52    0.17
   4  14   1    0.28    0.20
   4  14   1    0.10    0.16
  -4 -14  -2    0.43    0.20
  -4 -14  -2    0.65    0.25
   4  14   2    0.72    0.27
   4  14   2    0.58    0.20
   4  14   2    0.67    0.26
  -4 -14  -3    0.29    0.22
  -4 -14  -3   -0.07    0.23
   4  14   3   -0.04    0.15
   4  14   3   -0.08    0.12
   4  14   3   -0.07    0.13
  -4 -14  -4    4.36    0.59
   4  14   4    4.24    0.51
   4  14   4    4.23    0.55
  -4 -14  -4    4.68    0.58
   4  14   4    3.87    0.51
  -4 -14  -5    0.11    0.18
   4  14   5    0.62    0.25
   4  14   5    0.48    0.21
   4  14   5    0.26    0.16
  -4 -14  -6    0.18    0.18
   4  14   6    0.21    0.17
   4  14   6    0.18    0.14
   4  14   6    0.16    0.15
  -4 -14  -7    4.84    0.58
   4  14   7    4.87    0.61
   4  14   7    4.40    0.50
  -4 -14  -8    1.25    0.33
   4  14   8    0.68    0.26
   4  14   9    5.34    0.63
  -4 -14  -9    5.38    0.61
  -4 -14 -10    1.68    0.35
   4  14  10    2.04    0.40
  -4 -14 -11    0.55    0.23
   4  14  11    0.53    0.21
  -4 -14 -12    3.53    0.51
   4  14  12    3.32    0.50
  -4 -14 -12    2.62    0.43
  -4 -14 -13    1.04    0.29
   4  14  13    1.13    0.30
   4  14  13    1.19    0.31
  -4 -14 -13    0.88    0.27
   4  15   1    0.29    0.14
   4  15   2    0.36    0.16
  -4 -15  -3    0.43    0.23
   4  15   3    0.28    0.19
   4  15   3    0.49    0.19
  -4 -15  -4    0.38    0.22
  -4 -15  -4   -0.10    0.18
   4  15   4    0.52    0.21
   4  15   4    0.44    0.22
  -4 -15  -5    0.92    0.28
  -4 -15  -5    0.82    0.30
   4  15   5    0.88    0.30
   4  15   5    0.43    0.18
  -4 -15  -6    0.85    0.29
  -4 -15  -6    0.64    0.22
   4  15   6    1.59    0.38
   4  15   6    1.43    0.32
  -4 -15  -7    1.34    0.34
  -4 -15  -7    2.08    0.42
   4  15   7    2.37    0.44
   4  15   8    5.54    0.65
  -4 -15  -8    6.93    0.72
  -4 -15  -8    6.79    0.72
  -4 -15  -9   -0.14    0.16
  -4 -15  -9    0.29    0.19
   4  15   9    0.43    0.25
  -4 -15 -10    1.16    0.30
  -4 -15 -10    1.11    0.31
   4  15  10    1.03    0.30
   4  15  11    7.51    0.77
  -4 -15 -11    7.59    0.76
  -4 -15 -12    0.04    0.12
   4  15  12    0.03    0.13
   4  16   5    0.15    0.14
   4  16   6   -0.13    0.14
  -4 -16  -9   -0.49    0.23
  -4 -16 -10    0.68    0.25
  -5  13   8    0.18    0.13
  -5  13   8    0.03    0.14
   5 -13  -7    1.23    0.33
  -5  13   7    1.19    0.29
  -5  13   6    0.91    0.28
   5 -13  -6    0.60    0.27
  -5  12  10    1.66    0.38
   5 -12  -9    0.21    0.17
  -5  12   9    0.53    0.23
  -5  12   8    0.50    0.18
   5 -12  -8    0.40    0.21
  -5  12   8    0.98    0.28
   5 -12  -7    1.60    0.36
  -5  12   7    1.78    0.35
   5 -12  -7    1.68    0.38
  -5  12   7    1.68    0.34
   5 -12  -6    0.02    0.16
  -5  12   6   -0.06    0.13
   5 -12  -6   -0.13    0.22
  -5  12   6    0.06    0.13
   5 -12  -5    1.66    0.37
  -5  12   5    1.39    0.32
  -5  12   4    0.54    0.21
   5 -12  -4    0.38    0.23
   5 -12  -3   -0.18    0.23
  -5  12   3   -0.04    0.13
  -5  12   2    1.77    0.41
   5 -11 -11   -0.03    0.18
  -5  11  11   -0.05    0.13
   5 -11 -10    5.80    0.67
  -5  11  10    5.12    0.61
   5 -11  -9   11.61    0.92
  -5  11   9    9.77    0.82
   5 -11  -8    1.28    0.34
  -5  11   8    0.79    0.25
   5 -11  -7    7.84    0.74
  -5  11   7    7.90    0.67
  -5  11   7    7.74    0.69
   5 -11  -7    8.67    0.74
  -5  11   6    4.53    0.51
   5 -11  -6    5.45    0.61
  -5  11   6    4.12    0.50
   5 -11  -6    5.38    0.60
   5 -11  -5   -0.09    0.18
   5 -11  -5   -0.17    0.20
  -5  11   5   -0.06    0.12
  -5  11   5   -0.11    0.15
  -5  11   4    5.11    0.53
   5 -11  -4    5.51    0.64
  -5  11   4    5.23    0.58
   5 -11  -3    1.30    0.34
  -5  11   3    0.87    0.26
   5 -11  -2   -0.21    0.20
  -5  11   2   -0.17    0.15
   5 -11  -1    1.63    0.40
  -5  11   1    1.42    0.33
   5 -11   0    0.03    0.19
  -5  11   0    0.61    0.25
  -5  11  -1    0.27    0.16
   5 -10 -12   -0.34    0.27
  -5  10  12   -0.13    0.18
   5 -10 -11   -0.16    0.19
  -5  10  11    0.17    0.14
   5 -10 -10    0.63    0.24
  -5  10  10    0.76    0.26
   5 -10  -9    1.16    0.30
  -5  10   9    0.53    0.21
  -5  10   8    0.18    0.14
   5 -10  -8    0.33    0.17
   5 -10  -7    0.17    0.16
  -5  10   7   -0.23    0.17
  -5  10   7    0.01    0.11
   5 -10  -7   -0.06    0.15
  -5  10   6    2.32    0.37
   5 -10  -6    2.68    0.41
   5 -10  -6    3.06    0.45
  -5  10   6    2.04    0.33
  -5  10   5    2.81    0.40
   5 -10  -5    2.75    0.42
   5 -10  -5    2.71    0.40
  -5  10   5    2.60    0.38
   5 -10  -4    2.60    0.44
  -5  10   4    1.79    0.32
  -5  10   4    2.44    0.37
   5 -10  -3    1.53    0.34
  -5  10   3    1.14    0.26
  -5  10   3    1.26    0.28
  -5  10   2    1.56    0.30
  -5  10   2    1.17    0.28
   5 -10  -2    1.33    0.34
   5 -10  -1    0.60    0.26
  -5  10   1    0.76    0.24
  -5  10   0    2.40    0.42
   5 -10   0    3.39    0.51
  -5  10  -1    0.98    0.29
   5 -10   1    0.51    0.27
   5 -10   2   -0.29    0.24
  -5  10  -2   -0.09    0.10
  -5  10  -3   -0.18    0.18
   5  -9 -13    1.86    0.41
  -5   9  13    0.93    0.33
   5  -9 -12    0.06    0.17
  -5   9  12    0.11    0.17
   5  -9 -11    0.64    0.26
  -5   9  11    0.91    0.27
   5  -9 -10    1.95    0.37
  -5   9  10    1.68    0.38
   5  -9  -9    1.86    0.37
  -5   9   9    2.22    0.40
  -5   9   8    0.38    0.19
   5  -9  -8    0.96    0.26
   5  -9  -7   -0.02    0.13
   5  -9  -7    0.07    0.14
  -5   9   7    0.17    0.15
  -5   9   7    0.24    0.14
  -5   9   6    4.71    0.47
   5  -9  -6    5.25    0.56
  -5   9   6    5.15    0.53
   5  -9  -6    4.50    0.49
  -5   9   5    3.55    0.41
   5  -9  -5    3.75    0.46
  -5   9   5    3.70    0.45
   5  -9  -5    4.43    0.49
  -5   9   4    8.37    0.64
   5  -9  -4    9.17    0.72
  -5   9   4    9.80    0.69
  -5   9   3   10.53    0.71
  -5   9   3    8.87    0.67
   5  -9  -3    9.73    0.75
   5  -9  -2    4.43    0.53
  -5   9   2    4.58    0.47
  -5   9   2    3.49    0.45
  -5   9   1    4.91    0.48
  -5   9   1    4.65    0.53
   5  -9  -1    5.29    0.59
  -5   9   0   16.52    1.01
   5  -9   0   17.00    1.05
   5  -9   1    0.40    0.23
  -5   9  -1    0.54    0.20
  -5   9  -2    8.54    0.78
   5  -9   2    8.56    0.78
   5  -9   3    4.14    0.57
  -5   9  -3    4.15    0.55
   5  -9   4    0.47    0.25
  -5   9  -4    0.61    0.25
   5  -8 -14   -0.35    0.23
  -5   8  14    0.09    0.17
   5  -8 -13   13.95    1.02
  -5   8  13   11.72    1.00
   5  -8 -12    7.76    0.74
  -5   8  12    6.31    0.70
   5  -8 -11   -0.17    0.21
  -5   8  11    0.07    0.16
   5  -8 -10   15.06    0.96
  -5   8  10   14.22    0.97
   5  -8  -9    7.05    0.64
  -5   8   9    6.54    0.64
  -5   8   8    3.69    0.48
   5  -8  -8    3.07    0.43
  -5   8   7    1.74    0.33
   5  -8  -7    1.92    0.33
   5  -8  -6    1.01    0.25
  -5   8   6    0.40    0.17
   5  -8  -6    0.62    0.23
  -5   8   6    0.44    0.15
  -5   8   5    5.32    0.46
   5  -8  -5    5.12    0.51
   5  -8  -5    5.77    0.53
  -5   8   5    5.04    0.51
   5  -8  -4    1.57    0.32
  -5   8   4    0.88    0.23
  -5   8   4    1.30    0.24
  -5   8   3    0.82    0.22
   5  -8  -3    1.16    0.29
  -5   8   3    1.32    0.26
   5  -8  -2    1.58    0.33
  -5   8   2    1.95    0.32
  -5   8   2    1.94    0.32
  -5   8   1    0.28    0.14
  -5   8   1    0.16    0.15
  -5   8   0    7.21    0.57
  -5   8   0    6.77    0.62
   5  -8   0    7.29    0.65
   5  -8   1    2.91    0.43
  -5   8  -1    3.33    0.39
  -5   8  -1    3.22    0.45
   5  -8   2   -0.20    0.22
  -5   8  -2    0.03    0.11
   5  -8   3    1.66    0.37
  -5   8  -3    2.38    0.42
   5  -8   4    3.37    0.52
  -5   8  -4    3.74    0.54
   5  -8   5   -0.24    0.24
  -5   8  -5   -0.05    0.12
   5  -8   6    0.59    0.26
  -5   8  -6    0.29    0.18
   5  -7 -14    0.12    0.20
   5  -7 -14    0.58    0.24
  -5   7  14    0.66    0.29
   5  -7 -13    3.21    0.50
  -5   7  13    2.77    0.50
   5  -7 -12    0.97    0.29
  -5   7  12    0.87    0.31
   5  -7 -11    2.10    0.38
  -5   7  11    1.79    0.38
   5  -7 -10    0.79    0.23
  -5   7  10    0.81    0.27
   5  -7  -9    5.22    0.53
  -5   7   9    5.80    0.60
   5  -7  -8    5.14    0.52
  -5   7   8    4.50    0.52
  -5   7   7    0.02    0.14
   5  -7  -7    0.18    0.17
   5  -7  -7    0.20    0.15
   5  -7  -6   10.64    0.70
  -5   7   6   11.15    0.62
  -5   7   6   10.63    0.73
   5  -7  -6   11.81    0.69
   5  -7  -5    0.07    0.13
  -5   7   5    0.42    0.25
   5  -7  -5    0.40    0.16
  -5   7   5    0.33    0.13
   5  -7  -4    3.29    0.40
  -5   7   4    2.80    0.37
  -5   7   4    2.40    0.30
   5  -7  -4    2.60    0.35
  -5   7   3    0.83    0.21
  -5   7   3    0.81    0.19
   5  -7  -3    0.92    0.24
   5  -7  -2    0.23    0.17
  -5   7   2    0.07    0.11
  -5   7   2    0.09    0.10
   5  -7  -1    1.44    0.30
  -5   7   1    1.97    0.31
  -5   7   1    2.01    0.31
   5  -7   0    2.02    0.35
  -5   7   0    1.74    0.31
  -5   7   0    1.41    0.26
   5  -7   1    0.61    0.24
  -5   7  -1    0.67    0.20
  -5   7  -1    0.87    0.24
   5  -7   2    0.10    0.17
  -5   7  -2    0.25    0.16
  -5   7  -2   -0.09    0.14
   5  -7   3    2.81    0.44
  -5   7  -3    3.07    0.45
  -5   7  -4    8.10    0.74
   5  -7   4    8.98    0.75
   5  -7   5    0.12    0.18
  -5   7  -5    0.13    0.17
   5  -7   6    3.84    0.54
  -5   7  -6    4.04    0.57
   5  -7   7    2.65    0.46
  -5   7  -7    3.41    0.55
   5  -7   8    0.06    0.14
  -5   6  14    3.22    0.55
   5  -6 -14    3.77    0.55
   5  -6 -14    4.46    0.67
   5  -6 -13    0.54    0.22
  -5   6  13    0.67    0.28
   5  -6 -12    3.88    0.51
  -5   6  12    3.47    0.52
   5  -6 -11    5.65    0.58
  -5   6  11    6.21    0.66
   5  -6 -10    0.17    0.17
  -5   6  10   -0.16    0.20
   5  -6  -9   28.30    1.18
  -5   6   9   30.05    1.34
   5  -6  -8    0.19    0.16
  -5   6   8    0.65    0.20
  -5   6   7    0.10    0.17
   5  -6  -7    0.12    0.10
   5  -6  -7    0.22    0.17
   5  -6  -6   52.82    1.48
  -5   6   6   53.93    1.59
   5  -6  -6   54.81    1.38
  -5   6   5    2.68    0.37
  -5   6   5    2.52    0.28
   5  -6  -5    2.42    0.32
   5  -6  -5    3.04    0.35
  -5   6   4   34.29    1.00
   5  -6  -4   34.77    1.15
   5  -6  -4   34.99    1.16
  -5   6   4   32.34    1.18
  -5   6   3   12.64    0.74
  -5   6   3   12.60    0.63
   5  -6  -3   12.46    0.72
   5  -6  -2    1.66    0.30
  -5   6   2    1.82    0.30
  -5   6   2    1.42    0.23
  -5   6   1   35.08    1.15
  -5   6   1   34.78    1.19
   5  -6  -1   35.61    1.26
  -5   6   0    8.03    0.58
  -5   6   0    7.12    0.55
   5  -6   0    8.05    0.62
  -5   6  -1    7.74    0.61
  -5   6  -1    8.16    0.59
   5  -6   1    8.87    0.67
  -5   6  -2    8.67    0.67
  -5   6  -2    9.21    0.62
   5  -6   2    8.46    0.67
   5  -6   3    0.09    0.17
  -5   6  -3    0.24    0.16
  -5   6  -3    0.35    0.14
  -5   6  -3    0.16    0.13
  -5   6  -4    6.56    0.57
  -5   6  -4    6.79    0.64
  -5   6  -4    7.84    0.59
   5  -6   4    7.46    0.66
   5  -6   5    1.29    0.32
  -5   6  -5    1.07    0.28
  -5   6  -5    1.66    0.32
   5  -6   6    4.29    0.53
  -5   6  -6    4.75    0.59
  -5   6  -7    8.19    0.80
   5  -6   7    7.41    0.70
   5  -6   8    1.59    0.37
  -5   6  -8    1.32    0.35
  -5   5  15    0.79    0.28
   5  -5 -14    5.37    0.67
   5  -5 -14    4.51    0.65
  -5   5  14    5.35    0.67
   5  -5 -13    5.04    0.60
   5  -5 -13    4.23    0.63
  -5   5  13    4.33    0.60
   5  -5 -12    0.48    0.22
  -5   5  12    0.73    0.26
   5  -5 -11    8.54    0.71
  -5   5  11    7.65    0.73
   5  -5 -10    4.21    0.48
  -5   5  10    4.81    0.56
   5  -5  -9   21.82    1.02
  -5   5   9   21.61    1.12
   5  -5  -8   35.95    1.24
  -5   5   8   37.44    1.41
   5  -5  -7    6.10    0.50
  -5   5   7    6.96    0.60
   5  -5  -7    6.90    0.45
   5  -5  -6   11.83    0.67
  -5   5   6   11.51    0.74
   5  -5  -6   11.81    0.61
   5  -5  -5   28.62    1.01
  -5   5   5   28.08    0.83
  -5   5   5   26.12    1.08
   5  -5  -5   28.56    0.96
  -5   5   4    1.92    0.22
  -5   5   4    1.78    0.29
   5  -5  -4    1.74    0.26
   5  -5  -4    2.03    0.29
   5  -5  -3    4.81    0.41
  -5   5   3    4.34    0.43
   5  -5  -3    4.46    0.42
  -5   5   3    4.40    0.34
  -5   5   2   19.65    0.89
  -5   5   2   20.23    0.75
   5  -5  -2   19.66    0.87
  -5   5   1    0.34    0.13
  -5   5   1    0.04    0.13
   5  -5  -1    0.11    0.16
  -5   5   0    5.26    0.44
  -5   5   0    5.56    0.48
   5  -5   0    5.59    0.50
   5  -5   1   -0.22    0.23
  -5   5  -1    0.06    0.12
  -5   5  -1    0.01    0.11
   5  -5   2    0.40    0.21
  -5   5  -2    0.39    0.17
  -5   5  -2    0.37    0.16
  -5   5  -2    0.14    0.16
   5  -5   3    1.11    0.28
  -5   5  -3    0.71    0.20
  -5   5  -3    0.52    0.20
   5  -5   4    0.14    0.17
  -5   5  -4    0.24    0.17
  -5   5  -4    0.11    0.14
   5  -5   5   -0.19    0.19
  -5   5  -5   -0.21    0.18
  -5   5  -5    0.18    0.14
  -5   5  -6    0.27    0.17
  -5   5  -6    0.13    0.15
   5  -5   6    0.02    0.14
   5  -5   7   -0.22    0.20
  -5   5  -7   -0.05    0.17
  -5   5  -7    0.10    0.16
  -5   5  -8    0.55    0.23
   5  -5   8    0.72    0.23
  -5   5  -9    0.13    0.20
  -5   5  -9    0.08    0.14
  -5   4  15    1.92    0.40
   5  -4 -14   -0.29    0.26
   5  -4 -14    0.37    0.21
  -5   4  14   -0.01    0.17
   5  -4 -13    0.64    0.28
   5  -4 -13    0.78    0.28
  -5   4  13    1.17    0.33
   5  -4 -12    1.29    0.32
  -5   4  12    1.00    0.27
   5  -4 -11   -0.30    0.23
  -5   4  11    0.18    0.15
   5  -4 -10    2.63    0.39
  -5   4  10    2.98    0.45
   5  -4  -9    2.27    0.35
  -5   4   9    2.40    0.39
   5  -4  -8    6.81    0.55
  -5   4   8    7.03    0.62
   5  -4  -7    7.99    0.56
  -5   4   7    7.66    0.61
   5  -4  -7    7.30    0.43
   5  -4  -6    1.54    0.23
  -5   4   6    1.23    0.27
   5  -4  -6    1.50    0.25
   5  -4  -5   30.37    0.99
  -5   4   5   30.60    1.14
   5  -4  -5   32.53    0.96
   5  -4  -4    0.06    0.14
  -5   4   4   -0.07    0.17
   5  -4  -4    0.02    0.10
  -5   4   4    0.00    0.05
   5  -4  -3   19.74    0.76
  -5   4   3   19.98    0.89
   5  -4  -3   19.90    0.81
  -5   4   3   21.65    0.67
  -5   4   2   17.52    0.63
  -5   4   2   17.38    0.82
   5  -4  -2   17.62    0.70
   5  -4  -2   17.60    0.78
  -5   4   1    4.59    0.35
  -5   4   1    4.39    0.42
   5  -4  -1    4.44    0.41
  -5   4   0   39.76    1.23
  -5   4   0   38.77    1.09
   5  -4   0   36.83    1.17
  -5   4  -1   14.12    0.76
  -5   4  -1   13.25    0.69
   5  -4   1   14.20    0.75
   5  -4   2    0.82    0.24
  -5   4  -2    0.99    0.22
  -5   4  -2    0.73    0.22
  -5   4  -3   32.88    1.19
  -5   4  -3   31.05    1.15
   5  -4   3   32.94    1.19
  -5   4  -4   12.89    0.78
  -5   4  -4   11.44    0.72
   5  -4   4   12.07    0.75
  -5   4  -5    6.37    0.59
  -5   4  -5    6.01    0.54
   5  -4   5    6.14    0.55
  -5   4  -6    8.28    0.69
  -5   4  -6    7.26    0.61
   5  -4   6    7.95    0.64
   5  -4   7    0.24    0.17
  -5   4  -7    0.11    0.15
  -5   4  -7    0.37    0.21
  -5   4  -7   -0.04    0.14
   5  -4   8    6.41    0.61
  -5   4  -8    7.34    0.69
  -5   4  -8    8.06    0.69
  -5   4  -9    1.55    0.34
  -5   4 -10    3.42    0.53
   5  -3 -14    1.38    0.38
   5  -3 -14    0.92    0.30
  -5   3  14    0.82    0.26
   5  -3 -13    2.56    0.46
   5  -3 -13    2.18    0.45
  -5   3  13    2.23    0.43
  -5   3  12    2.59    0.35
   5  -3 -12    3.15    0.47
   5  -3 -12    3.64    0.55
  -5   3  12    4.12    0.53
   5  -3 -11    8.20    0.69
  -5   3  11    8.28    0.72
  -5   3  11    9.17    0.60
   5  -3 -10    9.71    0.72
  -5   3  10   10.83    0.80
  -5   3  10   10.39    0.60
   5  -3  -9   14.06    0.81
  -5   3   9   14.06    0.87
  -5   3   9   15.71    0.67
   5  -3  -8    4.99    0.47
  -5   3   8    4.28    0.46
  -5   3   8    4.26    0.35
  -5   3   8    4.31    0.33
   5  -3  -8    4.13    0.36
  -5   3   7    2.49    0.35
   5  -3  -7    2.97    0.26
   5  -3  -7    3.12    0.36
  -5   3   7    3.00    0.27
  -5   3   7    3.15    0.25
   5  -3  -6   40.97    1.17
  -5   3   6   43.04    0.88
  -5   3   6   41.99    1.34
   5  -3  -6   41.22    0.98
   5  -3  -5   58.55    1.33
  -5   3   5   56.15    1.51
  -5   3   5   57.30    0.90
   5  -3  -5   55.28    1.19
   5  -3  -4   63.28    1.32
  -5   3   4   59.90    1.53
  -5   3   4   59.08    0.78
   5  -3  -4   62.60    1.30
   5  -3  -3    0.92    0.21
  -5   3   3    0.39    0.15
   5  -3  -3    0.62    0.14
  -5   3   3    0.79    0.11
  -5   3   3    0.71    0.08
  -5   3   2   55.28    1.43
   5  -3  -2   55.61    1.16
  -5   3   2   56.35    0.98
   5  -3  -2   52.58    1.26
   5  -3  -1   72.11    1.29
  -5   3   1   73.94    1.22
  -5   3   1   70.36    1.60
   5  -3  -1   71.75    1.49
  -5   3   0   33.52    1.12
  -5   3   0   33.88    0.92
   5  -3   0   33.69    1.05
  -5   3  -1   68.19    1.61
  -5   3  -1   66.15    1.41
   5  -3   1   65.29    1.51
   5  -3   2   13.91    0.43
  -5   3  -2   15.27    0.72
  -5   3  -2   13.91    0.75
   5  -3   2   15.49    0.76
  -5   3  -3   15.67    0.77
   5  -3   3   16.26    0.53
  -5   3  -3   16.10    0.82
   5  -3   3   15.79    0.78
  -5   3  -4   35.19    1.20
   5  -3   4   33.83    1.16
  -5   3  -4   33.74    1.21
   5  -3   4   33.02    0.84
   5  -3   5   -0.03    0.15
  -5   3  -5    0.17    0.19
   5  -3   5   -0.07    0.08
  -5   3  -6    3.02    0.41
   5  -3   6    3.93    0.35
  -5   3  -6    3.80    0.45
   5  -3   6    3.60    0.40
  -5   3  -7    4.16    0.50
  -5   3  -7    4.75    0.52
   5  -3   7    4.29    0.39
   5  -3   7    4.29    0.46
   5  -3   8    0.10    0.15
   5  -3   8    0.39    0.17
  -5   3  -8    0.37    0.20
  -5   3  -8    0.25    0.18
   5  -3   9    1.88    0.30
   5  -3   9    2.21    0.36
  -5   3  -9    2.49    0.42
  -5   3  -9    2.15    0.39
  -5   3 -10    0.47    0.26
  -5   3 -11    0.32    0.23
  -5   2  15    1.36    0.32
   5  -2 -14   10.47    0.94
   5  -2 -14   10.69    0.96
  -5   2  14    8.30    0.72
   5  -2 -13   -0.01    0.18
  -5   2  13   -0.06    0.13
   5  -2 -13   -0.21    0.23
   5  -2 -12    6.54    0.68
   5  -2 -12    5.91    0.67
  -5   2  12    5.66    0.60
  -5   2  12    5.40    0.52
   5  -2 -11   13.41    0.91
  -5   2  11   14.54    0.92
  -5   2  11   13.21    0.76
   5  -2 -10    1.28    0.29
  -5   2  10    1.13    0.23
  -5   2  10    1.17    0.23
  -5   2  10    1.74    0.31
   5  -2  -9   19.65    0.97
  -5   2   9   20.39    0.83
  -5   2   9   21.76    1.05
  -5   2   8    1.21    0.25
   5  -2  -8    1.41    0.27
   5  -2  -8    1.03    0.19
  -5   2   8    0.90    0.18
  -5   2   7    0.75    0.20
   5  -2  -7    0.99    0.23
   5  -2  -7    0.71    0.17
  -5   2   7    0.88    0.17
   5  -2  -6   15.67    0.72
  -5   2   6   15.18    0.80
   5  -2  -6   15.22    0.57
  -5   2   6   14.79    0.57
   5  -2  -5    8.41    0.50
   5  -2  -5    7.60    0.42
  -5   2   5    8.56    0.59
  -5   2   5    8.51    0.40
   5  -2  -4   13.38    0.58
   5  -2  -4   13.34    0.59
  -5   2   4   12.68    0.69
  -5   2   4   13.42    0.44
   5  -2  -3    1.94    0.26
  -5   2   3    2.00    0.28
   5  -2  -3    2.10    0.24
  -5   2   3    2.32    0.17
  -5   2   3    2.04    0.16
   5  -2  -2    0.20    0.15
  -5   2   2    0.05    0.05
  -5   2   2    0.01    0.14
   5  -2  -2    0.07    0.08
  -5   2   2    0.02    0.05
   5  -2  -1   23.65    0.69
   5  -2  -1   22.02    0.79
  -5   2   1   22.67    0.58
  -5   2   1   23.60    0.92
  -5   2   1   22.93    0.47
   5  -2   0    2.35    0.29
  -5   2   0    2.12    0.21
  -5   2   0    1.81    0.28
  -5   2   0    2.00    0.15
   5  -2   1   14.67    0.39
  -5   2  -1   14.89    0.60
  -5   2  -1   14.19    0.72
   5  -2   1   15.01    0.69
  -5   2  -1   14.25    0.38
   5  -2   2   12.37    0.41
  -5   2  -2   11.65    0.58
  -5   2  -2   12.82    0.71
   5  -2   2   11.96    0.64
   5  -2   3    6.51    0.34
  -5   2  -3    5.73    0.50
   5  -2   3    6.54    0.49
   5  -2   4    4.97    0.33
  -5   2  -4    4.62    0.47
   5  -2   4    4.53    0.43
   5  -2   5    1.49    0.28
   5  -2   5    1.25    0.19
  -5   2  -5    1.38    0.25
  -5   2  -5    1.46    0.30
   5  -2   6    0.25    0.16
   5  -2   6    0.25    0.12
  -5   2  -6    0.26    0.16
  -5   2  -6    0.24    0.21
  -5   2  -7    9.97    0.70
  -5   2  -7   11.03    0.77
   5  -2   7   10.79    0.60
   5  -2   7   10.31    0.67
  -5   2  -8    7.54    0.65
  -5   2  -8    6.97    0.64
   5  -2   8    7.08    0.53
   5  -2   8    7.37    0.58
   5  -2   9    2.32    0.33
  -5   2  -9    1.78    0.37
  -5   2  -9    2.76    0.45
   5  -2   9    2.25    0.34
   5  -2  10    1.32    0.27
  -5   2 -10    0.83    0.28
  -5   2 -10    1.69    0.36
   5  -2  11    0.28    0.16
  -5   2 -11    0.21    0.24
  -5   2 -11    0.33    0.23
   5  -2  12    1.68    0.33
  -5   1  14    3.63    0.51
   5  -1 -14    4.11    0.61
   5  -1 -13    0.31    0.24
  -5   1  13    0.48    0.20
   5  -1 -13    0.42    0.22
   5  -1 -12    2.81    0.47
  -5   1  12    2.11    0.35
   5  -1 -12    2.43    0.44
  -5   1  12    2.18    0.37
   5  -1 -11    0.51    0.22
  -5   1  11    0.72    0.22
   5  -1 -11    0.20    0.17
  -5   1  11    0.48    0.17
  -5   1  11    0.35    0.17
   5  -1 -10   -0.06    0.18
  -5   1  10   -0.03    0.14
  -5   1  10    0.15    0.13
   5  -1  -9   13.75    0.83
   5  -1  -9   12.65    0.68
  -5   1   9   11.94    0.67
  -5   1   9   13.28    0.80
   5  -1  -8    4.92    0.47
  -5   1   8    5.52    0.50
   5  -1  -8    5.61    0.44
  -5   1   8    5.39    0.43
  -5   1   7    0.32    0.14
   5  -1  -7    0.70    0.21
   5  -1  -7    0.52    0.14
  -5   1   7    0.57    0.15
   5  -1  -6    7.38    0.51
   5  -1  -6    7.36    0.35
  -5   1   6    7.00    0.52
  -5   1   6    7.48    0.43
   5  -1  -6    7.67    0.48
  -5   1   5   23.19    0.71
   5  -1  -5   24.53    0.84
  -5   1   5   21.48    0.89
   5  -1  -5   22.84    0.79
  -5   1   4    0.22    0.12
  -5   1   4    0.34    0.10
   5  -1  -4    0.25    0.11
   5  -1  -4    0.33    0.11
  -5   1   3    1.28    0.23
   5  -1  -3    1.27    0.18
  -5   1   3    1.30    0.16
   5  -1  -3    1.19    0.20
  -5   1   2    4.10    0.39
   5  -1  -2    4.08    0.28
  -5   1   2    4.20    0.18
  -5   1   2    4.06    0.26
   5  -1  -2    3.84    0.32
   5  -1  -1   23.40    0.64
  -5   1   1   21.91    0.84
  -5   1   1   24.79    0.48
  -5   1   1   24.11    0.61
   5  -1  -1   23.70    0.79
   5  -1   0   42.28    0.81
  -5   1   0   42.36    0.77
  -5   1   0   42.16    1.19
  -5   1   0   41.85    0.77
   5  -1   0   41.28    1.06
   5  -1   1    8.23    0.32
  -5   1  -1    8.41    0.40
  -5   1  -1    8.48    0.57
   5  -1   1    8.27    0.49
  -5   1  -1    8.89    0.34
   5  -1   2   44.21    0.80
  -5   1  -2   45.01    1.27
   5  -1   2   45.06    1.15
   5  -1   3   21.39    0.61
  -5   1  -3   22.26    0.93
   5  -1   3   21.82    0.83
   5  -1   4   84.82    1.66
   5  -1   4   83.43    1.31
  -5   1  -4   82.59    1.83
  -5   1  -5  106.48    1.98
   5  -1   5  104.26    1.58
  -5   1  -5  102.92    2.11
   5  -1   5  104.85    1.89
  -5   1  -6    9.25    0.63
   5  -1   6   10.18    0.54
   5  -1   6    9.97    0.61
  -5   1  -6    9.72    0.69
  -5   1  -7   39.15    1.32
  -5   1  -7   38.22    1.41
   5  -1   7   39.84    1.13
   5  -1   7   39.75    1.23
  -5   1  -8   37.16    1.35
  -5   1  -8   36.27    1.42
   5  -1   8   37.94    1.18
   5  -1   8   36.66    1.21
   5  -1   9    1.95    0.30
   5  -1   9    1.66    0.28
  -5   1  -9    1.40    0.30
  -5   1  -9    1.74    0.37
  -5   1 -10   12.97    0.90
  -5   1 -10   13.16    0.95
   5  -1  10   14.22    0.82
  -5   1 -11    4.23    0.55
   5  -1  11    4.77    0.51
  -5   1 -11    4.33    0.56
   5  -1  12    0.30    0.17
  -5   1 -12    0.06    0.16
  -5   1 -12    0.17    0.21
   5  -1  13    3.81    0.50
  -5   0  14    0.65    0.25
   5   0 -13    2.18    0.46
  -5   0  13    1.39    0.31
   5   0 -13    1.68    0.37
   5   0 -12    1.26    0.35
  -5   0  12    1.12    0.28
   5   0 -12    1.13    0.32
  -5   0  12    0.77    0.24
   5   0 -11    2.86    0.46
   5   0 -11    2.31    0.41
  -5   0  11    1.95    0.34
   5   0 -10   41.77    1.54
   5   0 -10   43.20    1.61
  -5   0  10   43.60    1.43
  -5   0  10   41.39    1.37
   5   0  -9    0.37    0.24
   5   0  -9    0.54    0.14
  -5   0   9    0.37    0.14
  -5   0   9   -0.03    0.15
  -5   0   8   21.19    0.88
   5   0  -8   22.81    1.03
  -5   0   8   23.51    0.99
   5   0  -8   22.76    0.92
   5   0  -7   25.83    1.02
  -5   0   7   23.25    0.87
  -5   0   7   22.62    0.93
   5   0  -7   25.22    0.93
   5   0  -6    0.50    0.15
  -5   0   6    0.96    0.20
   5   0  -6    0.57    0.17
   5   0  -6    0.43    0.09
  -5   0   6    0.91    0.20
   5   0  -5  157.54    2.17
   5   0  -5  153.71    1.62
  -5   0   5  156.20    2.32
   5   0  -5  162.71    2.15
  -5   0   5  153.68    1.95
   5   0  -4   10.04    0.52
   5   0  -4   10.28    0.44
   5   0  -4    9.87    0.53
  -5   0   4    9.64    0.57
  -5   0   4   10.26    0.48
   5   0  -3   28.10    0.78
   5   0  -3   27.84    0.80
  -5   0   3   28.27    0.76
  -5   0   3   27.65    0.94
   5   0  -2   92.06    1.48
   5   0  -2   91.93    1.31
  -5   0   2   91.57    1.34
  -5   0   2   89.47    1.68
  -5   0   1    0.26    0.10
   5   0  -1    0.23    0.07
  -5   0   1    0.29    0.03
  -5   0   1    0.08    0.16
   5   0  -1    0.06    0.13
   5   0   0   41.69    0.74
  -5   0   0   41.71    1.13
  -5   0   0   41.87    0.60
  -5   0   0   40.58    0.84
   5   0   0   41.07    1.03
   5   0   1    2.42    0.28
   5   0   1    2.59    0.17
   5   0   1    2.85    0.20
  -5   0  -1    2.73    0.20
  -5   0  -1    3.09    0.35
  -5   0  -1    2.76    0.21
   5   0   2    0.59    0.17
   5   0   2    0.53    0.08
  -5   0  -2    0.90    0.25
   5   0   2    0.66    0.11
   5   0   3   19.69    0.59
  -5   0  -3   19.85    0.87
   5   0   3   19.45    0.76
   5   0   4    4.23    0.39
   5   0   4    3.92    0.29
  -5   0  -4    4.37    0.47
  -5   0  -5   22.75    0.88
   5   0   5   22.91    0.74
  -5   0  -5   21.48    0.97
   5   0   5   22.23    0.85
   5   0   6    1.61    0.26
   5   0   6    1.61    0.23
  -5   0  -6    1.65    0.28
  -5   0  -6    1.24    0.29
   5   0   7    0.48    0.17
   5   0   7    0.37    0.14
  -5   0  -7    0.42    0.20
  -5   0  -7    0.33    0.22
  -5   0  -8   15.27    0.84
   5   0   8   16.05    0.75
  -5   0  -8   15.08    0.92
   5   0   8   15.09    0.76
  -5   0  -9    4.49    0.49
   5   0   9    5.53    0.48
   5   0   9    4.30    0.42
  -5   0  -9    4.44    0.53
   5   0   9    4.39    0.43
   5   0  10    2.43    0.34
  -5   0 -10    2.19    0.37
   5   0  10    2.30    0.33
  -5   0 -10    1.87    0.38
  -5   0 -11    6.68    0.66
  -5   0 -11    8.08    0.77
   5   0  11    7.83    0.63
  -5   0 -12    5.47    0.64
   5   0  12    5.02    0.55
  -5   0 -12    4.78    0.62
   5   0  13    3.48    0.48
  -5   0 -13    3.06    0.51
  -5   0 -13    3.31    0.54
   5   1 -13    1.78    0.45
  -5  -1  13    1.46    0.34
   5   1 -13    1.59    0.38
  -5  -1  13    1.81    0.39
   5   1 -12    1.81    0.44
   5   1 -12    1.39    0.34
  -5  -1  12    2.25    0.40
   5   1 -11    0.79    0.29
   5   1 -11    0.58    0.24
  -5  -1  11    0.47    0.17
   5   1 -10   16.99    1.02
   5   1 -10   18.28    1.04
  -5  -1  10   17.41    0.94
   5   1  -9    0.88    0.22
   5   1  -9    0.78    0.26
   5   1  -9    0.52    0.22
  -5  -1   9    0.61    0.17
  -5  -1   9    0.59    0.23
   5   1  -8    9.87    0.69
  -5  -1   8   10.48    0.63
   5   1  -8   10.02    0.64
  -5  -1   8   10.41    0.67
   5   1  -7    5.10    0.48
  -5  -1   7    5.86    0.46
   5   1  -7    6.20    0.49
  -5  -1   7    5.25    0.46
  -5  -1   6   -0.14    0.15
  -5  -1   6   -0.07    0.10
   5   1  -6    0.04    0.15
   5   1  -6   -0.08    0.13
   5   1  -5   41.22    1.15
   5   1  -5   41.36    0.84
  -5  -1   5   39.58    1.11
   5   1  -5   40.71    1.13
  -5  -1   5   39.71    1.08
  -5  -1   4    0.08    0.12
  -5  -1   4    0.01    0.12
   5   1  -4    0.02    0.12
   5   1  -4   -0.01    0.06
   5   1  -4    0.15    0.11
   5   1  -3    3.56    0.30
   5   1  -3    3.67    0.27
  -5  -1   3    3.76    0.35
   5   1  -3    3.53    0.33
  -5  -1   3    3.51    0.31
   5   1  -2   14.91    0.53
   5   1  -2   14.32    0.55
   5   1  -2   15.30    0.65
  -5  -1   2   15.44    0.61
  -5  -1   2   15.18    0.67
   5   1  -1    9.17    0.37
   5   1  -1    8.19    0.43
  -5  -1   1    9.16    0.50
  -5  -1   1    9.46    0.47
   5   1  -1    9.31    0.48
   5   1   0   11.99    0.38
   5   1   0   12.44    0.54
  -5  -1   0   12.54    0.60
  -5  -1   0   12.49    0.51
   5   1   0   12.63    0.56
  -5  -1  -1    0.76    0.12
   5   1   1    0.76    0.09
  -5  -1  -1    0.96    0.21
   5   1   1    0.70    0.17
   5   1   2   11.60    0.28
   5   1   2   12.21    0.46
   5   1   2   12.07    0.57
  -5  -1  -2   12.41    0.64
   5   1   3   18.07    0.32
   5   1   3   18.57    0.59
  -5  -1  -3   17.24    0.80
   5   1   3   18.18    0.72
   5   1   4   15.43    0.57
  -5  -1  -4   15.29    0.77
   5   1   4   15.04    0.66
   5   1   5    2.15    0.24
  -5  -1  -5    1.98    0.27
  -5  -1  -5    1.96    0.32
   5   1   5    2.21    0.27
  -5  -1  -6    2.40    0.31
   5   1   6    2.67    0.28
   5   1   6    2.99    0.34
  -5  -1  -6    2.57    0.38
   5   1   6    2.49    0.30
  -5  -1  -7    6.57    0.52
   5   1   7    7.39    0.51
   5   1   7    7.07    0.47
  -5  -1  -7    7.22    0.62
   5   1   7    6.15    0.46
  -5  -1  -8   13.77    0.76
   5   1   8   15.08    0.75
   5   1   8   14.44    0.71
  -5  -1  -8   13.34    0.86
   5   1   8   14.87    0.72
  -5  -1  -9   17.33    0.91
   5   1   9   19.31    0.87
   5   1   9   18.26    0.85
  -5  -1  -9   19.05    1.06
   5   1   9   18.04    0.81
   5   1  10    0.24    0.12
  -5  -1 -10    0.44    0.19
   5   1  10    0.59    0.18
  -5  -1 -10    0.40    0.20
  -5  -1 -11   10.61    0.80
   5   1  11   11.24    0.75
  -5  -1 -11   11.35    0.89
  -5  -1 -12   10.32    0.83
   5   1  12   10.93    0.78
  -5  -1 -12    9.58    0.86
   5   1  13    1.62    0.33
  -5  -1 -13    1.60    0.38
  -5  -1 -13    1.20    0.34
  -5  -1 -14    7.46    0.82
  -5  -2  13    0.95    0.31
   5   2 -13    1.37    0.35
   5   2 -12    1.23    0.36
   5   2 -12    0.49    0.25
  -5  -2  12    0.73    0.27
   5   2 -11    0.02    0.18
   5   2 -11    0.38    0.20
  -5  -2  11    0.22    0.20
   5   2 -10    1.35    0.36
   5   2 -10    1.24    0.30
  -5  -2  10    1.69    0.34
   5   2  -9    0.65    0.26
   5   2  -9    0.89    0.26
   5   2  -9    0.52    0.18
  -5  -2   9    0.32    0.15
   5   2  -8    0.62    0.24
   5   2  -8    0.15    0.14
   5   2  -8    0.12    0.10
  -5  -2   8    0.17    0.17
   5   2  -7    7.71    0.61
  -5  -2   7    7.73    0.58
  -5  -2   7    7.99    0.50
   5   2  -7    8.09    0.58
   5   2  -6    4.93    0.47
  -5  -2   6    5.30    0.40
   5   2  -6    4.99    0.44
  -5  -2   6    4.65    0.44
   5   2  -5    5.16    0.43
  -5  -2   5    4.91    0.43
  -5  -2   5    4.99    0.38
   5   2  -5    5.06    0.43
   5   2  -4   26.60    0.88
   5   2  -4   26.23    0.92
  -5  -2   4   26.52    0.85
  -5  -2   4   26.58    0.92
  -5  -2   3   23.79    0.80
   5   2  -3   22.65    0.75
   5   2  -3   23.12    0.68
   5   2  -3   22.04    0.81
  -5  -2   3   22.17    0.82
  -5  -2   2   11.37    0.56
   5   2  -2   12.50    0.51
   5   2  -2   12.44    0.51
   5   2  -2   12.46    0.59
  -5  -2   2   12.25    0.60
   5   2  -1  149.29    1.56
   5   2  -1  148.77    1.79
  -5  -2   1  146.04    1.89
   5   2  -1  149.70    1.97
  -5  -2   1  151.32    2.00
   5   2   0    3.47    0.21
   5   2   0    3.26    0.29
  -5  -2   0    3.18    0.31
   5   2   0    3.80    0.32
  -5  -2   0    2.98    0.28
   5   2   1   80.78    0.82
   5   2   1   81.84    1.40
  -5  -2  -1   82.48    1.50
  -5  -2  -1   83.86    1.34
   5   2   2  154.20    1.72
   5   2   2  155.65    1.97
  -5  -2  -2  155.68    2.16
   5   2   2  152.83    1.97
  -5  -2  -2  155.88    1.78
   5   2   3    0.33    0.15
  -5  -2  -3    0.11    0.18
   5   2   3    0.04    0.07
   5   2   3   -0.03    0.13
   5   2   4   94.38    1.43
   5   2   4   93.86    1.63
  -5  -2  -4   94.40    1.85
   5   2   4   98.42    1.65
  -5  -2  -5   16.41    0.69
   5   2   5   16.47    0.63
   5   2   5   16.72    0.72
  -5  -2  -5   16.91    0.83
   5   2   5   17.48    0.71
   5   2   6    1.19    0.21
  -5  -2  -6    1.62    0.25
   5   2   6    1.70    0.26
  -5  -2  -6    1.77    0.32
   5   2   6    1.45    0.21
  -5  -2  -7   54.08    1.37
   5   2   7   56.99    1.39
   5   2   7   57.98    1.34
  -5  -2  -7   56.73    1.63
   5   2   7   56.34    1.32
  -5  -2  -8    4.75    0.45
   5   2   8    4.85    0.42
   5   2   8    5.27    0.43
  -5  -2  -8    5.09    0.55
   5   2   8    5.16    0.43
  -5  -2  -9   24.52    1.04
   5   2   9   25.89    1.00
   5   2   9   26.41    1.00
  -5  -2  -9   27.13    1.25
   5   2   9   26.67    0.95
   5   2  10    2.65    0.35
  -5  -2 -10    2.52    0.37
   5   2  10    2.49    0.33
  -5  -2 -10    2.43    0.44
   5   2  11    1.97    0.33
  -5  -2 -11    1.76    0.34
  -5  -2 -11    1.89    0.40
  -5  -2 -12   10.77    0.83
   5   2  12   11.55    0.78
  -5  -2 -12   10.94    0.92
   5   2  13    1.83    0.34
  -5  -2 -13    2.16    0.41
  -5  -2 -13    1.75    0.40
  -5  -2 -14    8.16    0.80
   5   2  14    8.80    0.76
  -5  -2 -14    7.30    0.82
   5   3 -12    0.28    0.29
   5   3 -12    0.04    0.12
  -5  -3  12   -0.39    0.25
   5   3 -11    4.82    0.61
   5   3 -11    5.54    0.60
  -5  -3  11    4.74    0.60
   5   3 -10    5.32    0.62
   5   3 -10    6.04    0.60
  -5  -3  10    5.01    0.58
   5   3  -9    6.04    0.64
   5   3  -9    5.73    0.56
   5   3  -9    5.83    0.54
  -5  -3   9    6.38    0.62
   5   3  -8    6.68    0.62
   5   3  -8    8.00    0.62
   5   3  -8    6.88    0.57
  -5  -3   8    7.22    0.63
   5   3  -7    2.07    0.32
   5   3  -7    1.39    0.30
   5   3  -7    1.70    0.28
  -5  -3   7    1.38    0.29
   5   3  -6   42.10    1.33
   5   3  -6   43.51    1.36
  -5  -3   6   42.67    1.35
   5   3  -5   24.42    0.95
   5   3  -5   24.18    0.73
  -5  -3   5   24.71    0.98
  -5  -3   5   24.29    0.78
   5   3  -5   23.73    0.98
   5   3  -4   17.76    0.76
  -5  -3   4   18.05    0.66
   5   3  -4   17.95    0.83
  -5  -3   4   18.16    0.82
   5   3  -3   28.82    0.89
   5   3  -3   28.10    0.52
  -5  -3   3   28.92    0.84
   5   3  -3   29.62    1.01
  -5  -3   3   28.88    0.99
  -5  -3   2    0.57    0.19
   5   3  -2    0.20    0.03
  -5  -3   2    0.47    0.13
   5   3  -2    0.42    0.14
   5   3  -2    0.31    0.13
   5   3  -1   83.10    1.25
   5   3  -1   81.61    1.36
  -5  -3   1   83.39    1.36
   5   3  -1   83.59    1.54
  -5  -3   1   85.23    1.60
   5   3   0   16.11    0.49
   5   3   0   16.43    0.63
  -5  -3   0   16.90    0.64
   5   3   0   15.98    0.65
  -5  -3   0   15.49    0.66
  -5  -3  -1    0.02    0.10
   5   3   1    0.05    0.04
   5   3   1    0.03    0.10
  -5  -3  -1    0.18    0.15
   5   3   1    0.10    0.10
   5   3   2   23.99    0.72
   5   3   2   23.22    0.77
  -5  -3  -2   23.53    0.82
   5   3   2   22.99    0.75
  -5  -3  -2   24.45    0.76
   5   3   3    5.18    0.34
   5   3   3    5.26    0.39
  -5  -3  -3    5.47    0.43
   5   3   4   14.34    0.58
   5   3   4   14.19    0.64
  -5  -3  -4   13.96    0.70
  -5  -3  -5   12.53    0.58
   5   3   5   11.85    0.55
   5   3   5   11.88    0.60
  -5  -3  -5   12.11    0.68
  -5  -3  -6    9.37    0.53
   5   3   6    9.37    0.52
   5   3   6    9.33    0.55
  -5  -3  -6    9.58    0.66
  -5  -3  -7    6.16    0.45
   5   3   7    5.68    0.42
   5   3   7    6.27    0.46
  -5  -3  -7    6.26    0.56
  -5  -3  -8    9.59    0.60
   5   3   8    9.86    0.59
   5   3   8   10.39    0.60
  -5  -3  -8    9.53    0.72
   5   3   9    0.17    0.12
  -5  -3  -9    0.25    0.18
   5   3   9    0.17    0.11
  -5  -3  -9    0.43    0.29
   5   3  10    0.47    0.18
  -5  -3 -10    0.15    0.15
   5   3  10    0.39    0.13
  -5  -3 -10    0.52    0.26
   5   3  11    0.58    0.20
  -5  -3 -11    0.28    0.17
   5   3  11    0.50    0.17
  -5  -3 -11    0.76    0.30
   5   3  12    2.07    0.35
  -5  -3 -12    1.55    0.33
  -5  -3 -12    1.84    0.40
   5   3  13    2.58    0.40
  -5  -3 -13    2.65    0.45
  -5  -3 -13    3.02    0.53
   5   3  14    3.78    0.50
  -5  -3 -14    3.38    0.53
  -5  -3 -14    3.63    0.58
   5   4 -11    3.85    0.58
   5   4 -11    3.73    0.49
  -5  -4  11    4.85    0.63
   5   4 -10    0.88    0.25
  -5  -4  10    0.76    0.26
   5   4  -9    5.50    0.63
   5   4  -9    5.81    0.55
   5   4  -9    5.92    0.56
  -5  -4   9    6.02    0.63
   5   4  -8    0.11    0.19
   5   4  -8    0.42    0.17
   5   4  -8    0.31    0.16
  -5  -4   8    0.21    0.18
   5   4  -7    0.17    0.18
   5   4  -7    0.07    0.11
   5   4  -7    0.17    0.16
  -5  -4   7    0.43    0.25
  -5  -4   6    1.46    0.30
   5   4  -6    1.44    0.30
   5   4  -6    1.50    0.25
   5   4  -6    1.75    0.29
   5   4  -5   -0.01    0.16
  -5  -4   5    0.22    0.19
   5   4  -5   -0.07    0.15
   5   4  -4   20.90    0.88
   5   4  -4   20.64    0.74
  -5  -4   4   19.49    0.64
   5   4  -4   20.84    0.93
  -5  -4   4   19.67    0.90
   5   4  -3    6.86    0.48
  -5  -4   3    6.46    0.51
   5   4  -3    6.11    0.41
   5   4  -3    6.63    0.31
  -5  -4   3    6.32    0.37
   5   4  -3    6.31    0.51
  -5  -4   2    2.93    0.38
   5   4  -2    2.28    0.27
   5   4  -2    2.22    0.16
  -5  -4   2    2.30    0.24
   5   4  -2    2.36    0.32
   5   4  -1   29.49    0.49
   5   4  -1   32.68    0.86
  -5  -4   1   34.02    1.07
  -5  -4   1   32.38    0.79
   5   4  -1   33.99    1.06
   5   4   0   10.47    0.44
  -5  -4   0   10.75    0.48
   5   4   0   10.01    0.55
  -5  -4   0   11.02    0.59
   5   4   1    0.28    0.09
  -5  -4  -1    0.19    0.12
  -5  -4  -1    0.33    0.14
   5   4   1    0.30    0.14
   5   4   2   16.72    0.68
  -5  -4  -2   18.00    0.70
   5   4   2   17.70    0.68
  -5  -4  -2   18.37    0.70
   5   4   3  100.55    1.57
   5   4   3   97.77    1.66
  -5  -4  -3  101.19    1.72
  -5  -4  -3  102.39    1.63
   5   4   3   97.54    1.55
   5   4   4   11.54    0.54
   5   4   4   10.99    0.57
  -5  -4  -4   11.27    0.61
   5   4   4   10.94    0.51
  -5  -4  -5   42.05    0.99
   5   4   5   40.92    1.04
   5   4   5   43.25    1.15
  -5  -4  -5   40.34    1.21
   5   4   5   39.78    0.96
  -5  -4  -6   18.69    0.71
   5   4   6   18.09    0.72
   5   4   6   18.30    0.76
  -5  -4  -6   20.35    0.91
   5   4   6   19.16    0.66
  -5  -4  -7    3.92    0.36
   5   4   7    4.59    0.39
   5   4   7    3.92    0.37
  -5  -4  -7    3.65    0.43
   5   4   7    4.58    0.32
  -5  -4  -8   75.05    1.60
   5   4   8   75.01    1.63
   5   4   8   74.94    1.61
  -5  -4  -8   74.02    1.91
   5   4   8   76.09    1.30
  -5  -4  -9   10.72    0.65
   5   4   9    9.30    0.60
   5   4   9   10.73    0.64
  -5  -4  -9   11.12    0.79
  -5  -4 -10    6.03    0.52
   5   4  10    6.93    0.54
  -5  -4 -10    6.78    0.65
  -5  -4 -11   27.24    1.15
   5   4  11   28.22    1.13
  -5  -4 -11   27.20    1.35
   5   4  12    0.23    0.18
  -5  -4 -12    0.19    0.17
  -5  -4 -12    0.25    0.22
  -5  -4 -13   13.77    0.92
   5   4  13   14.05    0.88
  -5  -4 -13   13.03    1.04
   5   4  14    2.40    0.40
  -5  -4 -14    2.73    0.45
  -5  -4 -14    2.71    0.52
  -5  -4 -15    0.35    0.27
   5   5 -10    1.78    0.41
  -5  -5  10    1.71    0.42
   5   5  -9    0.10    0.24
   5   5  -9   -0.02    0.16
  -5  -5   9   -0.08    0.18
   5   5  -8   -0.01    0.18
   5   5  -8    0.24    0.12
   5   5  -8    0.39    0.17
  -5  -5   8    0.46    0.24
   5   5  -7   24.08    1.18
   5   5  -7   25.52    1.02
   5   5  -7   25.87    1.16
  -5  -5   7   24.10    1.18
  -5  -5   6    1.92    0.37
   5   5  -6    1.22    0.31
   5   5  -6    1.52    0.26
   5   5  -6    1.28    0.26
  -5  -5   5    3.66    0.46
   5   5  -5    3.62    0.42
   5   5  -5    3.85    0.36
   5   5  -5    4.15    0.44
   5   5  -4   15.01    0.79
   5   5  -4   15.10    0.66
   5   5  -4   15.55    0.67
   5   5  -4   15.29    0.83
  -5  -5   4   15.25    0.83
  -5  -5   3    2.67    0.37
   5   5  -3    3.05    0.35
   5   5  -3    2.70    0.29
   5   5  -3    2.65    0.23
   5   5  -3    2.72    0.37
   5   5  -2   44.83    1.17
   5   5  -2   46.03    1.18
   5   5  -2   44.86    0.84
  -5  -5   2   42.35    0.90
   5   5  -2   43.01    1.33
  -5  -5   2   46.39    1.35
   5   5  -1    9.32    0.50
   5   5  -1    9.62    0.61
  -5  -5   1   10.37    0.64
   5   5  -1    8.83    0.36
   5   5   0   14.65    0.57
   5   5   0   13.33    0.41
   5   5   0   13.18    0.69
  -5  -5   0   13.60    0.51
  -5  -5   0   13.13    0.68
   5   5   1   24.59    0.90
  -5  -5  -1   25.00    0.73
  -5  -5  -1   23.28    0.88
  -5  -5  -2    0.96    0.19
  -5  -5  -2    1.38    0.21
   5   5   2    1.31    0.20
  -5  -5  -3  148.57    2.03
   5   5   3  146.51    2.02
  -5  -5  -3  148.54    2.09
   5   5   4   12.57    0.59
  -5  -5  -4   13.21    0.65
   5   5   4   12.57    0.57
   5   5   5   13.67    0.62
  -5  -5  -5   13.05    0.53
  -5  -5  -5   12.90    0.68
   5   5   5   12.91    0.57
  -5  -5  -6   63.03    1.24
   5   5   6   59.84    1.34
  -5  -5  -6   63.99    1.58
   5   5   6   61.33    1.21
  -5  -5  -7   33.77    0.97
   5   5   7   34.08    1.05
  -5  -5  -7   33.11    1.19
   5   5   7   32.55    0.87
  -5  -5  -8   52.35    1.28
   5   5   8   51.62    1.35
  -5  -5  -8   52.58    1.59
   5   5   8   51.81    1.08
  -5  -5  -9   14.36    0.72
   5   5   9   15.92    0.78
  -5  -5  -9   15.05    0.91
  -5  -5 -10    2.89    0.36
  -5  -5 -10    2.48    0.42
   5   5  10    2.08    0.32
  -5  -5 -11   16.05    0.85
   5   5  11   16.41    0.87
  -5  -5 -11   15.89    1.02
  -5  -5 -12   14.04    0.85
   5   5  12   13.69    0.84
  -5  -5 -12   14.10    1.01
   5   5  13   -0.20    0.22
  -5  -5 -13    0.10    0.16
  -5  -5 -13    0.34    0.28
  -5  -5 -14    5.07    0.58
   5   5  14    5.20    0.57
  -5  -5 -14    5.12    0.70
   5   5  15    0.37    0.17
  -5  -5 -15    0.99    0.29
  -5  -5 -15    0.56    0.30
   5   6 -10    0.30    0.23
  -5  -6  10    0.79    0.31
   5   6  -9    6.69    0.72
   5   6  -9    4.99    0.56
  -5  -6   9    5.30    0.65
   5   6  -8    0.06    0.20
   5   6  -8    0.35    0.20
  -5  -6   8    0.58    0.30
   5   6  -7    9.79    0.79
   5   6  -7    9.39    0.73
  -5  -6   7    9.64    0.80
  -5  -6   6    2.83    0.45
   5   6  -6    2.19    0.37
   5   6  -6    2.90    0.41
  -5  -6   5    4.21    0.51
   5   6  -5    3.79    0.45
   5   6  -5    4.50    0.49
   5   6  -4   11.44    0.72
   5   6  -4   12.20    0.62
   5   6  -4   11.97    0.57
   5   6  -4   11.25    0.74
  -5  -6   4   11.25    0.76
   5   6  -3    5.49    0.48
   5   6  -3    5.20    0.42
   5   6  -3    5.45    0.36
   5   6  -3    5.54    0.51
  -5  -6   3    5.40    0.51
   5   6  -2   11.66    0.65
   5   6  -2   11.44    0.62
   5   6  -2   10.98    0.48
   5   6  -2   11.86    0.73
  -5  -6   2   12.29    0.75
   5   6  -1   12.20    0.65
  -5  -6   1   11.30    0.45
   5   6  -1   11.69    0.71
  -5  -6   1   10.94    0.71
   5   6  -1   11.70    0.48
   5   6   0    2.56    0.22
  -5  -6   0    2.48    0.33
   5   6   0    3.05    0.33
  -5  -6   0    2.98    0.23
   5   6   0    2.77    0.35
  -5  -6  -1    2.22    0.30
   5   6   1    2.15    0.20
  -5  -6  -1    2.41    0.23
   5   6   1    2.08    0.31
  -5  -6  -2   10.42    0.50
   5   6   2   10.16    0.61
  -5  -6  -2   10.30    0.62
  -5  -6  -3   19.83    0.73
   5   6   3   20.53    0.82
  -5  -6  -3   21.78    0.85
  -5  -6  -4    2.54    0.30
  -5  -6  -4    3.12    0.32
   5   6   4    2.82    0.31
   5   6   4    2.65    0.31
   5   6   5    0.49    0.14
   5   6   5   -0.01    0.12
  -5  -6  -5    0.32    0.15
   5   6   6    5.28    0.42
  -5  -6  -6    5.64    0.36
  -5  -6  -6    5.52    0.47
   5   6   6    5.01    0.38
  -5  -6  -7   21.39    0.74
   5   6   7   20.10    0.82
  -5  -6  -7   20.96    0.94
   5   6   7   20.60    0.73
  -5  -6  -8   21.51    0.80
   5   6   8   20.49    0.86
  -5  -6  -8   20.76    0.98
   5   6   8   20.11    0.70
  -5  -6  -9   15.53    0.72
   5   6   9   14.23    0.75
  -5  -6  -9   14.75    0.87
  -5  -6 -10    1.81    0.28
  -5  -6 -10    1.33    0.31
   5   6  10    1.43    0.27
  -5  -6 -11    1.78    0.30
  -5  -6 -11    1.67    0.37
   5   6  11    1.09    0.24
  -5  -6 -12   12.83    0.80
   5   6  12   13.73    0.83
  -5  -6 -12   13.90    0.99
  -5  -6 -13   -0.05    0.13
  -5  -6 -13    0.33    0.27
   5   6  13    0.30    0.18
  -5  -6 -14    5.51    0.59
   5   6  14    5.98    0.61
  -5  -6 -14    6.00    0.76
  -5  -6 -15    3.54    0.51
   5   6  15    4.24    0.54
  -5  -6 -15    3.20    0.59
   5   7  -9    0.67    0.24
  -5  -7   9    0.51    0.32
   5   7  -8    0.48    0.23
   5   7  -8    0.17    0.20
  -5  -7   8    0.32    0.27
   5   7  -7    2.57    0.43
   5   7  -7    2.51    0.40
  -5  -7   7    2.89    0.50
   5   7  -6    2.48    0.38
  -5  -7   6    2.31    0.41
   5   7  -6    2.96    0.42
   5   7  -5    1.48    0.31
  -5  -7   5    2.00    0.38
   5   7  -5    2.05    0.35
   5   7  -4    6.57    0.59
  -5  -7   4    6.51    0.62
   5   7  -3    6.32    0.48
   5   7  -3    6.17    0.57
  -5  -7   3    5.38    0.54
  -5  -7   2    0.11    0.17
   5   7  -2    0.20    0.09
   5   7  -2   -0.04    0.11
   5   7  -2   -0.02    0.17
   5   7  -1   18.33    0.83
   5   7  -1   18.95    0.92
   5   7  -1   18.31    0.66
  -5  -7   1   19.23    0.94
   5   7   0    0.08    0.06
  -5  -7   0    0.19    0.17
   5   7   0    0.10    0.14
   5   7   0   -0.07    0.12
  -5  -7  -1    0.55    0.17
   5   7   1    0.48    0.15
  -5  -7  -1    0.53    0.11
   5   7   1    0.58    0.19
   5   7   1    0.43    0.11
   5   7   2   25.98    0.78
   5   7   2   26.18    1.02
  -5  -7  -2   26.81    1.04
  -5  -7  -2   25.65    0.75
   5   7   2   26.31    1.02
   5   7   3    3.45    0.39
  -5  -7  -3    2.90    0.28
   5   7   3    3.32    0.37
  -5  -7  -3    3.40    0.40
  -5  -7  -4   22.40    0.81
   5   7   4   21.23    0.87
  -5  -7  -4   22.96    0.92
  -5  -7  -5    1.60    0.24
  -5  -7  -5    1.87    0.28
   5   7   5    2.01    0.29
   5   7   5    1.39    0.23
  -5  -7  -6    2.06    0.21
  -5  -7  -6    1.77    0.29
   5   7   6    1.47    0.24
   5   7   6    1.82    0.26
   5   7   7   52.61    1.36
  -5  -7  -7   52.83    1.10
   5   7   7   51.44    1.25
  -5  -7  -7   50.62    1.44
   5   7   8    7.88    0.55
  -5  -7  -8    8.50    0.49
  -5  -7  -8    8.11    0.62
   5   7   8    7.56    0.47
  -5  -7  -9   13.33    0.65
   5   7   9   14.04    0.75
  -5  -7  -9   13.42    0.82
  -5  -7 -10   31.36    1.06
   5   7  10   29.74    1.14
  -5  -7 -10   30.00    1.30
  -5  -7 -11    2.76    0.36
  -5  -7 -11    3.19    0.46
   5   7  11    2.29    0.35
   5   7  12   35.51    1.37
  -5  -7 -12   34.87    1.27
   5   7  12   35.79    1.35
  -5  -7 -12   36.45    1.58
  -5  -7 -13   17.10    0.94
   5   7  13   17.28    0.98
  -5  -7 -13   18.96    1.21
   5   7  14    0.48    0.20
  -5  -7 -14    0.16    0.17
  -5  -7 -14    0.47    0.25
  -5  -7 -15    9.48    0.78
   5   7  15   11.26    0.86
  -5  -7 -15   10.42    1.00
   5   8  -8    0.37    0.19
  -5  -8   8    0.71    0.29
   5   8  -7    1.82    0.35
  -5  -8   7    2.63    0.48
  -5  -8   6    3.97    0.54
   5   8  -6    3.55    0.48
  -5  -8   5    1.44    0.35
   5   8  -5    1.29    0.29
  -5  -8   4    0.42    0.26
   5   8  -4    0.38    0.18
   5   8  -3   15.37    0.78
   5   8  -3   14.22    0.87
  -5  -8   3   14.73    0.90
   5   8  -2   15.71    0.80
   5   8  -2   15.79    0.90
  -5  -8   2   15.03    0.89
   5   8  -1    9.74    0.64
   5   8  -1    9.58    0.71
   5   8  -1    8.69    0.50
  -5  -8   1    9.28    0.69
   5   8   0   19.64    0.91
   5   8   0   20.00    0.96
  -5  -8   0   20.17    0.98
   5   8   0   18.62    0.73
   5   8   1   18.30    0.72
   5   8   1   19.57    0.91
   5   8   1   19.56    0.93
  -5  -8  -1   18.27    0.92
   5   8   2    6.50    0.43
   5   8   2    7.22    0.56
   5   8   2    6.47    0.53
  -5  -8  -2    7.96    0.61
   5   8   3   79.17    1.88
  -5  -8  -3   78.20    1.38
   5   8   3   80.51    1.79
  -5  -8  -3   79.87    1.85
  -5  -8  -4    0.61    0.20
   5   8   4    0.63    0.18
   5   8   4    0.96    0.22
  -5  -8  -4    0.96    0.19
  -5  -8  -5    0.41    0.14
   5   8   5    0.63    0.18
  -5  -8  -5    0.67    0.17
   5   8   5    0.67    0.18
   5   8   6   16.36    0.78
   5   8   6   14.38    0.83
  -5  -8  -6   16.13    0.77
   5   8   6   15.25    0.73
  -5  -8  -6   15.85    0.80
   5   8   7    0.54    0.19
  -5  -8  -7    0.53    0.18
   5   8   7    0.57    0.16
   5   8   7    0.65    0.20
   5   8   8   17.30    0.93
   5   8   8   17.95    0.84
  -5  -8  -8   17.05    0.88
   5   8   8   16.84    0.72
  -5  -8  -9    1.80    0.24
   5   8   9    1.43    0.28
  -5  -8  -9    1.18    0.24
   5   8   9    1.15    0.26
  -5  -8 -10    2.86    0.32
   5   8  10    2.56    0.37
  -5  -8 -10    3.12    0.43
   5   8  10    2.65    0.36
   5   8  11   10.18    0.75
  -5  -8 -11   11.65    0.68
   5   8  11   10.66    0.73
  -5  -8 -11    9.95    0.79
   5   8  12    9.24    0.73
  -5  -8 -12    9.85    0.66
   5   8  12    9.11    0.69
  -5  -8 -12    9.03    0.79
  -5  -8 -13    9.19    0.67
   5   8  13    9.56    0.73
  -5  -8 -13    9.87    0.87
  -5  -8 -14    2.07    0.35
  -5  -8 -14    1.59    0.37
   5   8  14    1.82    0.35
  -5  -8 -15    2.04    0.38
  -5  -8 -15    1.84    0.45
   5   8  15    2.64    0.43
  -5  -8 -16    6.54    0.66
   5   9  -8    0.52    0.22
   5   9  -7    1.26    0.34
  -5  -9   7    2.26    0.47
  -5  -9   6    2.49    0.46
   5   9  -6    2.56    0.43
  -5  -9   5    1.32    0.32
   5   9  -5    1.57    0.33
  -5  -9   4    0.42    0.24
   5   9  -4    0.51    0.20
  -5  -9   3    1.10    0.30
   5   9  -3    0.91    0.22
   5   9  -3    0.80    0.23
   5   9  -2    5.48    0.50
   5   9  -2    4.28    0.51
  -5  -9   2    5.33    0.56
   5   9  -1    5.94    0.53
   5   9  -1    5.52    0.43
   5   9  -1    5.85    0.57
  -5  -9   1    5.91    0.59
   5   9   0    8.48    0.63
   5   9   0    7.08    0.61
  -5  -9   0    7.40    0.63
   5   9   0    6.95    0.48
  -5  -9  -1    2.78    0.40
   5   9   1    2.09    0.27
   5   9   1    2.44    0.35
   5   9   1    2.02    0.34
   5   9   2    1.94    0.26
  -5  -9  -2    2.07    0.35
   5   9   2    2.82    0.39
   5   9   2    2.87    0.38
  -5  -9  -3   30.56    1.20
   5   9   3   26.54    0.96
   5   9   3   30.09    1.20
   5   9   3   28.71    1.13
   5   9   4    4.50    0.48
  -5  -9  -4    5.48    0.51
  -5  -9  -4    5.23    0.39
   5   9   4    4.66    0.44
   5   9   5    5.86    0.56
  -5  -9  -5    6.23    0.46
   5   9   5    5.99    0.49
  -5  -9  -5    5.74    0.51
   5   9   6   33.03    1.32
  -5  -9  -6   35.61    1.14
   5   9   6   34.37    1.14
  -5  -9  -6   33.95    1.22
  -5  -9  -7    1.91    0.31
   5   9   7    1.58    0.31
   5   9   7    2.21    0.30
  -5  -9  -7    2.23    0.31
   5   9   7    2.31    0.32
   5   9   8   15.69    0.92
   5   9   8   15.06    0.80
  -5  -9  -8   15.73    0.84
   5   9   8   15.91    0.72
   5   9   9   -0.05    0.17
  -5  -9  -9    0.05    0.18
   5   9   9    0.18    0.15
   5   9  10    0.08    0.13
  -5  -9 -10   -0.30    0.22
   5   9  10    0.19    0.16
   5   9  11    6.30    0.61
   5   9  11    6.69    0.58
  -5  -9 -11    6.91    0.66
   5   9  12    0.21    0.15
   5   9  12    0.64    0.20
  -5  -9 -12    0.22    0.17
   5   9  13    2.61    0.41
  -5  -9 -13    2.96    0.50
   5   9  13    2.34    0.39
  -5  -9 -14    2.12    0.46
   5   9  14    2.04    0.38
  -5  -9 -15    0.01    0.19
   5   9  15    0.54    0.25
   5  10  -6    0.38    0.19
  -5 -10   6    0.70    0.31
  -5 -10   5    1.00    0.33
  -5 -10   5    1.20    0.32
   5  10  -5    0.89    0.24
  -5 -10   4    0.35    0.21
   5  10  -4    0.17    0.18
  -5 -10   3   -0.05    0.17
   5  10  -3    0.30    0.20
   5  10  -2    6.23    0.56
   5  10  -2    5.49    0.59
  -5 -10   2    5.69    0.60
  -5 -10   1    1.41    0.32
   5  10  -1    1.30    0.27
   5  10  -1    1.01    0.27
  -5 -10   0    3.51    0.48
   5  10   0    2.35    0.35
   5  10   0    2.63    0.40
   5  10   0    2.20    0.29
  -5 -10  -1    3.37    0.45
   5  10   1    3.39    0.42
   5  10   1    4.44    0.50
   5  10   1    3.59    0.37
  -5 -10  -2    1.98    0.36
   5  10   2    1.83    0.32
   5  10   2    1.87    0.27
   5  10   2    1.87    0.32
   5  10   3   10.08    0.63
   5  10   3   11.29    0.76
   5  10   3   10.27    0.72
  -5 -10  -3   12.04    0.80
   5  10   4   12.12    0.80
   5  10   4   11.20    0.67
   5  10   4   11.92    0.75
  -5 -10  -4   13.77    0.85
  -5 -10  -5    1.68    0.31
   5  10   5    1.89    0.30
   5  10   5    1.55    0.31
   5  10   6   13.09    0.86
  -5 -10  -6   14.17    0.72
   5  10   6   13.47    0.75
  -5 -10  -6   14.44    0.84
   5  10   7   26.42    1.21
  -5 -10  -7   26.88    1.05
   5  10   7   27.34    1.03
  -5 -10  -7   27.40    1.15
  -5 -10  -8    1.78    0.32
   5  10   8    1.67    0.34
  -5 -10  -8    1.91    0.31
   5  10   8    1.60    0.29
   5  10   9   13.95    0.91
   5  10   9   13.65    0.80
  -5 -10  -9   13.08    0.82
   5  10  10   14.41    0.93
   5  10  10   14.66    0.85
  -5 -10 -10   14.56    0.89
   5  10  11    2.35    0.38
  -5 -10 -11    1.98    0.36
   5  10  11    2.49    0.38
   5  10  12   19.54    1.11
   5  10  12   18.82    1.03
  -5 -10 -12   18.39    1.11
   5  10  13    0.40    0.18
  -5 -10 -13   -0.16    0.25
   5  10  13    0.46    0.21
   5  10  14    4.51    0.54
  -5 -10 -14    4.18    0.61
   5  10  15    3.78    0.51
  -5 -11   5   -0.16    0.23
  -5 -11   5    0.07    0.13
   5  11  -5    0.21    0.18
  -5 -11   4    0.20    0.19
  -5 -11   4    0.49    0.23
   5  11  -4    0.35    0.17
   5  11  -3    3.73    0.51
  -5 -11   3    4.20    0.55
  -5 -11   2   -0.15    0.21
   5  11  -2   -0.12    0.15
   5  11  -2   -0.26    0.18
  -5 -11   1    2.72    0.44
   5  11  -1    2.22    0.36
   5  11  -1    2.95    0.47
  -5 -11   0    0.78    0.26
   5  11   0    0.72    0.22
   5  11   0    0.40    0.23
  -5 -11  -1    0.26    0.23
   5  11   1   -0.01    0.09
   5  11   1   -0.14    0.17
   5  11   1    0.00    0.14
   5  11   2    8.58    0.60
   5  11   2    9.53    0.73
   5  11   2    9.34    0.73
  -5 -11  -2    9.49    0.75
  -5 -11  -3    0.69    0.22
   5  11   3    0.63    0.22
   5  11   3    0.74    0.20
   5  11   3    0.65    0.22
   5  11   4   17.78    0.99
   5  11   4   15.59    0.84
   5  11   4   16.69    0.91
  -5 -11  -4   16.97    0.99
  -5 -11  -5    0.64    0.25
   5  11   5    0.46    0.17
   5  11   5    0.83    0.26
  -5 -11  -6   -0.04    0.14
   5  11   6    0.02    0.13
   5  11   6   -0.02    0.11
   5  11   7   16.01    0.98
  -5 -11  -7   15.95    0.82
   5  11   7   15.69    0.81
  -5 -11  -7   15.83    0.92
  -5 -11  -8    1.26    0.29
   5  11   8    0.81    0.24
  -5 -11  -8    1.26    0.27
   5  11   9    5.92    0.55
   5  11   9    6.24    0.63
  -5 -11  -9    5.62    0.55
  -5 -11  -9    6.47    0.61
   5  11  10    7.51    0.70
   5  11  10    7.03    0.61
  -5 -11 -10    7.33    0.65
   5  11  11    0.65    0.23
  -5 -11 -11    0.69    0.24
   5  11  11    0.41    0.18
   5  11  12    6.72    0.67
   5  11  12    7.40    0.66
  -5 -11 -12    7.25    0.70
   5  11  13    0.12    0.12
  -5 -11 -13    0.08    0.19
   5  11  13    0.15    0.13
   5  11  14   -0.08    0.21
  -5 -11 -14    0.07    0.20
  -5 -12   4    0.29    0.22
  -5 -12   3    1.11    0.32
  -5 -12   3    0.96    0.31
   5  12  -3    0.96    0.27
  -5 -12   2    0.21    0.20
  -5 -12   2   -0.17    0.18
   5  12  -2    0.05    0.21
  -5 -12   1    3.25    0.52
   5  12  -1    3.50    0.46
   5  12  -1    2.94    0.46
  -5 -12   0   -0.21    0.21
   5  12   0   -0.05    0.12
   5  12   0   -0.05    0.21
  -5 -12  -1    0.10    0.19
   5  12   1    0.14    0.12
   5  12   1    0.00    0.15
   5  12   2    4.64    0.47
   5  12   2    5.14    0.56
   5  12   2    5.34    0.58
  -5 -12  -2    4.80    0.57
  -5 -12  -3    0.20    0.20
   5  12   3    0.16    0.12
   5  12   3    0.42    0.20
   5  12   3    0.06    0.14
  -5 -12  -4   13.19    0.91
   5  12   4   12.06    0.77
   5  12   4   13.46    0.91
   5  12   4   12.75    0.83
  -5 -12  -5   -0.15    0.19
   5  12   5   -0.05    0.16
   5  12   5    0.22    0.15
  -5 -12  -6    0.14    0.17
   5  12   6   -0.19    0.21
   5  12   6    0.06    0.12
   5  12   7    8.78    0.75
   5  12   7    9.19    0.66
  -5 -12  -7   10.03    0.78
  -5 -12  -8    1.74    0.35
   5  12   8    2.26    0.41
   5  12   9    5.89    0.62
  -5 -12  -9    6.03    0.57
  -5 -12  -9    7.47    0.68
   5  12  10    7.93    0.73
   5  12  10    8.21    0.67
  -5 -12 -10    7.91    0.68
  -5 -12 -10    9.54    0.79
   5  12  11    5.89    0.64
   5  12  11    5.32    0.57
  -5 -12 -11    5.14    0.58
   5  12  12    4.96    0.59
   5  12  12    4.28    0.52
  -5 -12 -12    4.33    0.57
   5  12  13    7.02    0.71
   5  12  13    6.95    0.67
  -5 -12 -13    6.11    0.68
  -5 -12 -14    2.17    0.44
   5  12  14    3.07    0.47
  -5 -13   2    1.15    0.33
  -5 -13   2    1.56    0.38
  -5 -13   1   -0.08    0.21
  -5 -13   1   -0.61    0.26
   5  13  -1   -0.08    0.13
  -5 -13   0    1.00    0.31
   5  13   0    1.05    0.28
   5  13   0    0.58    0.24
  -5 -13  -1    1.32    0.33
   5  13   1    2.37    0.41
   5  13   1    1.54    0.33
  -5 -13  -2    0.02    0.19
   5  13   2    0.12    0.16
   5  13   2   -0.13    0.17
  -5 -13  -3    0.56    0.24
   5  13   3    0.48    0.17
   5  13   3    0.55    0.23
   5  13   3    0.47    0.20
   5  13   4    0.62    0.20
  -5 -13  -4    0.65    0.24
   5  13   4    0.45    0.21
   5  13   4    0.67    0.20
  -5 -13  -5    0.06    0.20
   5  13   5   -0.04    0.11
   5  13   5   -0.19    0.15
   5  13   5    0.07    0.14
   5  13   6    8.63    0.77
   5  13   6    6.96    0.62
  -5 -13  -6    7.05    0.69
  -5 -13  -7   -0.14    0.15
   5  13   7   -0.12    0.21
   5  13   7    0.28    0.14
   5  13   8    5.18    0.62
  -5 -13  -8    5.83    0.62
   5  13   9    3.39    0.50
  -5 -13  -9    4.68    0.57
  -5 -13 -10    0.21    0.19
   5  13  10   -0.33    0.24
   5  13  11    9.52    0.83
  -5 -13 -11    8.20    0.73
  -5 -13 -11    9.21    0.81
  -5 -13 -12    0.40    0.20
   5  13  12    0.38    0.21
  -5 -13 -12   -0.22    0.18
   5  13  12    0.30    0.21
   5  13  13    3.16    0.49
  -5 -13 -13    4.34    0.59
   5  13  13    4.08    0.53
  -5 -14   0    0.00    0.17
   5  14   0    0.35    0.18
  -5 -14  -1    1.34    0.35
  -5 -14  -1    1.81    0.42
   5  14   1    1.79    0.38
   5  14   1    0.96    0.31
   5  14   2    0.24    0.17
   5  14   2    0.23    0.18
  -5 -14  -3    0.88    0.31
   5  14   3    0.77    0.26
   5  14   3    0.70    0.25
   5  14   4    4.17    0.56
   5  14   4    3.20    0.47
   5  14   4    2.88    0.42
  -5 -14  -5    0.06    0.19
   5  14   5    0.13    0.17
   5  14   5    0.24    0.15
   5  14   5    0.03    0.12
  -5 -14  -6    0.00    0.19
   5  14   6    0.66    0.24
   5  14   6    0.48    0.20
  -5 -14  -7   -0.06    0.21
   5  14   7    0.02    0.14
   5  14   7    0.00    0.13
  -5 -14  -8    2.07    0.41
   5  14   8    1.77    0.37
  -5 -14  -9    0.96    0.29
   5  14   9    0.85    0.29
  -5 -14 -10    0.14    0.15
   5  14  10   -0.10    0.19
  -5 -14 -11    3.26    0.51
   5  14  11    3.15    0.50
  -5 -14 -12    0.57    0.27
   5  14  12   -0.09    0.15
   5  14  13    1.13    0.31
  -5 -14 -13    0.34    0.20
  -5 -15  -2    0.48    0.24
  -5 -15  -3    1.00    0.33
   5  15   3    1.19    0.33
   5  15   3    1.09    0.31
  -5 -15  -4    3.29    0.51
   5  15   4    3.42    0.52
   5  15   4    3.20    0.49
  -5 -15  -5    0.43    0.24
   5  15   5    0.06    0.15
   5  15   5    0.25    0.14
   5  15   5    0.21    0.18
  -5 -15  -6   -0.01    0.19
   5  15   6    0.18    0.18
   5  15   6   -0.09    0.17
  -5 -15  -7    2.46    0.46
   5  15   7    1.92    0.41
  -5 -15  -8    0.31    0.21
   5  15   8    0.06    0.15
  -5 -15  -9    1.25    0.34
   5  15   9    0.91    0.30
  -5 -15 -10    1.64    0.39
   5  15  10    0.89    0.29
  -5 -15 -11    0.38    0.25
  -5 -16  -6    1.22    0.35
  -5 -16  -7    0.75    0.29
  -5 -16  -8    1.38    0.37
   6 -12  -7    0.14    0.19
  -6  12   7    0.48    0.21
  -6  12   6    0.33    0.20
   6 -12  -6    0.95    0.29
  -6  12   5   -0.12    0.13
  -6  12   4    0.91    0.26
   6 -11  -9    0.12    0.16
  -6  11   9   -0.07    0.16
  -6  11   8    0.60    0.24
   6 -11  -8    0.38    0.25
  -6  11   7    3.12    0.47
   6 -11  -7    3.05    0.47
   6 -11  -7    3.47    0.52
   6 -11  -6    0.06    0.15
  -6  11   6    0.25    0.14
   6 -11  -6    0.21    0.22
   6 -11  -5    4.29    0.58
   6 -11  -5    3.37    0.50
  -6  11   5    3.41    0.48
  -6  11   5    3.18    0.44
   6 -11  -4   -0.17    0.23
  -6  11   4    0.05    0.13
   6 -11  -4    0.24    0.18
  -6  11   4    0.22    0.14
  -6  11   3    1.57    0.33
   6 -11  -3    2.08    0.43
   6 -11  -2    2.15    0.44
  -6  11   2    1.48    0.33
  -6  11   1    0.31    0.14
   6 -10 -11    0.43    0.22
  -6  10  11    0.64    0.23
   6 -10 -10    3.46    0.51
  -6  10  10    2.83    0.49
   6 -10  -9    4.16    0.56
  -6  10   9    3.22    0.49
  -6  10   8   -0.01    0.16
   6 -10  -8    0.32    0.20
   6 -10  -7    0.03    0.16
   6 -10  -7    0.19    0.18
  -6  10   7    0.01    0.13
   6 -10  -6    0.31    0.22
  -6  10   6    0.84    0.24
   6 -10  -6    0.81    0.25
  -6  10   6    0.63    0.19
   6 -10  -5   -0.21    0.21
  -6  10   5   -0.19    0.19
   6 -10  -5   -0.11    0.15
  -6  10   5    0.09    0.10
  -6  10   4    0.09    0.14
   6 -10  -4    0.08    0.14
  -6  10   4    0.28    0.14
   6 -10  -3    0.35    0.22
  -6  10   3    0.37    0.15
  -6  10   3    0.48    0.17
   6 -10  -2   -0.05    0.20
  -6  10   2    0.12    0.13
  -6  10   2    0.04    0.12
   6 -10  -1   -0.05    0.20
  -6  10   1    0.11    0.10
   6 -10   0    0.14    0.18
  -6  10   0    0.34    0.17
  -6  10  -1    1.00    0.30
   6  -9 -12    0.34    0.23
  -6   9  12    0.36    0.22
   6  -9 -11    0.01    0.15
  -6   9  11    0.39    0.25
   6  -9 -10    0.72    0.24
  -6   9  10    0.69    0.27
  -6   9   9    3.13    0.49
   6  -9  -9    3.37    0.50
  -6   9   8    0.53    0.23
   6  -9  -8    0.23    0.22
   6  -9  -7    0.51    0.21
  -6   9   7    0.20    0.18
   6  -9  -7   -0.11    0.13
  -6   9   6    5.81    0.52
   6  -9  -6    6.39    0.63
  -6   9   6    5.22    0.57
   6  -9  -6    6.06    0.61
   6  -9  -5    0.51    0.23
  -6   9   5    0.82    0.26
   6  -9  -5    0.35    0.17
  -6   9   5    0.23    0.14
   6  -9  -4    1.10    0.32
  -6   9   4    0.71    0.22
   6  -9  -4    0.68    0.22
  -6   9   4    0.67    0.21
   6  -9  -3    0.62    0.25
  -6   9   3    0.51    0.19
  -6   9   3    0.52    0.20
   6  -9  -2   -0.24    0.26
  -6   9   2    0.21    0.15
  -6   9   2   -0.01    0.11
   6  -9  -1    1.61    0.38
  -6   9   1    0.93    0.25
  -6   9   1    0.82    0.22
   6  -9   0   -0.24    0.24
  -6   9   0    0.66    0.24
   6  -9   1    1.54    0.39
  -6   9  -1    0.62    0.23
   6  -9   2    0.19    0.24
  -6   9  -2    0.25    0.19
   6  -9   3    1.16    0.35
  -6   9  -3    1.37    0.35
   6  -8 -12    0.04    0.18
  -6   8  12    0.33    0.21
   6  -8 -11    9.69    0.82
  -6   8  11    9.13    0.86
   6  -8 -10   -0.07    0.16
  -6   8  10    0.12    0.16
   6  -8  -9   13.13    0.91
  -6   8   9   12.36    0.93
   6  -8  -8    5.58    0.58
  -6   8   8    5.36    0.60
  -6   8   7   -0.19    0.20
   6  -8  -7    0.04    0.13
   6  -8  -7    0.37    0.19
   6  -8  -6   37.68    1.44
  -6   8   6   36.12    1.20
  -6   8   6   34.45    1.41
   6  -8  -6   39.08    1.41
  -6   8   5    7.17    0.54
   6  -8  -5    7.50    0.64
  -6   8   5    7.15    0.64
   6  -8  -5    7.78    0.66
  -6   8   4    5.33    0.48
   6  -8  -4    5.35    0.54
  -6   8   4    5.53    0.56
   6  -8  -4    6.68    0.62
  -6   8   3   10.91    0.77
  -6   8   3   10.78    0.70
   6  -8  -3   12.19    0.85
  -6   8   2    4.79    0.49
  -6   8   2    4.52    0.49
   6  -8  -2    4.57    0.55
  -6   8   1    3.24    0.42
  -6   8   1    4.15    0.47
   6  -8   0    5.11    0.59
  -6   8   0    4.23    0.50
  -6   8   0    3.78    0.46
   6  -8   1    0.69    0.29
  -6   8  -1    0.88    0.25
  -6   8  -1    0.77    0.21
   6  -8   2    0.07    0.22
  -6   8  -2    0.03    0.13
   6  -8   3    0.54    0.29
  -6   8  -3    0.10    0.13
   6  -8   4   -0.11    0.23
  -6   8  -4   -0.15    0.16
  -6   8  -5   -0.07    0.14
   6  -7 -13    1.86    0.40
  -6   7  13    1.03    0.34
   6  -7 -12    0.27    0.20
  -6   7  12    0.29    0.24
   6  -7 -11    0.89    0.27
  -6   7  11    0.84    0.30
   6  -7 -10    0.03    0.17
  -6   7  10   -0.04    0.20
  -6   7   9    0.49    0.22
   6  -7  -9    0.39    0.23
  -6   7   8    0.45    0.20
   6  -7  -8    0.19    0.14
   6  -7  -7    0.37    0.18
  -6   7   7    0.07    0.15
   6  -7  -7    0.12    0.14
  -6   7   6    0.68    0.23
   6  -7  -6    1.28    0.28
  -6   7   6    1.14    0.21
   6  -7  -6    1.43    0.29
  -6   7   5    1.41    0.31
   6  -7  -5    2.37    0.35
   6  -7  -5    2.01    0.34
  -6   7   5    1.93    0.27
   6  -7  -4    0.02    0.16
  -6   7   4    0.24    0.17
   6  -7  -4    0.17    0.13
  -6   7   4    0.07    0.07
   6  -7  -3    0.63    0.22
  -6   7   3    0.33    0.18
   6  -7  -3    0.21    0.13
  -6   7   3    0.39    0.14
  -6   7   2    8.30    0.65
  -6   7   2    8.26    0.59
   6  -7  -2    8.45    0.69
   6  -7  -1    1.23    0.32
  -6   7   1    0.74    0.22
  -6   7   1    0.62    0.18
   6  -7   0    1.55    0.32
  -6   7   0    1.31    0.27
  -6   7   0    1.40    0.28
   6  -7   1    4.55    0.55
  -6   7  -1    3.51    0.44
  -6   7  -1    3.24    0.43
   6  -7   2    0.15    0.19
  -6   7  -2   -0.06    0.16
  -6   7  -2    0.27    0.19
   6  -7   3    1.01    0.32
  -6   7  -3    0.87    0.26
   6  -7   4    0.20    0.22
  -6   7  -4   -0.55    0.23
   6  -7   5    0.06    0.20
  -6   7  -5   -0.24    0.17
   6  -7   6    1.07    0.32
  -6   7  -6    0.56    0.24
   6  -6 -13    0.46    0.24
  -6   6  13    0.08    0.21
   6  -6 -12   -0.20    0.21
  -6   6  12    0.09    0.15
   6  -6 -11    0.45    0.22
  -6   6  11    0.00    0.19
   6  -6 -10    5.06    0.57
  -6   6  10    5.45    0.64
   6  -6  -9    2.28    0.38
  -6   6   9    2.41    0.40
  -6   6   8   -0.25    0.21
   6  -6  -8    0.07    0.17
   6  -6  -7    0.02    0.13
  -6   6   7   -0.16    0.19
   6  -6  -7    0.25    0.17
   6  -6  -6    0.16    0.14
  -6   6   6    0.34    0.18
   6  -6  -6    0.42    0.18
   6  -6  -5   11.50    0.71
  -6   6   5   11.00    0.57
  -6   6   5   10.67    0.76
   6  -6  -5   12.31    0.74
   6  -6  -4    2.82    0.38
  -6   6   4    2.59    0.29
  -6   6   4    2.77    0.40
   6  -6  -4    2.53    0.34
   6  -6  -3    2.15    0.35
  -6   6   3    1.65    0.24
  -6   6   3    2.26    0.35
   6  -6  -3    2.12    0.30
  -6   6   2   17.52    0.78
  -6   6   2   17.22    0.92
   6  -6  -2   18.35    0.95
   6  -6  -1    1.25    0.30
  -6   6   1    1.05    0.25
  -6   6   1    0.65    0.17
  -6   6   0   19.23    0.92
  -6   6   0   20.38    1.00
   6  -6   0   19.84    1.03
  -6   6  -1   21.56    1.03
  -6   6  -1   21.70    1.03
   6  -6   1   22.45    1.12
   6  -6   2    0.85    0.27
  -6   6  -2    0.88    0.25
  -6   6  -2    0.57    0.20
  -6   6  -3   12.98    0.88
  -6   6  -3   12.46    0.80
   6  -6   3   13.13    0.90
  -6   6  -4    7.35    0.65
  -6   6  -4    7.53    0.63
  -6   6  -4    6.57    0.66
   6  -6   4    8.26    0.73
   6  -6   5    0.23    0.19
  -6   6  -5    0.06    0.15
  -6   6  -5    0.00    0.17
   6  -6   6    2.91    0.47
  -6   6  -6    2.47    0.45
   6  -6   7    0.05    0.18
  -6   6  -7   -0.15    0.20
   6  -6   8    0.24    0.21
  -6   5  14    2.35    0.48
   6  -5 -13   -0.09    0.24
  -6   5  13    0.38    0.25
   6  -5 -12    6.46    0.68
  -6   5  12    6.30    0.71
   6  -5 -11   17.07    1.04
  -6   5  11   16.05    1.08
   6  -5 -10    4.88    0.54
  -6   5  10    3.83    0.52
   6  -5  -9   10.78    0.75
  -6   5   9    9.72    0.80
  -6   5   8    0.01    0.18
   6  -5  -8   -0.14    0.16
   6  -5  -7    9.77    0.66
  -6   5   7    9.46    0.73
   6  -5  -7    9.58    0.57
   6  -5  -6   29.35    1.11
  -6   5   6   29.31    1.25
   6  -5  -6   30.83    1.06
  -6   5   5    3.20    0.42
   6  -5  -5    3.67    0.40
   6  -5  -5    3.62    0.39
  -6   5   4    9.45    0.49
   6  -5  -4    9.75    0.62
  -6   5   4    9.24    0.69
   6  -5  -4    9.23    0.62
   6  -5  -3    1.83    0.30
  -6   5   3    1.72    0.32
   6  -5  -3    1.84    0.27
  -6   5   3    1.86    0.23
   6  -5  -2    8.93    0.57
  -6   5   2    8.95    0.51
  -6   5   2    7.42    0.61
   6  -5  -2    8.02    0.61
  -6   5   1   12.41    0.64
  -6   5   1   13.31    0.80
   6  -5  -1   12.84    0.77
   6  -5   0    0.56    0.26
  -6   5   0    0.34    0.14
  -6   5   0    0.34    0.17
   6  -5   1    4.10    0.47
  -6   5  -1    4.38    0.44
  -6   5  -1    4.17    0.47
  -6   5  -2    7.06    0.62
  -6   5  -2    6.74    0.58
  -6   5  -2    6.80    0.57
   6  -5   2    7.05    0.64
  -6   5  -3    0.06    0.11
  -6   5  -3    0.18    0.19
  -6   5  -4   13.79    0.89
  -6   5  -4   13.87    0.87
   6  -5   4   15.54    0.95
  -6   5  -5    4.79    0.56
  -6   5  -5    5.43    0.57
   6  -5   5    6.19    0.62
  -6   5  -6    0.24    0.19
  -6   5  -6    0.17    0.17
   6  -5   6    0.28    0.21
   6  -5   7    3.40    0.50
  -6   5  -7    2.93    0.47
  -6   5  -7    2.88    0.44
   6  -5   8    1.89    0.39
  -6   5  -8    1.40    0.36
  -6   4  14    3.12    0.51
   6  -4 -13    0.22    0.24
   6  -4 -13    0.13    0.18
  -6   4  13   -0.28    0.21
   6  -4 -12    1.92    0.39
  -6   4  12    2.07    0.41
   6  -4 -11    7.07    0.67
  -6   4  11    7.26    0.72
   6  -4 -10    0.25    0.20
  -6   4  10    0.11    0.15
   6  -4  -9    0.01    0.14
  -6   4   9   -0.22    0.20
  -6   4   8    1.11    0.27
   6  -4  -8    1.21    0.27
  -6   4   7    0.53    0.20
   6  -4  -7    0.28    0.14
   6  -4  -7    0.27    0.12
  -6   4   6    2.87    0.41
   6  -4  -6    2.34    0.31
   6  -4  -6    2.75    0.32
   6  -4  -5    0.11    0.15
  -6   4   5   -0.05    0.14
   6  -4  -5    0.02    0.12
   6  -4  -4    0.29    0.19
  -6   4   4    0.26    0.17
   6  -4  -4    0.19    0.13
  -6   4   4    0.12    0.06
   6  -4  -3    0.31    0.19
  -6   4   3   -0.01    0.17
   6  -4  -3    0.21    0.12
  -6   4   3    0.04    0.06
   6  -4  -2   -0.07    0.17
  -6   4   2   -0.14    0.17
   6  -4  -2    0.07    0.09
  -6   4   2    0.05    0.06
   6  -4  -1    5.91    0.43
  -6   4   1    5.52    0.38
  -6   4   1    5.84    0.53
   6  -4  -1    5.22    0.47
   6  -4   0    0.23    0.18
  -6   4   0    0.13    0.12
  -6   4   0    0.28    0.12
   6  -4   1   -0.07    0.18
  -6   4  -1    0.22    0.18
  -6   4  -1    0.00    0.20
  -6   4  -1    0.09    0.10
  -6   4  -2    9.29    0.69
  -6   4  -2    9.15    0.63
   6  -4   2    9.48    0.69
   6  -4   3    0.15    0.20
  -6   4  -3    0.13    0.11
  -6   4  -3    0.01    0.15
  -6   4  -4    6.35    0.58
  -6   4  -4    6.41    0.59
   6  -4   4    6.54    0.60
   6  -4   5    1.00    0.29
  -6   4  -5    0.59    0.20
  -6   4  -5    0.86    0.24
   6  -4   6    0.23    0.22
  -6   4  -6    0.04    0.15
  -6   4  -6    0.23    0.18
  -6   4  -7   12.07    0.91
  -6   4  -7   13.57    0.92
   6  -4   7   13.38    0.89
  -6   4  -8    5.02    0.61
  -6   4  -8    4.89    0.57
   6  -4   8    4.64    0.55
   6  -4   9    0.21    0.19
  -6   4  -9    0.76    0.27
   6  -3 -13    0.24    0.19
   6  -3 -13   -0.16    0.21
  -6   3  13   -0.02    0.13
   6  -3 -12    0.62    0.29
  -6   3  12    0.01    0.13
   6  -3 -11    3.33    0.47
  -6   3  11    3.93    0.53
   6  -3 -10    0.45    0.21
  -6   3  10    0.66    0.22
   6  -3  -9    4.96    0.53
  -6   3   9    4.58    0.53
   6  -3  -8   27.30    1.12
  -6   3   8   27.56    1.24
   6  -3  -8   26.30    0.98
   6  -3  -7    7.13    0.55
  -6   3   7    7.88    0.65
   6  -3  -7    6.81    0.44
   6  -3  -6   11.00    0.64
  -6   3   6   11.80    0.78
   6  -3  -6   11.64    0.59
   6  -3  -5   33.85    1.07
  -6   3   5   33.73    1.27
   6  -3  -5   34.12    1.04
   6  -3  -4    1.92    0.28
  -6   3   4    1.69    0.29
   6  -3  -4    1.89    0.25
  -6   3   3   20.77    0.59
   6  -3  -3   20.06    0.77
  -6   3   3   19.78    0.95
   6  -3  -3   21.02    0.85
   6  -3  -2   39.00    1.05
  -6   3   2   39.53    1.33
   6  -3  -2   39.79    1.20
  -6   3   2   40.35    0.85
   6  -3  -1    2.24    0.32
  -6   3   1    2.77    0.39
   6  -3  -1    2.03    0.24
  -6   3   1    2.17    0.21
   6  -3   0   17.50    0.68
  -6   3   0   17.68    0.90
  -6   3   0   18.15    0.68
  -6   3   0   17.55    0.89
   6  -3   0   19.33    0.87
  -6   3  -1    9.89    0.68
  -6   3  -1   11.29    0.60
   6  -3   1   10.72    0.68
  -6   3  -2   14.65    0.73
  -6   3  -2   12.72    0.78
   6  -3   2   14.90    0.80
  -6   3  -3    9.89    0.64
  -6   3  -3    9.02    0.68
   6  -3   3    9.99    0.67
   6  -3   4    3.60    0.43
  -6   3  -4    3.26    0.39
  -6   3  -4    3.96    0.47
  -6   3  -5   10.21    0.72
  -6   3  -5    9.50    0.72
   6  -3   5    9.62    0.70
   6  -3   6   10.21    0.73
  -6   3  -6    9.55    0.73
  -6   3  -6   10.10    0.77
  -6   3  -7    8.16    0.71
   6  -3   7    8.20    0.67
  -6   3  -8    8.64    0.76
   6  -3   8    9.20    0.72
  -6   3  -9    0.05    0.19
  -6   3  -9    0.51    0.26
   6  -3   9    0.01    0.14
  -6   3 -10    4.45    0.60
   6  -2 -13    1.14    0.35
   6  -2 -13    0.53    0.24
   6  -2 -12    4.59    0.59
   6  -2 -12    4.89    0.64
  -6   2  12    5.55    0.61
   6  -2 -11    0.27    0.21
  -6   2  11    0.21    0.12
  -6   2  11    0.56    0.22
   6  -2 -10   23.32    1.16
  -6   2  10   21.12    1.11
  -6   2  10   19.49    0.89
  -6   2   9    0.21    0.13
   6  -2  -9    0.37    0.19
  -6   2   9    0.17    0.10
   6  -2  -8    8.02    0.62
  -6   2   8    8.04    0.66
  -6   2   8    7.96    0.50
   6  -2  -8    8.62    0.57
   6  -2  -7   27.81    1.07
  -6   2   7   25.06    1.12
  -6   2   7   26.57    0.84
   6  -2  -7   24.60    0.94
   6  -2  -6    0.00    0.09
  -6   2   6    0.01    0.12
   6  -2  -6    0.01    0.11
  -6   2   6    0.22    0.10
   6  -2  -5   23.97    0.89
  -6   2   5   24.57    1.06
  -6   2   5   24.64    0.69
   6  -2  -5   27.31    0.89
   6  -2  -4   12.28    0.61
  -6   2   4   12.56    0.75
  -6   2   4   11.80    0.44
   6  -2  -4   11.89    0.61
  -6   2   3    0.62    0.10
  -6   2   3    0.52    0.22
   6  -2  -3    0.74    0.16
   6  -2  -3    0.80    0.22
  -6   2   2   45.35    0.76
   6  -2  -2   43.74    1.04
   6  -2  -2   44.24    1.22
  -6   2   2   43.25    1.36
   6  -2  -1    2.54    0.32
   6  -2  -1    2.57    0.25
  -6   2   1    2.96    0.40
  -6   2   1    3.15    0.22
   6  -2   0    0.35    0.20
   6  -2   0    0.10    0.06
  -6   2   0    0.17    0.24
  -6   2   0    0.27    0.09
  -6   2  -1    5.47    0.52
  -6   2  -1    6.54    0.41
   6  -2   1    5.83    0.49
   6  -2   2    0.53    0.22
  -6   2  -2    0.59    0.15
  -6   2  -2    0.27    0.20
  -6   2  -3   10.87    0.62
  -6   2  -3    9.80    0.70
   6  -2   3    9.52    0.64
   6  -2   4    3.25    0.40
  -6   2  -4    3.36    0.37
  -6   2  -4    3.16    0.42
   6  -2   5    0.12    0.16
  -6   2  -5    0.34    0.23
   6  -2   6    1.42    0.30
  -6   2  -6    1.30    0.34
   6  -2   7    0.35    0.21
  -6   2  -7    0.21    0.22
   6  -2   8    2.67    0.39
  -6   2  -8    1.98    0.38
  -6   2  -8    2.18    0.41
   6  -2   9    0.66    0.22
  -6   2  -9    0.48    0.26
  -6   2  -9    0.41    0.24
  -6   2 -10    0.34    0.21
  -6   2 -10   -0.08    0.19
  -6   2 -11    1.90    0.42
  -6   1  13    0.04    0.14
   6  -1 -13   -0.25    0.22
   6  -1 -12    3.08    0.51
  -6   1  12    3.10    0.43
  -6   1  12    2.76    0.40
   6  -1 -11   -0.33    0.24
   6  -1 -11   -0.09    0.18
  -6   1  11   -0.27    0.20
  -6   1  11    0.17    0.13
   6  -1 -10    3.07    0.46
  -6   1  10    2.79    0.36
  -6   1  10    3.52    0.45
   6  -1  -9    0.88    0.24
   6  -1  -9    1.39    0.27
  -6   1   9    1.06    0.22
  -6   1   9    1.23    0.27
  -6   1   8    0.61    0.22
   6  -1  -8    0.33    0.21
   6  -1  -8    0.24    0.12
  -6   1   8    0.61    0.17
   6  -1  -7    6.66    0.54
   6  -1  -7    7.19    0.52
  -6   1   7    7.70    0.61
  -6   1   7    7.37    0.48
  -6   1   6    0.11    0.14
   6  -1  -6   -0.02    0.11
   6  -1  -6    0.20    0.10
   6  -1  -6    0.01    0.11
  -6   1   6    0.08    0.09
   6  -1  -5   12.98    0.66
  -6   1   5   14.30    0.79
  -6   1   5   13.13    0.56
   6  -1  -5   15.03    0.71
   6  -1  -4    5.62    0.42
  -6   1   4    5.53    0.49
  -6   1   4    5.14    0.33
   6  -1  -4    5.49    0.40
   6  -1  -3    2.55    0.27
  -6   1   3    2.58    0.36
   6  -1  -3    2.10    0.27
  -6   1   3    1.99    0.21
   6  -1  -2   31.84    0.85
  -6   1   2   31.28    1.14
  -6   1   2   33.39    0.78
   6  -1  -2   30.07    0.98
   6  -1  -1    6.99    0.38
  -6   1   1    6.14    0.51
  -6   1   1    6.51    0.53
  -6   1   1    7.00    0.36
  -6   1   1    6.46    0.25
   6  -1  -1    7.10    0.49
  -6   1   0    1.28    0.16
   6  -1   0    1.24    0.16
   6  -1   0    1.01    0.24
  -6   1   0    0.93    0.23
  -6   1   0    1.03    0.12
   6  -1   1    2.12    0.32
   6  -1   1    2.24    0.20
  -6   1  -1    2.03    0.20
  -6   1  -1    1.97    0.32
  -6   1  -1    2.50    0.21
   6  -1   2   24.79    0.64
  -6   1  -2   24.53    0.79
  -6   1  -2   24.77    1.06
   6  -1   2   22.85    0.92
  -6   1  -2   25.48    0.65
   6  -1   3   13.40    0.51
  -6   1  -3   13.96    0.81
   6  -1   3   13.41    0.73
   6  -1   4    6.95    0.40
  -6   1  -4    6.78    0.61
   6  -1   4    6.39    0.51
   6  -1   5    0.72    0.20
  -6   1  -5    0.59    0.23
   6  -1   5    1.17    0.18
   6  -1   6    2.97    0.39
   6  -1   6    2.54    0.29
  -6   1  -6    2.34    0.41
  -6   1  -7   14.65    0.87
   6  -1   7   15.40    0.72
  -6   1  -7   14.00    0.92
   6  -1   7   13.30    0.78
   6  -1   8    2.36    0.35
   6  -1   8    2.40    0.31
  -6   1  -8    2.18    0.37
  -6   1  -8    2.15    0.41
  -6   1  -9    7.73    0.69
   6  -1   9    7.24    0.60
   6  -1   9    7.08    0.56
  -6   1  -9    7.74    0.74
   6  -1  10    2.80    0.38
  -6   1 -10    3.21    0.48
   6  -1  10    3.21    0.44
  -6   1 -10    3.73    0.55
  -6   1 -11    3.57    0.53
   6  -1  11    3.95    0.47
  -6   1 -11    3.79    0.57
  -6   1 -12    5.37    0.68
  -6   0  13    0.05    0.16
   6   0 -13    0.02    0.14
  -6   0  13   -0.29    0.22
   6   0 -12    2.40    0.46
  -6   0  12    1.76    0.34
   6   0 -12    3.23    0.51
  -6   0  12    2.29    0.40
   6   0 -11    2.12    0.42
   6   0 -11    1.70    0.36
  -6   0  11    2.00    0.36
   6   0 -10    0.45    0.25
  -6   0  10    0.18    0.11
  -6   0  10    0.30    0.16
   6   0  -9    2.44    0.40
   6   0  -9    2.17    0.32
  -6   0   9    1.80    0.29
  -6   0   9    1.79    0.30
   6   0  -8   15.10    0.87
  -6   0   8   14.21    0.81
   6   0  -8   15.16    0.81
  -6   0   8   14.83    0.77
   6   0  -7    3.00    0.38
  -6   0   7    3.31    0.39
   6   0  -7    3.52    0.38
  -6   0   7    2.86    0.34
   6   0  -6    9.85    0.63
  -6   0   6   10.18    0.65
   6   0  -6   10.22    0.62
  -6   0   6   10.82    0.59
  -6   0   5    0.16    0.11
  -6   0   5    0.47    0.19
   6   0  -5    0.09    0.12
   6   0  -5    0.27    0.10
   6   0  -5    0.47    0.16
   6   0  -4   17.70    0.72
   6   0  -4   17.24    0.65
  -6   0   4   17.31    0.83
   6   0  -4   17.93    0.77
  -6   0   4   17.38    0.67
   6   0  -3   56.10    1.19
   6   0  -3   57.87    1.21
  -6   0   3   54.88    1.46
  -6   0   3   55.48    1.16
   6   0  -3   54.55    1.25
   6   0  -2    2.33    0.23
  -6   0   2    2.14    0.31
  -6   0   2    2.51    0.25
   6   0  -2    2.10    0.28
   6   0  -1   89.52    1.28
  -6   0   1   87.46    1.79
  -6   0   1   87.83    1.41
   6   0  -1   88.87    1.66
   6   0   0   21.21    0.58
  -6   0   0   22.49    0.92
  -6   0   0   21.34    0.42
  -6   0   0   20.56    0.66
   6   0   0   20.88    0.83
   6   0   1   12.32    0.41
  -6   0  -1   12.13    0.42
  -6   0  -1   11.29    0.68
   6   0   1   12.21    0.65
  -6   0  -1   12.11    0.49
   6   0   2  227.51    1.68
   6   0   2  219.72    2.00
  -6   0  -2  222.53    2.13
  -6   0  -2  222.81    3.01
   6   0   2  222.03    2.73
  -6   0  -2  226.58    2.08
   6   0   3    9.72    0.45
  -6   0  -3    8.90    0.66
   6   0   3    9.07    0.59
   6   0   4    6.66    0.40
  -6   0  -4    5.64    0.56
   6   0   4    6.40    0.51
   6   0   5   24.60    0.80
  -6   0  -5   23.99    1.10
   6   0   5   24.02    0.97
  -6   0  -6    6.03    0.52
   6   0   6    6.48    0.44
  -6   0  -6    6.00    0.61
   6   0   6    5.24    0.47
  -6   0  -7   33.68    1.26
   6   0   7   37.05    1.12
  -6   0  -7   34.71    1.42
   6   0   7   32.49    1.17
   6   0   8    0.68    0.18
  -6   0  -8    0.93    0.27
   6   0   8    0.80    0.23
  -6   0  -8    1.03    0.35
   6   0   8    0.87    0.23
   6   0   9    0.06    0.12
  -6   0  -9   -0.11    0.15
   6   0   9    0.08    0.13
  -6   0  -9   -0.13    0.18
   6   0   9    0.29    0.14
   6   0  10    1.12    0.24
  -6   0 -10    1.07    0.31
   6   0  10    0.78    0.21
  -6   0 -10    1.08    0.33
   6   0  11    0.29    0.15
  -6   0 -11   -0.03    0.17
  -6   0 -11    0.39    0.25
   6   0  12    1.28    0.29
  -6   0 -12    1.43    0.37
  -6   0 -12    1.44    0.39
   6   0  13    1.14    0.29
  -6   0 -13    1.60    0.40
  -6  -1  13    3.69    0.54
   6   1 -13    4.86    0.63
  -6  -1  13    3.88    0.54
   6   1 -12    1.22    0.36
   6   1 -12    1.22    0.32
  -6  -1  12    0.91    0.28
   6   1 -11    5.55    0.66
   6   1 -11    4.05    0.53
  -6  -1  11    4.33    0.53
   6   1 -10    3.89    0.54
   6   1 -10    3.24    0.46
  -6  -1  10    3.77    0.47
   6   1  -9    0.27    0.15
   6   1  -9    0.61    0.26
  -6  -1   9    0.63    0.23
   6   1  -8   12.04    0.80
  -6  -1   8   13.07    0.74
   6   1  -8   12.55    0.77
  -6  -1   8   11.12    0.70
  -6  -1   7    2.11    0.31
   6   1  -7    2.01    0.33
   6   1  -7    2.18    0.32
  -6  -1   7    1.79    0.29
   6   1  -6   15.24    0.79
  -6  -1   6   15.96    0.79
   6   1  -6   16.96    0.83
  -6  -1   6   15.91    0.76
   6   1  -5    4.68    0.42
   6   1  -5    4.80    0.33
  -6  -1   5    3.71    0.38
   6   1  -5    4.38    0.41
  -6  -1   5    4.55    0.40
  -6  -1   4    0.61    0.17
  -6  -1   4    0.60    0.15
   6   1  -4    0.62    0.17
   6   1  -4    0.75    0.15
   6   1  -4    0.63    0.17
   6   1  -3   10.44    0.52
   6   1  -3   10.44    0.51
  -6  -1   3   10.77    0.63
   6   1  -3    9.69    0.58
  -6  -1   3    9.83    0.54
  -6  -1   2    0.41    0.15
  -6  -1   2    0.35    0.18
   6   1  -2    0.13    0.09
   6   1  -2    0.31    0.13
   6   1  -2    0.26    0.14
   6   1  -1   25.72    0.68
   6   1  -1   24.98    0.84
  -6  -1   1   25.74    0.94
  -6  -1   1   24.94    0.81
   6   1  -1   24.64    0.86
  -6  -1   0    1.80    0.22
   6   1   0    1.93    0.17
   6   1   0    2.24    0.28
  -6  -1   0    1.87    0.29
   6   1   0    1.89    0.26
  -6  -1  -1    0.08    0.08
   6   1   1    0.18    0.06
  -6  -1  -1    0.25    0.06
  -6  -1  -1    0.28    0.21
   6   1   1   -0.07    0.17
   6   1   2   32.38    0.52
   6   1   2   32.83    0.82
  -6  -1  -2   33.64    1.15
   6   1   2   33.53    1.06
  -6  -1  -2   32.46    0.84
  -6  -1  -3    0.34    0.26
   6   1   3    0.33    0.11
   6   1   3    0.00    0.18
   6   1   4    7.47    0.43
  -6  -1  -4    7.59    0.62
   6   1   4    7.55    0.54
   6   1   5   11.58    0.56
   6   1   5   12.06    0.67
  -6  -1  -5   11.97    0.79
   6   1   5   11.76    0.66
  -6  -1  -6   12.41    0.71
   6   1   6   11.85    0.60
   6   1   6   12.58    0.71
  -6  -1  -6   11.86    0.80
   6   1   6   12.83    0.70
  -6  -1  -7    8.01    0.60
   6   1   7    7.55    0.51
   6   1   7    8.11    0.59
  -6  -1  -7    6.52    0.63
   6   1   7    6.78    0.53
  -6  -1  -8    4.44    0.48
   6   1   8    4.76    0.43
   6   1   8    4.02    0.43
  -6  -1  -8    3.70    0.50
   6   1   8    3.81    0.41
   6   1   9    0.83    0.21
  -6  -1  -9    1.15    0.27
   6   1   9    0.74    0.21
  -6  -1  -9    0.85    0.30
   6   1   9    1.00    0.22
   6   1  10    0.14    0.10
  -6  -1 -10   -0.12    0.17
   6   1  10    0.05    0.11
  -6  -1 -10    0.01    0.21
   6   1  10    0.00    0.10
  -6  -1 -11    4.45    0.55
   6   1  11    5.00    0.51
  -6  -1 -11    5.55    0.67
   6   1  12   -0.01    0.12
  -6  -1 -12    0.00    0.15
  -6  -1 -12   -0.14    0.23
   6   1  13    1.55    0.33
  -6  -1 -13    1.27    0.39
   6   2 -12    0.65    0.33
   6   2 -12    0.62    0.25
  -6  -2  12    0.40    0.21
   6   2 -11    7.76    0.78
   6   2 -11    7.92    0.74
  -6  -2  11    7.82    0.73
   6   2 -10    1.32    0.35
   6   2 -10    1.70    0.35
  -6  -2  10    1.28    0.31
   6   2  -9    1.30    0.33
   6   2  -9    0.63    0.21
   6   2  -9    1.09    0.25
  -6  -2   9    1.39    0.32
   6   2  -8    5.01    0.54
   6   2  -8    5.16    0.51
  -6  -2   8    3.82    0.46
   6   2  -7    5.94    0.56
  -6  -2   7    5.51    0.45
   6   2  -7    5.74    0.54
  -6  -2   7    5.26    0.50
   6   2  -6    5.95    0.51
  -6  -2   6    5.35    0.43
   6   2  -6    5.81    0.51
  -6  -2   6    5.78    0.50
  -6  -2   5    2.46    0.33
  -6  -2   5    2.18    0.28
   6   2  -5    3.02    0.35
   6   2  -5    2.42    0.33
  -6  -2   4    1.83    0.28
  -6  -2   4    1.37    0.22
   6   2  -4    1.21    0.22
   6   2  -4    1.40    0.26
   6   2  -3    4.79    0.37
   6   2  -3    4.37    0.33
   6   2  -3    4.03    0.39
  -6  -2   3    4.27    0.39
  -6  -2   3    4.04    0.39
   6   2  -2   20.29    0.69
   6   2  -2   20.78    0.73
   6   2  -2   20.77    0.83
  -6  -2   2   21.53    0.86
  -6  -2   2   22.88    0.86
   6   2  -1    8.72    0.41
   6   2  -1    8.52    0.48
  -6  -2   1    8.97    0.54
   6   2  -1    8.20    0.52
  -6  -2   1    9.81    0.55
  -6  -2   0    0.30    0.11
   6   2   0    0.59    0.11
   6   2   0    0.61    0.17
  -6  -2   0    0.56    0.19
   6   2   0    0.63    0.19
   6   2   1    6.40    0.26
   6   2   1    6.41    0.45
  -6  -2  -1    7.31    0.52
  -6  -2  -1    6.40    0.41
  -6  -2  -2    0.07    0.09
   6   2   2   -0.02    0.12
  -6  -2  -2    0.10    0.19
   6   2   2   -0.19    0.22
   6   2   3   66.76    1.47
   6   2   3   66.90    1.25
   6   2   3   64.31    1.45
  -6  -2  -3   64.67    1.59
   6   2   4    0.19    0.16
  -6  -2  -4    0.28    0.20
   6   2   4    0.04    0.08
   6   2   4   -0.16    0.19
   6   2   5   14.12    0.62
   6   2   5   14.07    0.72
  -6  -2  -5   13.91    0.82
   6   2   5   13.56    0.69
  -6  -2  -6   61.68    1.51
   6   2   6   63.36    1.38
   6   2   6   60.85    1.52
  -6  -2  -6   58.65    1.71
   6   2   6   61.82    1.50
  -6  -2  -7    0.76    0.22
   6   2   7    0.77    0.20
  -6  -2  -7    1.01    0.28
   6   2   7    0.73    0.17
   6   2   7    0.76    0.20
  -6  -2  -8   39.26    1.31
   6   2   8   41.42    1.24
   6   2   8   41.02    1.32
  -6  -2  -8   39.26    1.52
   6   2   8   40.51    1.26
  -6  -2  -9   19.33    0.97
   6   2   9   20.43    0.96
   6   2   9   20.76    0.93
  -6  -2  -9   19.40    1.12
   6   2   9   22.14    0.95
  -6  -2 -10    0.18    0.15
   6   2  10    0.36    0.18
   6   2  10    0.11    0.12
  -6  -2 -10    0.11    0.27
   6   2  10    0.08    0.11
  -6  -2 -11   34.40    1.43
   6   2  11   37.44    1.35
   6   2  11   36.91    1.37
  -6  -2 -11   32.40    1.58
   6   2  12    1.97    0.35
  -6  -2 -12    1.91    0.38
  -6  -2 -12    1.59    0.38
   6   2  13    3.94    0.50
  -6  -2 -13    4.22    0.58
  -6  -2 -13    2.96    0.56
   6   3 -12    1.49    0.35
   6   3 -11    1.06    0.33
   6   3 -11    0.37    0.16
  -6  -3  11    0.71    0.26
   6   3 -10    1.01    0.34
   6   3 -10    1.91    0.36
  -6  -3  10    1.45    0.35
   6   3  -9    2.07    0.40
   6   3  -9    2.56    0.40
   6   3  -9    2.74    0.39
  -6  -3   9    2.63    0.43
   6   3  -8    1.23    0.31
   6   3  -8    1.06    0.27
   6   3  -8    1.54    0.30
  -6  -3   8    1.59    0.33
   6   3  -7   17.46    0.95
   6   3  -7   18.52    0.97
  -6  -3   7   18.25    0.96
  -6  -3   6    2.50    0.37
   6   3  -6    2.80    0.38
   6   3  -6    2.34    0.35
  -6  -3   5    1.57    0.29
  -6  -3   5    1.52    0.23
   6   3  -5    1.72    0.29
   6   3  -5    1.78    0.31
   6   3  -4   41.47    1.20
  -6  -3   4   39.49    1.25
  -6  -3   4   40.96    1.11
   6   3  -4   42.96    1.34
   6   3  -3   20.21    0.78
   6   3  -3   21.98    0.93
  -6  -3   3   20.75    0.80
  -6  -3   3   21.90    0.91
   6   3  -2   45.12    1.07
   6   3  -2   45.25    1.28
  -6  -3   2   44.50    1.18
  -6  -3   2   47.15    1.30
   6   3  -1   27.54    0.76
   6   3  -1   26.88    0.87
  -6  -3   1   28.20    0.89
   6   3  -1   26.08    0.95
  -6  -3   1   27.37    0.97
  -6  -3   0    0.08    0.16
   6   3   0    0.65    0.13
   6   3   0    0.24    0.11
  -6  -3   0    0.35    0.15
   6   3   0    0.59    0.18
   6   3   1   31.53    0.60
   6   3   1   31.18    0.97
  -6  -3  -1   32.53    1.02
   6   3   1   31.20    0.98
  -6  -3  -1   32.04    0.97
   6   3   2   46.93    1.20
  -6  -3  -2   46.78    1.27
   6   3   2   47.30    1.19
  -6  -3  -2   46.17    1.13
   6   3   3   71.67    1.35
   6   3   3   68.29    1.50
  -6  -3  -3   71.52    1.63
  -6  -3  -3   71.12    1.39
   6   3   4    3.04    0.29
   6   3   4    2.52    0.31
  -6  -3  -4    2.78    0.36
   6   3   5    0.12    0.12
  -6  -3  -5   -0.16    0.23
   6   3   5    0.08    0.10
  -6  -3  -6   36.25    1.11
   6   3   6   38.18    1.09
   6   3   6   35.85    1.16
  -6  -3  -6   34.84    1.29
  -6  -3  -7   20.94    0.89
   6   3   7   21.60    0.86
   6   3   7   20.61    0.91
  -6  -3  -7   20.60    1.04
  -6  -3  -8   17.34    0.85
   6   3   8   17.85    0.82
   6   3   8   17.29    0.86
  -6  -3  -8   16.90    0.99
  -6  -3  -9    6.30    0.54
   6   3   9    5.84    0.49
   6   3   9    6.42    0.54
  -6  -3  -9    6.64    0.66
  -6  -3 -10    8.01    0.64
   6   3  10    8.52    0.63
   6   3  10    8.76    0.63
  -6  -3 -10    8.09    0.74
  -6  -3 -11    7.19    0.64
   6   3  11    7.53    0.61
   6   3  11    7.88    0.63
  -6  -3 -11    7.09    0.74
  -6  -3 -12    8.58    0.74
   6   3  12    8.99    0.71
  -6  -3 -12    7.34    0.79
   6   3  13    2.70    0.41
  -6  -3 -13    3.00    0.48
  -6  -3 -13    3.12    0.57
   6   3  14    0.07    0.13
  -6  -3 -14    0.72    0.33
   6   4 -11    0.84    0.29
  -6  -4  11    0.97    0.32
   6   4 -10    0.25    0.25
   6   4 -10    0.15    0.12
  -6  -4  10    0.35    0.25
   6   4  -9    5.52    0.62
   6   4  -9    6.46    0.60
   6   4  -9    5.72    0.58
  -6  -4   9    5.96    0.64
   6   4  -8    6.51    0.65
   6   4  -8    5.78    0.55
   6   4  -8    6.73    0.61
  -6  -4   8    6.60    0.65
   6   4  -7    8.28    0.69
   6   4  -7    8.11    0.62
   6   4  -7    8.29    0.68
  -6  -4   7    7.57    0.66
   6   4  -6    5.15    0.52
   6   4  -6    5.97    0.56
  -6  -4   6    5.51    0.54
  -6  -4   5    1.89    0.33
   6   4  -5    2.18    0.33
   6   4  -5    1.50    0.29
   6   4  -4    4.74    0.44
   6   4  -4    4.60    0.38
  -6  -4   4    4.34    0.35
   6   4  -4    4.38    0.47
  -6  -4   4    4.28    0.46
   6   4  -3   10.80    0.61
   6   4  -3    9.97    0.67
  -6  -4   3   10.93    0.55
  -6  -4   3    9.99    0.66
   6   4  -2   12.98    0.61
   6   4  -2   12.11    0.70
  -6  -4   2   11.91    0.59
  -6  -4   2   12.45    0.71
  -6  -4   1    3.60    0.39
   6   4  -1    3.18    0.29
  -6  -4   1    3.17    0.30
   6   4  -1    3.21    0.37
  -6  -4   0    0.66    0.17
   6   4   0    0.81    0.14
  -6  -4   0    0.91    0.18
   6   4   0    0.90    0.21
   6   4   1    8.86    0.35
   6   4   1    9.11    0.54
  -6  -4  -1    8.67    0.52
   6   4   1    8.79    0.55
  -6  -4  -1    8.39    0.54
   6   4   2   17.65    0.77
  -6  -4  -2   18.07    0.78
   6   4   2   19.25    0.78
  -6  -4  -2   18.57    0.77
   6   4   3   17.31    0.70
   6   4   3   17.09    0.76
  -6  -4  -3   17.53    0.80
   6   4   3   17.29    0.73
  -6  -4  -3   17.20    0.73
   6   4   4    0.07    0.13
  -6  -4  -4   -0.03    0.19
   6   4   4    0.26    0.12
   6   4   4    0.31    0.14
   6   4   5    4.75    0.39
   6   4   5    4.16    0.40
  -6  -4  -5    4.18    0.44
   6   4   5    4.18    0.36
   6   4   6    0.32    0.16
  -6  -4  -6    0.08    0.11
   6   4   6    0.03    0.13
  -6  -4  -6    0.08    0.18
   6   4   6    0.33    0.13
  -6  -4  -7   10.63    0.61
   6   4   7   11.39    0.64
   6   4   7   10.12    0.64
  -6  -4  -7   11.06    0.75
   6   4   7   11.22    0.57
  -6  -4  -8    9.78    0.62
   6   4   8    8.26    0.57
   6   4   8    8.39    0.60
  -6  -4  -8    7.67    0.66
   6   4   8    9.25    0.52
  -6  -4  -9    5.07    0.47
   6   4   9    6.06    0.51
   6   4   9    3.94    0.42
  -6  -4  -9    5.22    0.58
  -6  -4 -10    7.85    0.62
   6   4  10    7.59    0.59
   6   4  10    7.00    0.57
  -6  -4 -10    8.30    0.76
  -6  -4 -11    0.23    0.13
  -6  -4 -11    0.44    0.29
   6   4  11    0.26    0.15
  -6  -4 -12   14.87    0.94
   6   4  12   16.07    0.94
  -6  -4 -12   14.27    1.07
  -6  -4 -13    4.17    0.53
   6   4  13    3.99    0.51
  -6  -4 -13    3.13    0.55
   6   4  14    2.84    0.44
  -6  -4 -14    3.10    0.48
  -6  -4 -14    1.80    0.40
   6   5 -10    0.52    0.25
  -6  -5  10    0.92    0.32
   6   5  -9    0.00    0.22
   6   5  -9    0.32    0.16
   6   5  -8    0.21    0.23
   6   5  -8   -0.47    0.19
  -6  -5   8   -0.13    0.18
   6   5  -7    9.88    0.79
   6   5  -7    9.47    0.66
   6   5  -7   11.30    0.80
  -6  -5   7    9.58    0.78
   6   5  -6   12.66    0.83
   6   5  -6   12.64    0.72
   6   5  -6   12.99    0.85
  -6  -5   6   13.07    0.86
  -6  -5   5    0.11    0.18
   6   5  -5   -0.14    0.15
   6   5  -5    0.08    0.08
   6   5  -5   -0.01    0.12
  -6  -5   4    0.92    0.27
   6   5  -4    0.93    0.24
   6   5  -4    0.62    0.16
   6   5  -4    0.62    0.20
   6   5  -3   18.10    0.83
   6   5  -3   19.75    0.83
   6   5  -3   17.92    0.94
  -6  -5   3   18.89    0.94
  -6  -5   2    0.87    0.28
  -6  -5   2    0.79    0.16
   6   5  -2    0.64    0.17
   6   5  -2    0.47    0.21
   6   5  -1   21.66    0.77
   6   5  -1   21.94    0.96
  -6  -5   1   22.89    0.98
   6   5   0   21.78    0.70
  -6  -5   0   23.17    0.76
   6   5   0   23.60    0.97
  -6  -5   0   22.25    0.94
  -6  -5  -1   15.21    0.65
   6   5   1   15.67    0.76
  -6  -5  -1   14.38    0.73
   6   5   2   27.48    0.97
  -6  -5  -2   28.52    0.93
  -6  -5  -2   28.01    1.00
  -6  -5  -3   42.25    1.20
   6   5   3   40.25    1.14
  -6  -5  -3   41.26    1.19
  -6  -5  -4    2.71    0.31
  -6  -5  -4    2.89    0.36
   6   5   4    2.89    0.31
   6   5   4    2.47    0.30
   6   5   5   39.45    1.12
  -6  -5  -5   38.44    1.25
   6   5   5   38.26    1.07
   6   5   6   29.02    0.98
  -6  -5  -6   27.61    1.11
   6   5   6   29.10    0.92
  -6  -5  -7   26.52    0.92
   6   5   7   24.54    0.94
  -6  -5  -7   24.90    1.11
   6   5   7   23.03    0.81
  -6  -5  -8   21.72    0.88
   6   5   8   21.15    0.91
  -6  -5  -8   22.85    1.11
   6   5   8   21.74    0.78
  -6  -5  -9    0.17    0.14
  -6  -5  -9    0.25    0.23
   6   5   9   -0.03    0.12
  -6  -5 -10   18.03    0.90
   6   5  10   17.84    0.91
  -6  -5 -10   16.03    1.03
  -6  -5 -11    6.81    0.59
   6   5  11    6.59    0.58
  -6  -5 -11    5.90    0.67
  -6  -5 -12   11.54    0.80
   6   5  12   10.12    0.74
  -6  -5 -12   12.15    0.99
  -6  -5 -13    4.57    0.54
   6   5  13    4.46    0.53
  -6  -5 -13    4.13    0.64
  -6  -5 -14    0.01    0.13
   6   5  14    0.05    0.12
   6   6  -9    2.19    0.44
   6   6  -9    1.98    0.38
  -6  -6   9    1.86    0.41
   6   6  -8    0.41    0.22
   6   6  -8    0.48    0.21
  -6  -6   8    0.31    0.22
  -6  -6   7    4.60    0.56
   6   6  -7    5.38    0.60
   6   6  -7    4.67    0.54
  -6  -6   6   -0.03    0.20
   6   6  -6   -0.18    0.22
   6   6  -6    0.10    0.14
  -6  -6   5    1.95    0.38
   6   6  -5    1.62    0.31
   6   6  -5    2.37    0.39
   6   6  -4    8.70    0.65
   6   6  -4    8.57    0.68
  -6  -6   4    8.45    0.68
   6   6  -3   12.35    0.72
   6   6  -3   11.35    0.65
   6   6  -3   11.03    0.76
  -6  -6   3   11.73    0.78
   6   6  -2   23.63    0.92
   6   6  -2   23.62    0.95
   6   6  -2   22.48    1.06
  -6  -6   2   24.44    1.09
  -6  -6   1    3.99    0.46
   6   6  -1    4.10    0.37
   6   6  -1    4.31    0.41
   6   6  -1    4.75    0.48
  -6  -6   1    4.35    0.33
  -6  -6   0   16.37    0.60
   6   6   0   16.92    0.87
  -6  -6   0   17.26    0.88
  -6  -6  -1   25.14    0.80
   6   6   1   24.79    1.02
  -6  -6  -1   26.76    1.06
  -6  -6  -2    4.39    0.37
   6   6   2    3.98    0.41
  -6  -6  -2    4.38    0.45
  -6  -6  -3   71.33    1.51
   6   6   3   70.04    1.59
  -6  -6  -3   71.43    1.66
  -6  -6  -4    2.14    0.30
  -6  -6  -4    2.18    0.30
   6   6   4    2.23    0.28
  -6  -6  -5    1.09    0.23
  -6  -6  -5    1.02    0.25
   6   6   5    1.04    0.21
   6   6   5    0.90    0.19
   6   6   6   20.89    0.87
  -6  -6  -6   20.60    0.95
   6   6   6   20.80    0.81
  -6  -6  -7    0.67    0.16
  -6  -6  -7    0.85    0.25
   6   6   7    0.66    0.16
   6   6   7    0.58    0.19
  -6  -6  -8    7.08    0.49
   6   6   8    6.17    0.50
  -6  -6  -8    6.36    0.59
   6   6   8    5.71    0.41
  -6  -6  -9    1.35    0.25
  -6  -6  -9    1.16    0.31
   6   6   9    1.49    0.29
  -6  -6 -10    0.17    0.12
  -6  -6 -10    0.00    0.21
   6   6  10   -0.07    0.14
  -6  -6 -11    9.05    0.65
   6   6  11    8.82    0.67
  -6  -6 -11   10.39    0.86
  -6  -6 -12    1.81    0.33
  -6  -6 -12    2.06    0.43
   6   6  12    1.28    0.31
  -6  -6 -13    0.68    0.23
  -6  -6 -13    1.57    0.42
   6   6  13    1.17    0.28
  -6  -6 -14    2.51    0.43
  -6  -6 -14    2.72    0.54
   6   6  14    2.77    0.42
  -6  -6 -15    0.26    0.18
   6   7  -9    0.62    0.25
   6   7  -8    1.18    0.33
   6   7  -8    1.45    0.32
  -6  -7   8    1.75    0.41
   6   7  -7    5.82    0.64
  -6  -7   7    6.68    0.71
   6   7  -7    5.95    0.63
  -6  -7   6    0.32    0.20
   6   7  -6    0.56    0.21
   6   7  -6    0.59    0.24
  -6  -7   5    1.97    0.38
   6   7  -5    2.28    0.37
   6   7  -5    2.54    0.41
  -6  -7   4    0.74    0.26
   6   7  -4    0.75    0.21
   6   7  -4    1.14    0.29
  -6  -7   3    3.36    0.45
   6   7  -3    3.42    0.37
   6   7  -3    2.66    0.39
   6   7  -2    9.52    0.63
   6   7  -2   10.48    0.75
  -6  -7   2   10.96    0.77
  -6  -7   1    3.25    0.43
   6   7  -1    3.35    0.39
   6   7  -1    3.20    0.41
  -6  -7   0    2.34    0.37
   6   7   0    2.41    0.33
   6   7   0    1.73    0.31
   6   7   1    6.75    0.55
   6   7   1    6.77    0.57
  -6  -7  -1    6.56    0.58
  -6  -7  -2    2.77    0.38
  -6  -7  -2    2.94    0.29
   6   7   2    2.86    0.37
  -6  -7  -3   25.27    0.88
   6   7   3   21.72    0.95
  -6  -7  -3   23.87    1.02
  -6  -7  -4    0.23    0.16
  -6  -7  -4   -0.01    0.15
   6   7   4    0.11    0.12
  -6  -7  -5    0.05    0.13
  -6  -7  -5   -0.13    0.17
   6   7   5    0.23    0.15
   6   7   6   32.74    1.11
  -6  -7  -6   33.48    1.19
   6   7   6   32.08    1.07
   6   7   7    6.24    0.50
  -6  -7  -7    5.91    0.53
   6   7   7    6.32    0.47
   6   7   8    9.52    0.64
  -6  -7  -8    9.32    0.54
  -6  -7  -8    8.62    0.68
   6   7   8    9.30    0.56
   6   7   9    9.71    0.66
  -6  -7  -9   10.03    0.60
  -6  -7  -9    9.81    0.74
  -6  -7 -10    5.47    0.47
   6   7  10    5.19    0.51
  -6  -7 -10    5.13    0.58
  -6  -7 -11   14.56    0.80
   6   7  11   14.96    0.88
  -6  -7 -11   14.62    1.00
  -6  -7 -12    8.78    0.66
   6   7  12    8.68    0.69
  -6  -7 -12    9.85    0.87
  -6  -7 -13    0.21    0.16
  -6  -7 -13   -0.12    0.22
   6   7  13   -0.08    0.13
  -6  -7 -14    7.26    0.67
   6   7  14    7.25    0.68
  -6  -7 -14    6.59    0.80
  -6  -7 -15    2.39    0.41
   6   8  -8   -0.10    0.17
   6   8  -7    2.77    0.46
  -6  -8   7    3.75    0.57
  -6  -8   6    0.22    0.25
   6   8  -6    0.03    0.14
  -6  -8   5   -0.22    0.27
   6   8  -5   -0.01    0.16
  -6  -8   4    0.33    0.21
   6   8  -4    0.70    0.27
   6   8  -3    2.41    0.40
  -6  -8   3    2.30    0.40
   6   8  -3    2.01    0.30
  -6  -8   2    1.05    0.32
   6   8  -2    1.17    0.24
   6   8  -2    0.94    0.26
   6   8  -1    7.10    0.57
   6   8  -1    6.50    0.61
  -6  -8   1    6.20    0.59
  -6  -8   0    2.70    0.40
   6   8   0    2.80    0.37
   6   8   0    2.40    0.36
   6   8   1    8.10    0.63
   6   8   1    8.42    0.65
  -6  -8  -1    8.22    0.66
   6   8   2   11.38    0.74
   6   8   2   12.12    0.76
  -6  -8  -2   11.60    0.77
  -6  -8  -3    2.67    0.35
   6   8   3    2.17    0.34
  -6  -8  -3    2.84    0.30
   6   8   3    2.64    0.37
   6   8   4   42.25    1.44
  -6  -8  -4   46.88    1.25
   6   8   4   40.20    1.33
  -6  -8  -4   44.10    1.42
  -6  -8  -5   33.51    1.12
   6   8   5   32.51    1.16
  -6  -8  -5   35.49    1.26
   6   8   6    9.70    0.63
  -6  -8  -6    9.46    0.64
   6   8   6    7.56    0.55
  -6  -8  -6    8.19    0.62
   6   8   7   43.60    1.35
  -6  -8  -7   43.70    1.41
   6   8   7   39.61    1.23
  -6  -8  -8    0.65    0.23
   6   8   8    0.33    0.13
   6   8   8    0.53    0.16
   6   8   9   13.77    0.80
  -6  -8  -9   14.66    0.91
   6   8  10   25.61    1.12
  -6  -8 -10   26.12    1.26
  -6  -8 -11    0.18    0.22
   6   8  11   -0.24    0.19
   6   8  12    5.58    0.60
   6   8  12    4.97    0.54
  -6  -8 -12    6.67    0.71
   6   8  13    2.34    0.40
   6   8  13    2.85    0.44
  -6  -8 -14    0.26    0.23
   6   8  14    0.15    0.14
   6   9  -7   -0.17    0.15
  -6  -9   6    0.63    0.29
   6   9  -6    0.99    0.29
  -6  -9   5    3.42    0.54
   6   9  -5    2.88    0.46
  -6  -9   4    0.48    0.24
   6   9  -4    0.24    0.16
   6   9  -3   11.38    0.85
  -6  -9   3   12.86    0.90
  -6  -9   2    0.66    0.25
   6   9  -2    0.86    0.22
   6   9  -2    1.22    0.31
  -6  -9   1    2.63    0.44
   6   9  -1    2.38    0.36
   6   9  -1    2.35    0.39
  -6  -9   0    2.42    0.41
   6   9   0    1.76    0.30
   6   9   0    1.71    0.33
  -6  -9  -1    0.01    0.17
   6   9   1   -0.04    0.14
   6   9   1    0.17    0.16
  -6  -9  -2    3.49    0.46
   6   9   2    3.93    0.45
   6   9   2    3.39    0.43
  -6  -9  -3    0.98    0.26
   6   9   3    0.72    0.23
   6   9   3    0.87    0.26
   6   9   4    8.31    0.68
   6   9   4    8.45    0.63
  -6  -9  -4    9.52    0.71
  -6  -9  -5   -0.18    0.20
   6   9   5    0.40    0.18
  -6  -9  -5    0.16    0.12
   6   9   5    0.33    0.17
  -6  -9  -6    2.14    0.35
   6   9   6    3.54    0.46
  -6  -9  -6    2.92    0.36
   6   9   6    2.88    0.36
   6   9   7   15.57    0.84
   6   9   7   14.67    0.91
  -6  -9  -7   16.01    0.86
   6   9   7   17.32    0.84
  -6  -9  -7   15.91    0.89
   6   9   8    0.89    0.25
  -6  -9  -8    0.70    0.22
   6   9   8    1.03    0.24
   6   9   8    0.96    0.20
   6   9   9    0.95    0.26
   6   9   9    0.96    0.23
   6   9  10   12.67    0.89
   6   9  10   13.26    0.83
  -6  -9 -10   13.01    0.89
   6   9  11    0.54    0.22
  -6  -9 -11    0.57    0.25
   6   9  11    0.59    0.23
   6   9  12    5.64    0.61
   6   9  12    6.17    0.60
  -6  -9 -12    6.23    0.68
   6   9  13    3.02    0.46
  -6  -9 -13    3.41    0.54
   6   9  13    3.48    0.48
  -6  -9 -14    0.91    0.34
   6   9  14    0.76    0.26
  -6 -10   5    0.10    0.20
   6  10  -5    0.58    0.25
  -6 -10   4    1.10    0.34
   6  10  -4    1.31    0.34
   6  10  -3    5.83    0.63
  -6 -10   3    6.47    0.67
  -6 -10   2   -0.24    0.22
   6  10  -2    0.24    0.16
   6  10  -2   -0.15    0.18
  -6 -10   1    3.65    0.50
   6  10  -1    3.00    0.40
   6  10  -1    3.44    0.48
  -6 -10   0    1.84    0.38
   6  10   0    1.49    0.30
   6  10   0    1.63    0.35
  -6 -10  -1    1.75    0.36
   6  10   1    1.65    0.30
   6  10   1    1.29    0.30
   6  10   2    7.05    0.62
   6  10   2    6.73    0.61
  -6 -10  -2    7.39    0.67
   6  10   3    7.34    0.64
   6  10   3    7.23    0.62
  -6 -10  -3    8.09    0.69
  -6 -10  -4    0.20    0.19
   6  10   4    0.04    0.14
   6  10   4    0.01    0.12
  -6 -10  -5    0.53    0.24
   6  10   5    0.71    0.23
   6  10   5    0.67    0.19
   6  10   6    4.19    0.51
  -6 -10  -6    4.90    0.46
   6  10   6    4.26    0.45
  -6 -10  -6    4.77    0.52
  -6 -10  -7    3.78    0.47
   6  10   7    2.57    0.41
  -6 -10  -7    4.56    0.47
   6  10   7    3.31    0.39
   6  10   8    6.81    0.59
   6  10   8    5.87    0.61
  -6 -10  -8    6.52    0.58
  -6 -10  -8    6.84    0.62
   6  10   9    1.00    0.26
  -6 -10  -9    1.25    0.28
   6  10   9    1.10    0.25
   6  10  10    7.65    0.71
   6  10  10    8.93    0.69
  -6 -10 -10    8.66    0.73
   6  10  11   11.14    0.86
   6  10  11   12.81    0.85
  -6 -10 -11   10.50    0.84
   6  10  12    2.08    0.39
  -6 -10 -12    2.95    0.48
   6  10  12    3.09    0.44
   6  10  13   10.84    0.87
   6  10  13   10.19    0.80
  -6 -10 -13   11.09    0.94
   6  10  14   11.81    0.89
  -6 -10 -14   12.80    1.05
  -6 -11   4    1.46    0.36
   6  11  -4    1.09    0.31
  -6 -11   3   -0.03    0.19
   6  11  -3   -0.09    0.16
  -6 -11   2    1.76    0.37
   6  11  -2    1.90    0.40
  -6 -11   1    1.87    0.39
   6  11  -1    2.43    0.38
   6  11  -1    1.75    0.36
  -6 -11   0    1.16    0.34
   6  11   0    1.03    0.25
   6  11   0    1.18    0.31
   6  11   1   11.73    0.82
   6  11   1   10.94    0.82
  -6 -11  -1   12.62    0.91
  -6 -11  -2    0.17    0.22
   6  11   2    0.23    0.13
   6  11   2    0.18    0.17
  -6 -11  -3    1.19    0.28
   6  11   3    1.69    0.34
   6  11   3    1.45    0.31
   6  11   4    8.44    0.71
   6  11   4    8.73    0.69
  -6 -11  -4    9.23    0.77
  -6 -11  -5    0.21    0.22
   6  11   5   -0.23    0.20
   6  11   5    0.07    0.11
   6  11   6   16.02    1.00
   6  11   6   15.81    0.89
  -6 -11  -6   17.13    1.02
  -6 -11  -7    1.58    0.33
   6  11   7    1.48    0.33
   6  11   7    1.46    0.28
  -6 -11  -8    0.81    0.26
   6  11   8    0.35    0.17
  -6 -11  -8    1.27    0.29
   6  11   9    5.22    0.54
   6  11   9    5.54    0.62
  -6 -11  -9    4.69    0.53
  -6 -11  -9    5.39    0.58
  -6 -11 -10   -0.25    0.23
   6  11  10    0.07    0.13
  -6 -11 -10    0.00    0.15
   6  11  10    0.02    0.13
   6  11  11    6.29    0.67
   6  11  11    6.33    0.62
  -6 -11 -11    6.00    0.64
   6  11  12    0.53    0.22
  -6 -11 -12    0.69    0.29
   6  11  12    0.72    0.24
   6  11  13    0.09    0.14
  -6 -11 -13   -0.04    0.20
   6  11  13    0.27    0.18
  -6 -11 -14    7.97    0.83
  -6 -12   2    1.11    0.34
   6  12  -2    0.68    0.25
  -6 -12   1    1.32    0.33
   6  12  -1    1.49    0.33
   6  12  -1    1.50    0.34
  -6 -12   0    0.20    0.24
   6  12   0    0.41    0.18
   6  12   0    0.40    0.22
   6  12   1    2.14    0.38
   6  12   1    1.60    0.33
  -6 -12  -2    0.26    0.22
   6  12   2    0.41    0.17
   6  12   2   -0.13    0.17
  -6 -12  -3    0.25    0.19
   6  12   3    0.01    0.15
   6  12   3    0.24    0.18
   6  12   4    4.81    0.56
   6  12   4    4.34    0.51
  -6 -12  -4    6.15    0.66
  -6 -12  -5   -0.08    0.26
   6  12   5    0.08    0.16
   6  12   5    0.31    0.19
  -6 -12  -6    2.59    0.44
   6  12   6    2.69    0.43
   6  12   6    3.19    0.43
  -6 -12  -7    1.74    0.37
   6  12   7    1.35    0.32
   6  12   7    1.98    0.34
  -6 -12  -8   -0.21    0.22
   6  12   8   -0.01    0.18
  -6 -12  -9    1.53    0.37
   6  12   9    1.52    0.35
  -6 -12 -10    0.65    0.24
   6  12  10    0.39    0.20
  -6 -12 -10    0.51    0.21
  -6 -12 -11    4.49    0.58
   6  12  11    3.43    0.51
  -6 -12 -11    3.29    0.48
   6  12  11    4.21    0.52
   6  12  12    1.23    0.33
  -6 -12 -12    0.85    0.28
   6  12  12    0.74    0.26
   6  12  13    0.18    0.18
  -6 -12 -13    0.02    0.20
   6  12  13    0.07    0.15
  -6 -13   1    0.51    0.26
  -6 -13   0    0.01    0.21
   6  13   0    0.13    0.14
   6  13   0   -0.15    0.21
  -6 -13  -1    1.29    0.33
   6  13   1    1.18    0.33
   6  13   1    1.45    0.34
  -6 -13  -2    4.62    0.61
   6  13   2    2.91    0.45
   6  13   2    3.91    0.53
  -6 -13  -3   -0.26    0.25
   6  13   3    0.14    0.15
   6  13   3    0.18    0.19
  -6 -13  -4    4.14    0.58
   6  13   4    3.90    0.52
   6  13   4    3.46    0.48
  -6 -13  -5    2.49    0.44
   6  13   5    2.79    0.46
   6  13   5    2.35    0.40
  -6 -13  -6    0.12    0.19
   6  13   6   -0.09    0.21
   6  13   6    0.18    0.12
   6  13   7    6.22    0.67
   6  13   7    6.34    0.59
  -6 -13  -7    7.40    0.74
   6  13   8    4.38    0.58
  -6 -13  -8    5.62    0.64
  -6 -13  -9   -0.27    0.16
   6  13   9    0.38    0.20
   6  13  10   10.20    0.87
  -6 -13 -10   13.59    1.01
  -6 -13 -11    1.32    0.36
   6  13  11    0.84    0.26
  -6 -13 -12    0.64    0.27
   6  13  12    0.75    0.29
   6  13  12    0.84    0.27
  -6 -13 -12    0.86    0.27
   6  13  13    2.67    0.47
  -6 -13 -13    2.39    0.45
   6  14   0    0.77    0.26
  -6 -14  -1    0.01    0.19
   6  14   1   -0.10    0.14
  -6 -14  -2    1.21    0.36
   6  14   2    1.13    0.30
   6  14   2    0.82    0.27
   6  14   3   -0.06    0.14
   6  14   3    0.16    0.15
  -6 -14  -4   -0.02    0.18
   6  14   4   -0.03    0.13
   6  14   4    0.15    0.11
  -6 -14  -5    4.09    0.59
   6  14   5    4.34    0.58
   6  14   5    3.28    0.48
  -6 -14  -6    0.27    0.20
   6  14   6    1.15    0.33
   6  14   6    1.07    0.29
  -6 -14  -7    0.05    0.19
   6  14   7    0.26    0.19
   6  14   7    0.10    0.13
  -6 -14  -8    0.61    0.25
   6  14   8    0.54    0.22
  -6 -14  -9    0.88    0.31
   6  14   9    0.24    0.17
  -6 -14 -10    4.26    0.60
   6  14  10    4.18    0.58
  -6 -14 -11    1.51    0.36
   6  14  11    1.61    0.37
  -6 -15  -4    0.16    0.23
   6  15   4    0.21    0.17
  -6 -15  -5    2.40    0.48
   6  15   5    1.97    0.39
  -6 -15  -6    0.32    0.23
   6  15   6    0.52    0.20
  -6 -15  -7    0.60    0.27
  -6 -15  -8    2.12    0.44
  -6 -15  -9    1.33    0.36
   7 -11  -6    2.20    0.44
  -7  11   6    2.21    0.43
  -7  11   5    0.08    0.14
  -7  11   4    0.66    0.24
  -7  10   8    2.47    0.45
   7 -10  -8    2.48    0.45
  -7  10   7    0.36    0.20
   7 -10  -7    0.69    0.28
   7 -10  -6    3.29    0.51
  -7  10   6    3.23    0.50
   7 -10  -6    3.10    0.48
   7 -10  -5    1.42    0.35
  -7  10   5    1.81    0.37
   7 -10  -5    1.87    0.38
   7 -10  -4    0.17    0.20
  -7  10   4   -0.05    0.13
   7 -10  -4   -0.38    0.23
   7 -10  -3    2.02    0.44
  -7  10   3    1.55    0.33
   7 -10  -3    2.01    0.39
   7  -9 -10   -0.08    0.20
  -7   9  10    0.16    0.16
  -7   9   9    0.20    0.19
   7  -9  -9    0.02    0.14
  -7   9   8   -0.07    0.14
   7  -9  -8   -0.16    0.20
  -7   9   7    0.25    0.17
   7  -9  -7    0.10    0.14
   7  -9  -6    0.27    0.19
  -7   9   6    0.07    0.15
   7  -9  -6    0.11    0.16
   7  -9  -5    0.32    0.23
  -7   9   5    0.20    0.15
   7  -9  -4    0.14    0.20
  -7   9   4   -0.20    0.19
   7  -9  -4   -0.04    0.12
   7  -9  -3    0.27    0.20
  -7   9   3    0.32    0.19
   7  -9  -3    0.37    0.18
   7  -9  -2    1.50    0.35
  -7   9   2    1.87    0.36
   7  -9  -2    1.33    0.32
   7  -9  -1    0.24    0.22
  -7   9   1   -0.02    0.17
   7  -9   0   -0.31    0.24
  -7   9  -1    1.03    0.28
  -7   9  -2    0.34    0.18
   7  -8 -11    0.30    0.24
  -7   8  11    0.11    0.19
  -7   8  10    0.83    0.30
   7  -8 -10    1.57    0.37
  -7   8   9    2.40    0.45
   7  -8  -9    1.98    0.38
  -7   8   8    0.14    0.17
   7  -8  -8   -0.13    0.23
   7  -8  -7    0.61    0.22
  -7   8   7    0.29    0.19
   7  -8  -7    0.45    0.20
   7  -8  -6    0.88    0.28
  -7   8   6    0.56    0.26
   7  -8  -6    0.39    0.18
   7  -8  -5    1.43    0.34
  -7   8   5    1.52    0.33
   7  -8  -5    1.03    0.27
   7  -8  -4    3.64    0.50
  -7   8   4    3.20    0.47
   7  -8  -4    3.47    0.46
   7  -8  -3   -0.18    0.18
  -7   8   3    0.09    0.16
   7  -8  -3   -0.03    0.12
   7  -8  -2    6.89    0.63
  -7   8   2    6.43    0.64
   7  -8  -2    7.57    0.73
   7  -8  -1    1.69    0.39
  -7   8   1    1.21    0.30
   7  -8   0    2.05    0.44
  -7   8   0    2.14    0.39
  -7   8  -1   13.56    0.92
  -7   8  -1   14.86    0.95
   7  -8   1   14.83    1.07
   7  -8   2    1.67    0.40
  -7   8  -2    1.55    0.33
  -7   8  -3    1.11    0.30
  -7   8  -4    2.81    0.46
   7  -7 -12    2.33    0.44
   7  -7 -11    9.49    0.84
  -7   7  11   10.25    0.93
  -7   7  10   -0.15    0.23
   7  -7 -10   -0.12    0.21
  -7   7   9    4.81    0.62
   7  -7  -9    5.53    0.60
   7  -7  -8    6.34    0.62
  -7   7   8    6.30    0.68
   7  -7  -7    0.41    0.18
  -7   7   7    0.58    0.24
   7  -7  -7    0.31    0.17
   7  -7  -6    5.33    0.55
  -7   7   6    5.40    0.61
   7  -7  -6    6.52    0.59
   7  -7  -5    1.07    0.27
  -7   7   5    0.82    0.25
   7  -7  -5    1.48    0.29
   7  -7  -4   -0.08    0.16
  -7   7   4    0.06    0.19
   7  -7  -4   -0.15    0.17
   7  -7  -3    1.89    0.37
  -7   7   3    1.42    0.31
   7  -7  -3    1.27    0.27
   7  -7  -2   -0.03    0.19
  -7   7   2    0.10    0.18
   7  -7  -2    0.07    0.12
   7  -7  -1    0.00    0.19
  -7   7   1    0.02    0.12
   7  -7   0    0.07    0.20
  -7   7   0    0.32    0.20
  -7   7   0    0.16    0.14
  -7   7  -1   -0.19    0.16
  -7   7  -1   -0.08    0.15
   7  -7   2    0.71    0.30
  -7   7  -2    0.54    0.22
  -7   7  -2    0.59    0.24
   7  -7   3   -0.15    0.19
  -7   7  -3    0.04    0.09
   7  -7   4    0.75    0.32
  -7   7  -4    0.65    0.25
  -7   7  -5    0.37    0.21
   7  -6 -12    1.61    0.40
  -7   6  12    0.90    0.32
   7  -6 -11    1.04    0.31
  -7   6  11    0.42    0.22
  -7   6  10    1.18    0.30
   7  -6 -10    0.81    0.26
  -7   6   9    1.19    0.33
   7  -6  -9    0.68    0.24
  -7   6   8    2.80    0.45
   7  -6  -8    2.12    0.36
  -7   6   7    0.33    0.21
   7  -6  -7    0.01    0.15
  -7   6   6    1.12    0.29
   7  -6  -6    1.74    0.30
   7  -6  -5    0.42    0.21
  -7   6   5    0.43    0.22
   7  -6  -5    0.12    0.13
   7  -6  -4    1.12    0.28
  -7   6   4    1.36    0.33
   7  -6  -4    0.84    0.23
   7  -6  -3    2.28    0.37
  -7   6   3    2.00    0.37
   7  -6  -3    2.29    0.34
   7  -6  -2    0.58    0.24
  -7   6   2    0.56    0.20
   7  -6  -2    0.73    0.21
   7  -6  -1    0.07    0.16
  -7   6   1   -0.04    0.15
   7  -6  -1   -0.18    0.14
   7  -6   0    0.29    0.24
  -7   6   0   -0.07    0.16
   7  -6   1    3.21    0.47
  -7   6  -1    2.98    0.39
  -7   6  -1    3.16    0.44
  -7   6  -2    5.19    0.55
  -7   6  -2    6.30    0.62
   7  -6   2    6.93    0.69
   7  -6   3   -0.16    0.17
  -7   6  -3   -0.12    0.13
  -7   6  -3    0.01    0.12
   7  -6   4    0.57    0.26
  -7   6  -4    0.64    0.23
  -7   6  -4    0.21    0.15
   7  -6   5    1.94    0.42
  -7   6  -5    1.72    0.37
  -7   6  -5    1.67    0.36
   7  -6   6    1.18    0.35
  -7   6  -6    1.04    0.31
  -7   5  13    0.92    0.31
   7  -5 -12    0.71    0.30
  -7   5  12    0.53    0.23
   7  -5 -11    0.81    0.29
  -7   5  11    0.32    0.21
  -7   5  10    0.83    0.30
   7  -5 -10    0.96    0.29
  -7   5   9    0.37    0.21
   7  -5  -9   -0.06    0.20
   7  -5  -8   10.09    0.74
  -7   5   8    8.92    0.78
   7  -5  -7    9.80    0.70
  -7   5   7    9.37    0.79
   7  -5  -6    2.39    0.34
  -7   5   6    2.14    0.37
   7  -5  -6    2.31    0.34
   7  -5  -5   20.28    0.95
  -7   5   5   19.93    1.10
   7  -5  -5   19.75    0.95
   7  -5  -4   11.88    0.71
  -7   5   4   11.26    0.81
   7  -5  -4   12.35    0.77
   7  -5  -3   14.87    0.79
  -7   5   3   14.75    0.93
   7  -5  -3   15.54    0.87
   7  -5  -2   36.04    1.20
   7  -5  -2   36.52    1.35
  -7   5   2   34.48    1.39
   7  -5  -1    1.25    0.31
  -7   5   1    1.21    0.30
   7  -5  -1    1.01    0.22
  -7   5   0    3.97    0.48
   7  -5   0    5.49    0.57
  -7   5  -1   20.23    0.94
  -7   5  -1   20.00    1.06
   7  -5   1   19.80    1.07
   7  -5   2    2.94    0.45
  -7   5  -2    2.25    0.37
  -7   5  -2    2.54    0.36
   7  -5   3    0.57    0.27
  -7   5  -3    0.63    0.22
  -7   5  -3    0.02    0.22
  -7   5  -3    0.31    0.16
   7  -5   4   -0.07    0.23
  -7   5  -4   -0.24    0.23
  -7   5  -4    0.16    0.16
   7  -5   5    0.39    0.22
  -7   5  -5    0.22    0.15
  -7   5  -5    0.58    0.27
   7  -5   6    2.96    0.48
  -7   5  -6    2.39    0.43
  -7   5  -6    3.16    0.48
   7  -5   7    0.27    0.23
  -7   5  -7    0.13    0.19
  -7   4  13    0.06    0.17
   7  -4 -12    4.65    0.60
  -7   4  12    3.96    0.57
   7  -4 -11   -0.07    0.20
  -7   4  11    0.13    0.15
   7  -4 -10    9.65    0.78
  -7   4  10    8.58    0.80
   7  -4  -9    7.04    0.64
  -7   4   9    6.95    0.70
  -7   4   8    0.14    0.23
   7  -4  -8    0.02    0.14
   7  -4  -7    8.06    0.63
  -7   4   7    7.93    0.71
  -7   4   6    0.17    0.15
   7  -4  -6    0.31    0.17
   7  -4  -6    0.36    0.15
   7  -4  -5    1.95    0.31
  -7   4   5    1.77    0.34
   7  -4  -5    1.63    0.27
   7  -4  -4    6.59    0.51
  -7   4   4    5.52    0.57
   7  -4  -4    6.22    0.53
   7  -4  -3    0.33    0.19
  -7   4   3    0.12    0.15
   7  -4  -3    0.14    0.11
   7  -4  -2    3.78    0.43
  -7   4   2    3.72    0.46
   7  -4  -2    3.45    0.36
   7  -4  -1    0.03    0.17
  -7   4   1    0.00    0.15
   7  -4  -1    0.04    0.09
   7  -4   0    0.36    0.23
  -7   4   0    0.01    0.15
   7  -4   0    0.15    0.08
   7  -4   1    1.96    0.35
  -7   4  -1    1.84    0.36
  -7   4  -1    1.75    0.34
  -7   4  -1    2.14    0.30
  -7   4  -2    3.82    0.41
  -7   4  -2    3.95    0.50
  -7   4  -2    3.92    0.49
   7  -4   2    4.46    0.51
   7  -4   3    0.29    0.22
  -7   4  -3    0.31    0.14
  -7   4  -3    0.01    0.19
   7  -4   4    0.60    0.27
  -7   4  -4    0.52    0.20
  -7   4  -4    0.52    0.23
   7  -4   5    3.41    0.48
  -7   4  -5    2.22    0.38
  -7   4  -5    2.43    0.43
   7  -4   6   -0.01    0.15
  -7   4  -6    0.05    0.15
  -7   4  -6    0.04    0.17
   7  -4   7    0.00    0.15
  -7   4  -7   -0.21    0.17
  -7   4  -7   -0.11    0.19
   7  -4   8   -0.03    0.15
  -7   4  -8    0.26    0.17
  -7   4  -8    0.02    0.18
  -7   3  13    0.24    0.19
   7  -3 -12    1.74    0.41
  -7   3  12    1.83    0.39
   7  -3 -11    0.04    0.20
  -7   3  11    0.01    0.15
   7  -3 -10    0.18    0.17
  -7   3  10    0.27    0.18
  -7   3   9    0.24    0.21
   7  -3  -9   -0.25    0.19
  -7   3   8    0.29    0.15
   7  -3  -8    0.45    0.19
   7  -3  -8    0.34    0.15
   7  -3  -7    3.48    0.41
  -7   3   7    4.56    0.55
  -7   3   6    0.12    0.16
   7  -3  -6    0.03    0.13
   7  -3  -6    0.03    0.10
  -7   3   5    0.46    0.21
   7  -3  -5    0.35    0.15
   7  -3  -5    0.35    0.14
  -7   3   4    3.11    0.42
   7  -3  -4    2.46    0.31
   7  -3  -4    3.09    0.36
   7  -3  -3    6.86    0.48
  -7   3   3    6.13    0.59
   7  -3  -3    5.87    0.50
   7  -3  -2   16.03    0.71
  -7   3   2   14.88    0.90
   7  -3  -2   14.50    0.79
   7  -3  -1    9.24    0.53
  -7   3   1    9.10    0.71
   7  -3  -1    9.55    0.67
   7  -3   0    1.12    0.28
  -7   3   0    1.14    0.29
   7  -3   0    0.92    0.18
   7  -3   1    5.60    0.40
  -7   3  -1    4.81    0.54
   7  -3   1    5.76    0.53
  -7   3  -2   47.17    1.61
  -7   3  -2   46.59    1.33
   7  -3   2   45.87    1.51
   7  -3   3    3.05    0.43
  -7   3  -3    3.36    0.39
  -7   3  -3    3.09    0.46
  -7   3  -4   14.17    0.83
  -7   3  -4   12.85    0.88
   7  -3   4   14.71    0.90
  -7   3  -5   14.95    0.90
  -7   3  -5   13.73    0.93
   7  -3   5   13.94    0.90
   7  -3   6    1.07    0.31
  -7   3  -6    0.57    0.22
  -7   3  -6    0.60    0.26
  -7   3  -7   10.06    0.82
  -7   3  -7   11.10    0.89
   7  -3   7    8.84    0.74
   7  -3   8    0.03    0.17
  -7   3  -8    0.16    0.14
  -7   3  -8    0.19    0.20
   7  -3   9    0.28    0.16
  -7   3  -9    0.84    0.27
  -7   3  -9    0.83    0.31
   7  -2 -12    0.09    0.18
  -7   2  12    0.57    0.22
   7  -2 -11    5.87    0.65
  -7   2  11    5.52    0.62
   7  -2 -10    5.86    0.63
  -7   2  10    4.94    0.58
  -7   2   9   -0.61    0.23
   7  -2  -9   -0.06    0.16
   7  -2  -8   26.18    1.16
  -7   2   8   25.83    1.24
   7  -2  -8   25.69    1.07
  -7   2   7    0.29    0.18
   7  -2  -7    0.94    0.25
   7  -2  -7    0.74    0.19
   7  -2  -6   11.86    0.71
  -7   2   6   10.29    0.75
   7  -2  -6   11.12    0.69
   7  -2  -5   13.06    0.71
  -7   2   5   12.57    0.83
   7  -2  -5   13.05    0.68
  -7   2   4    0.14    0.16
   7  -2  -4    0.07    0.10
   7  -2  -4    0.08    0.14
   7  -2  -3   34.11    1.03
  -7   2   3   33.60    1.32
   7  -2  -3   33.23    1.14
  -7   2   2    0.35    0.18
   7  -2  -2    0.17    0.08
   7  -2  -2    0.61    0.20
   7  -2  -1   15.34    0.64
  -7   2   1   14.52    0.87
   7  -2  -1   13.61    0.77
   7  -2   0   10.69    0.52
  -7   2   0   10.35    0.74
  -7   2   0   10.24    0.74
   7  -2   0    9.83    0.65
   7  -2   1    0.07    0.19
  -7   2  -1   -0.09    0.23
  -7   2  -2   55.28    1.71
  -7   2  -2   54.44    1.32
   7  -2   2   53.09    1.55
   7  -2   3    0.03    0.16
  -7   2  -3   -0.08    0.09
  -7   2  -3    0.15    0.19
   7  -2   4    0.05    0.15
  -7   2  -4    0.05    0.10
  -7   2  -4    0.04    0.18
  -7   2  -5    8.54    0.65
  -7   2  -5    7.83    0.70
   7  -2   5    8.99    0.69
  -7   2  -6    6.09    0.58
  -7   2  -6    6.00    0.65
   7  -2   6    5.98    0.58
   7  -2   7    3.79    0.49
  -7   2  -7    4.88    0.60
   7  -2   8    2.49    0.40
  -7   2  -8    2.59    0.47
  -7   2  -9    2.83    0.51
   7  -2   9    1.93    0.37
  -7   2 -10    0.22    0.23
   7  -1 -12   -0.11    0.23
   7  -1 -12    0.35    0.19
  -7   1  12   -0.03    0.13
   7  -1 -11    5.95    0.67
  -7   1  11    4.86    0.51
   7  -1 -10    1.32    0.33
  -7   1  10    1.50    0.29
  -7   1  10    1.59    0.29
  -7   1   9    0.05    0.12
   7  -1  -9   -0.01    0.17
  -7   1   9   -0.01    0.11
   7  -1  -8   10.78    0.76
  -7   1   8    9.61    0.74
   7  -1  -8    9.49    0.66
  -7   1   8    9.52    0.60
  -7   1   7   -0.01    0.15
   7  -1  -7    0.16    0.16
   7  -1  -7    0.13    0.12
  -7   1   7    0.48    0.16
   7  -1  -6    5.77    0.50
   7  -1  -6    5.71    0.50
  -7   1   6    5.89    0.56
  -7   1   6    5.98    0.43
  -7   1   5   -0.11    0.21
   7  -1  -5    0.16    0.11
   7  -1  -5    0.04    0.10
   7  -1  -5    0.18    0.09
  -7   1   5    0.33    0.12
  -7   1   4    0.99    0.16
  -7   1   4    0.83    0.23
   7  -1  -4    1.32    0.23
   7  -1  -4    0.91    0.19
   7  -1  -3    3.74    0.34
  -7   1   3    2.58    0.38
   7  -1  -3    3.16    0.35
  -7   1   2    0.10    0.17
   7  -1  -2    0.12    0.09
   7  -1  -2   -0.12    0.18
  -7   1   1    0.47    0.21
   7  -1  -1    0.94    0.16
   7  -1  -1    0.77    0.22
   7  -1   0    2.35    0.23
  -7   1   0    1.77    0.34
   7  -1   0    1.81    0.31
  -7   1  -1    5.08    0.52
   7  -1   1    5.79    0.50
   7  -1   2    1.84    0.32
  -7   1  -2    1.31    0.31
   7  -1   3    0.00    0.17
  -7   1  -3    0.06    0.11
  -7   1  -3   -0.23    0.22
   7  -1   4    0.00    0.15
  -7   1  -4    0.09    0.10
  -7   1  -4    0.05    0.19
  -7   1  -5    4.37    0.55
   7  -1   5    4.34    0.47
  -7   1  -6   10.34    0.81
   7  -1   6    9.43    0.69
   7  -1   7    1.51    0.31
  -7   1  -7    1.11    0.34
  -7   1  -8    3.47    0.55
   7  -1   8    3.25    0.44
   7  -1   9    1.40    0.31
  -7   1  -9    1.40    0.40
   7  -1   9    1.15    0.28
   7  -1  10    0.73    0.25
  -7   1 -10    1.93    0.44
  -7   1 -11    5.02    0.69
   7   0 -12    0.39    0.22
   7   0 -12   -0.25    0.25
  -7   0  12   -0.15    0.18
   7   0 -11    4.29    0.58
   7   0 -11    4.93    0.61
  -7   0  11    3.79    0.48
   7   0 -10    0.31    0.25
  -7   0  10    0.15    0.13
   7   0  -9    0.50    0.21
  -7   0   9    0.20    0.13
  -7   0   9    0.32    0.15
   7   0  -8    4.64    0.52
  -7   0   8    5.21    0.52
   7   0  -8    5.29    0.51
  -7   0   8    5.76    0.50
   7   0  -7    8.48    0.65
  -7   0   7    7.93    0.64
   7   0  -7    7.64    0.60
  -7   0   7    7.13    0.53
  -7   0   6    0.09    0.11
   7   0  -6    0.11    0.13
   7   0  -6    0.28    0.13
  -7   0   6    0.26    0.14
  -7   0   5    0.29    0.12
  -7   0   5    0.41    0.17
   7   0  -5    0.08    0.13
   7   0  -5    0.36    0.13
   7   0  -5    0.47    0.18
   7   0  -4   20.40    0.82
   7   0  -4   21.21    0.80
  -7   0   4   18.94    0.74
  -7   0   4   19.13    0.95
   7   0  -4   18.90    0.86
  -7   0   3    0.10    0.11
  -7   0   3    0.22    0.18
   7   0  -3    0.12    0.13
   7   0  -3    0.30    0.13
   7   0  -2   30.53    0.87
  -7   0   2   30.17    1.18
  -7   0   2   31.13    0.90
   7   0  -2   29.79    1.05
   7   0  -1    3.96    0.30
  -7   0   1    3.46    0.42
  -7   0   1    4.17    0.46
  -7   0   1    3.90    0.33
   7   0  -1    4.73    0.43
  -7   0   0    0.14    0.08
   7   0   0    0.13    0.07
  -7   0   0    0.01    0.20
   7   0   0    0.08    0.16
  -7   0  -1   15.42    0.85
   7   0   1   16.22    0.82
  -7   0  -1   16.47    0.63
  -7   0  -2    0.81    0.15
  -7   0  -2    1.08    0.31
   7   0   2    0.54    0.21
   7   0   3   51.35    1.09
  -7   0  -3   52.53    1.63
   7   0   3   51.23    1.46
  -7   0  -3   52.07    1.11
   7   0   4   11.32    0.54
  -7   0  -4   12.05    0.83
   7   0   4    9.96    0.68
  -7   0  -5    0.29    0.20
   7   0   5    0.67    0.16
   7   0   5    0.93    0.25
   7   0   6   32.84    1.02
  -7   0  -6   30.59    1.36
   7   0   6   30.10    1.19
   7   0   7    1.10    0.27
  -7   0  -7    1.79    0.42
   7   0   7    1.27    0.22
   7   0   7    1.29    0.28
   7   0   8    8.87    0.60
   7   0   8    8.77    0.69
  -7   0  -8    9.09    0.82
   7   0   8    9.04    0.69
  -7   0  -9   12.15    0.88
   7   0   9   12.65    0.75
   7   0   9   11.28    0.79
  -7   0  -9   11.48    0.94
   7   0   9   13.00    0.84
  -7   0 -10    1.16    0.33
   7   0  10    1.00    0.27
  -7   0 -10    0.85    0.32
  -7   0 -11    7.85    0.77
  -7   0 -11    7.81    0.84
   7   1 -12    3.54    0.53
  -7  -1  12    4.01    0.54
   7   1 -11    1.14    0.33
   7   1 -11    1.07    0.31
  -7  -1  11    1.11    0.31
   7   1 -10   -0.06    0.22
  -7  -1  10    0.03    0.16
   7   1  -9   10.57    0.81
   7   1  -9    8.71    0.70
  -7  -1   9    9.00    0.69
  -7  -1   8    1.65    0.29
   7   1  -8    1.46    0.31
   7   1  -8    1.41    0.29
  -7  -1   8    1.38    0.28
   7   1  -7   16.66    0.91
  -7  -1   7   17.57    0.90
   7   1  -7   15.89    0.89
  -7  -1   7   16.42    0.84
   7   1  -6   12.40    0.74
  -7  -1   6   13.30    0.77
   7   1  -6   12.46    0.76
  -7  -1   6   13.28    0.72
  -7  -1   5    0.16    0.17
  -7  -1   5    0.13    0.11
   7   1  -5    0.20    0.15
   7   1  -5    0.25    0.11
   7   1  -5    0.17    0.12
   7   1  -4   41.92    1.19
   7   1  -4   43.41    1.13
  -7  -1   4   44.31    1.40
   7   1  -4   44.20    1.34
  -7  -1   4   41.59    1.18
   7   1  -3   23.18    0.83
   7   1  -3   22.70    0.84
   7   1  -3   22.24    0.94
  -7  -1   3   22.63    0.99
  -7  -1   3   21.57    0.84
   7   1  -2   16.22    0.64
   7   1  -2   16.94    0.74
   7   1  -2   16.10    0.80
  -7  -1   2   16.39    0.85
  -7  -1   2   16.52    0.72
   7   1  -1   12.53    0.51
   7   1  -1   12.36    0.65
  -7  -1   1   13.26    0.74
  -7  -1   1   12.93    0.63
   7   1   0   14.78    0.50
   7   1   0   16.08    0.75
  -7  -1   0   14.25    0.79
  -7  -1   0   14.97    0.66
   7   1   0   14.84    0.76
  -7  -1  -1    0.24    0.11
   7   1   1    0.64    0.23
  -7  -1  -1    0.32    0.20
   7   1   1    0.15    0.17
   7   1   2   12.81    0.71
  -7  -1  -2   12.86    0.79
   7   1   2   13.27    0.73
  -7  -1  -2   12.53    0.57
   7   1   3    6.77    0.42
   7   1   3    7.03    0.54
  -7  -1  -3    6.87    0.60
   7   1   3    7.27    0.56
  -7  -1  -3    6.59    0.42
   7   1   4    0.47    0.18
  -7  -1  -4    0.37    0.23
   7   1   4    0.47    0.12
   7   1   4    0.53    0.21
   7   1   5    4.24    0.36
   7   1   5    3.99    0.43
  -7  -1  -5    3.95    0.50
   7   1   5    4.13    0.44
   7   1   6    2.41    0.35
  -7  -1  -6    3.08    0.47
   7   1   6    2.29    0.28
   7   1   6    2.76    0.37
   7   1   7    1.64    0.31
  -7  -1  -7    2.03    0.42
   7   1   7    2.10    0.28
   7   1   7    1.83    0.32
   7   1   8    1.80    0.32
  -7  -1  -8    1.14    0.34
   7   1   8    1.68    0.28
   7   1   8    1.72    0.31
  -7  -1  -9    3.41    0.46
   7   1   9    3.47    0.40
   7   1   9    3.47    0.44
  -7  -1  -9    3.07    0.52
   7   1   9    3.60    0.44
  -7  -1 -10    5.32    0.60
   7   1  10    4.84    0.50
   7   1  10    6.36    0.61
  -7  -1 -10    5.31    0.70
   7   1  10    5.25    0.53
   7   1  11    1.45    0.30
  -7  -1 -11    1.26    0.33
  -7  -1 -11    1.84    0.46
   7   1  12    1.89    0.35
  -7  -1 -12    2.18    0.46
   7   2 -12    2.85    0.49
   7   2 -11    0.17    0.16
  -7  -2  11    0.11    0.18
   7   2 -10    0.35    0.25
   7   2 -10    0.15    0.15
  -7  -2  10    0.51    0.21
   7   2  -9    1.90    0.39
   7   2  -9    1.92    0.35
  -7  -2   9    2.02    0.38
   7   2  -8    2.15    0.39
   7   2  -8    1.62    0.31
  -7  -2   8    1.80    0.34
   7   2  -7    6.75    0.61
   7   2  -7    7.76    0.66
  -7  -2   7    7.51    0.61
  -7  -2   6    0.21    0.17
  -7  -2   6    0.36    0.15
   7   2  -6   -0.03    0.16
   7   2  -6    0.14    0.15
  -7  -2   5    2.20    0.33
  -7  -2   5    2.26    0.32
   7   2  -5    2.20    0.33
   7   2  -5    1.55    0.29
   7   2  -4    6.48    0.49
   7   2  -4    7.18    0.46
  -7  -2   4    7.06    0.54
   7   2  -4    6.62    0.54
  -7  -2   4    6.56    0.53
   7   2  -3    5.47    0.41
   7   2  -3    5.20    0.40
   7   2  -3    5.51    0.49
  -7  -2   3    5.05    0.46
  -7  -2   3    4.39    0.41
   7   2  -2    5.23    0.37
   7   2  -2    5.39    0.42
   7   2  -2    5.30    0.47
  -7  -2   2    4.95    0.46
  -7  -2   2    5.59    0.46
  -7  -2   1    2.54    0.31
   7   2  -1    3.10    0.27
   7   2  -1    2.86    0.32
  -7  -2   1    2.84    0.34
   7   2  -1    2.89    0.37
   7   2   0   10.03    0.59
  -7  -2   0   10.31    0.65
   7   2   0   10.39    0.64
  -7  -2   0    9.69    0.57
   7   2   1   13.14    0.69
  -7  -2  -1   12.60    0.73
  -7  -2  -1   11.96    0.61
   7   2   2   35.11    1.14
  -7  -2  -2   33.51    1.21
   7   2   2   33.07    1.12
  -7  -2  -2   32.70    0.98
  -7  -2  -3    0.96    0.18
   7   2   3    1.13    0.26
  -7  -2  -3    1.75    0.36
   7   2   3    1.02    0.18
   7   2   3    0.89    0.21
   7   2   4    0.03    0.15
  -7  -2  -4    0.33    0.27
   7   2   4   -0.05    0.08
   7   2   4   -0.32    0.23
   7   2   5   16.61    0.72
   7   2   5   15.62    0.82
  -7  -2  -5   14.70    0.90
   7   2   5   16.48    0.83
   7   2   6    0.53    0.20
  -7  -2  -6    0.67    0.29
   7   2   6    0.29    0.14
   7   2   6    0.24    0.16
   7   2   7    9.06    0.58
   7   2   7    8.67    0.65
  -7  -2  -7    8.24    0.73
   7   2   7    8.82    0.63
  -7  -2  -8    1.51    0.29
   7   2   8    1.30    0.28
  -7  -2  -8    1.12    0.31
   7   2   8    1.46    0.27
   7   2   8    0.91    0.22
  -7  -2  -9    0.19    0.18
   7   2   9    0.29    0.15
  -7  -2  -9    0.23    0.25
   7   2   9    0.19    0.14
   7   2   9    0.11    0.14
  -7  -2 -10    7.59    0.68
   7   2  10    6.10    0.55
   7   2  10    7.07    0.63
  -7  -2 -10    6.38    0.73
   7   2  10    6.65    0.58
  -7  -2 -11   -0.06    0.15
   7   2  11    0.05    0.13
  -7  -2 -11    0.01    0.22
   7   2  11    0.02    0.12
  -7  -2 -12    1.85    0.38
  -7  -2 -12    2.15    0.48
   7   2  12    1.74    0.33
   7   2  13    2.77    0.43
   7   3 -11    0.39    0.26
   7   3 -11    0.53    0.20
  -7  -3  11    0.39    0.25
   7   3 -10    0.35    0.25
   7   3 -10    0.09    0.16
  -7  -3  10   -0.08    0.15
   7   3  -9    0.29    0.21
   7   3  -9    0.67    0.22
   7   3  -9    0.31    0.17
  -7  -3   9    0.95    0.29
   7   3  -8    5.53    0.60
   7   3  -8    5.64    0.58
  -7  -3   8    5.06    0.56
  -7  -3   7   -0.05    0.16
   7   3  -7    0.19    0.19
   7   3  -7    0.22    0.16
  -7  -3   6    0.61    0.21
   7   3  -6    0.24    0.17
   7   3  -6    0.42    0.17
   7   3  -5    5.75    0.51
  -7  -3   5    5.94    0.47
   7   3  -5    5.55    0.55
  -7  -3   5    5.67    0.53
  -7  -3   4    1.13    0.26
  -7  -3   4    1.02    0.21
   7   3  -4    1.23    0.25
   7   3  -4    1.08    0.24
   7   3  -3   17.35    0.75
   7   3  -3   15.82    0.84
  -7  -3   3   16.55    0.79
  -7  -3   3   15.28    0.80
   7   3  -2    7.49    0.46
   7   3  -2    7.64    0.50
   7   3  -2    7.07    0.55
  -7  -3   2    7.67    0.55
  -7  -3   2    7.74    0.57
  -7  -3   1    3.24    0.36
   7   3  -1    3.89    0.31
   7   3  -1    4.26    0.38
  -7  -3   1    3.56    0.37
   7   3  -1    3.94    0.42
   7   3   0   49.14    1.30
  -7  -3   0   48.62    1.33
   7   3   0   47.08    1.34
  -7  -3   0   48.50    1.32
   7   3   1   12.58    0.67
  -7  -3  -1   12.74    0.71
   7   3   1   13.67    0.73
  -7  -3  -1   12.77    0.66
   7   3   2   19.33    0.85
  -7  -3  -2   19.02    0.90
   7   3   2   17.63    0.81
  -7  -3  -2   18.60    0.79
   7   3   3   54.34    1.45
  -7  -3  -3   54.11    1.54
  -7  -3  -3   54.04    1.31
   7   3   4    3.50    0.33
   7   3   4    3.37    0.39
  -7  -3  -4    3.27    0.43
  -7  -3  -4    3.54    0.34
   7   3   5   22.69    0.86
   7   3   5   22.29    0.98
  -7  -3  -5   21.44    1.06
   7   3   6   25.79    0.95
   7   3   6   24.89    1.05
  -7  -3  -6   25.45    1.19
   7   3   7    0.99    0.23
  -7  -3  -7    1.45    0.35
   7   3   7    1.52    0.26
  -7  -3  -8   12.30    0.77
   7   3   8   12.20    0.71
   7   3   8   11.13    0.74
  -7  -3  -8   11.24    0.87
  -7  -3  -9    7.45    0.63
   7   3   9    7.13    0.57
   7   3   9    7.67    0.63
  -7  -3  -9    7.36    0.73
  -7  -3 -10    2.79    0.41
   7   3  10    3.55    0.42
   7   3  10    2.87    0.41
  -7  -3 -10    2.40    0.47
  -7  -3 -11    3.14    0.46
   7   3  11    2.38    0.38
  -7  -3 -11    2.38    0.45
   7   3  11    2.55    0.39
  -7  -3 -12    0.52    0.25
  -7  -3 -12    0.75    0.36
   7   3  12   -0.16    0.18
   7   3  13    4.50    0.54
  -7  -3 -13    4.32    0.66
   7   4 -10    0.55    0.27
  -7  -4  10    0.63    0.27
   7   4  -9    3.73    0.54
   7   4  -9    3.40    0.46
   7   4  -9    3.06    0.45
  -7  -4   9    3.73    0.53
   7   4  -8    6.65    0.68
   7   4  -8    6.75    0.62
   7   4  -8    7.48    0.69
  -7  -4   8    6.98    0.69
   7   4  -7    5.66    0.59
   7   4  -7    6.03    0.61
  -7  -4   7    5.17    0.58
  -7  -4   6    2.04    0.37
   7   4  -6    2.67    0.40
   7   4  -6    1.35    0.31
  -7  -4   5    2.82    0.41
   7   4  -5    3.25    0.41
   7   4  -5    2.98    0.42
   7   4  -4   11.05    0.68
   7   4  -4   11.60    0.79
  -7  -4   4   11.14    0.75
   7   4  -3    6.22    0.48
   7   4  -3    6.25    0.57
  -7  -4   3    5.47    0.44
  -7  -4   3    5.61    0.51
   7   4  -2   11.96    0.61
   7   4  -2   10.22    0.70
  -7  -4   2   10.66    0.62
  -7  -4   2   10.68    0.69
  -7  -4   1   -0.10    0.15
   7   4  -1   -0.01    0.07
  -7  -4   1   -0.13    0.14
   7   4  -1   -0.20    0.17
  -7  -4   0    0.67    0.19
   7   4   0    0.62    0.15
  -7  -4   0    0.83    0.19
   7   4   0    0.89    0.21
   7   4   1    7.87    0.55
  -7  -4  -1    8.09    0.56
   7   4   1    6.95    0.53
  -7  -4  -1    6.96    0.53
  -7  -4  -2    0.60    0.18
   7   4   2    0.34    0.16
  -7  -4  -2    0.36    0.18
   7   4   2    0.35    0.15
   7   4   3   23.65    0.96
  -7  -4  -3   24.10    1.02
   7   4   3   22.49    0.91
  -7  -4  -3   24.21    0.92
  -7  -4  -4    1.74    0.26
   7   4   4    1.53    0.27
  -7  -4  -4    1.52    0.30
   7   4   4    2.05    0.28
   7   4   4    1.83    0.28
   7   4   5    1.06    0.24
  -7  -4  -5    1.16    0.31
   7   4   5    1.09    0.21
   7   4   5    1.27    0.23
   7   4   6   18.78    0.83
   7   4   6   17.93    0.90
  -7  -4  -6   19.38    1.03
   7   4   6   18.85    0.82
   7   4   7    0.30    0.16
  -7  -4  -7    0.13    0.22
   7   4   7    0.13    0.11
   7   4   7    0.10    0.10
  -7  -4  -8    0.36    0.16
   7   4   8   -0.12    0.17
  -7  -4  -8    0.05    0.24
   7   4   8    0.55    0.17
   7   4   8    0.48    0.17
  -7  -4  -9    8.06    0.63
   7   4   9    7.13    0.57
   7   4   9    7.55    0.63
  -7  -4  -9    6.81    0.67
  -7  -4 -10   -0.12    0.17
   7   4  10    0.03    0.13
  -7  -4 -10   -0.33    0.29
   7   4  10   -0.11    0.12
  -7  -4 -11    2.05    0.37
   7   4  11    1.60    0.30
  -7  -4 -11    1.67    0.41
   7   4  11    1.89    0.34
  -7  -4 -12    0.13    0.18
  -7  -4 -12   -0.19    0.29
   7   4  12    0.24    0.14
  -7  -4 -13    0.74    0.27
  -7  -4 -13    0.34    0.27
   7   4  13    0.45    0.20
   7   5  -9    1.14    0.37
   7   5  -9    1.03    0.27
  -7  -5   9    1.62    0.41
   7   5  -8    0.29    0.23
   7   5  -8    0.76    0.27
  -7  -5   8    0.86    0.30
  -7  -5   7    1.85    0.39
   7   5  -7    1.11    0.29
   7   5  -7    1.03    0.29
  -7  -5   6    0.83    0.27
   7   5  -6    0.83    0.25
   7   5  -6    0.86    0.27
  -7  -5   5    1.24    0.30
   7   5  -5    1.28    0.28
   7   5  -5    1.34    0.31
   7   5  -4    6.41    0.55
   7   5  -4    6.56    0.62
  -7  -5   4    6.22    0.58
  -7  -5   3    2.10    0.36
   7   5  -3    2.42    0.33
   7   5  -3    2.28    0.39
   7   5  -2    5.72    0.45
   7   5  -2    5.45    0.55
  -7  -5   2    5.66    0.43
  -7  -5   2    6.08    0.56
  -7  -5   1    0.48    0.20
   7   5  -1    0.56    0.14
  -7  -5   1    0.85    0.19
   7   5  -1    0.35    0.15
  -7  -5   0   -0.07    0.18
  -7  -5   0    0.08    0.10
   7   5   0    0.12    0.16
  -7  -5  -1   26.70    0.94
   7   5   1   24.32    1.01
  -7  -5  -1   25.81    1.05
  -7  -5  -2    0.12    0.13
  -7  -5  -2    0.50    0.19
   7   5   2    0.07    0.13
  -7  -5  -3    5.48    0.49
   7   5   3    4.89    0.45
  -7  -5  -3    5.12    0.45
   7   5   4    5.71    0.50
  -7  -5  -4    6.58    0.55
   7   5   4    6.17    0.49
  -7  -5  -4    6.44    0.51
  -7  -5  -5   -0.22    0.16
   7   5   5    0.14    0.13
  -7  -5  -5   -0.26    0.22
   7   5   5   -0.03    0.11
   7   5   5    0.08    0.11
   7   5   6   37.46    1.19
   7   5   6   35.93    1.28
  -7  -5  -6   36.14    1.37
   7   5   6   38.09    1.16
   7   5   7   16.02    0.81
   7   5   7   14.14    0.82
  -7  -5  -7   13.00    0.86
   7   5   7   13.75    0.70
   7   5   8    0.13    0.12
  -7  -5  -8   -0.05    0.24
   7   5   8    0.05    0.09
   7   5   8    0.12    0.14
  -7  -5  -9   25.64    1.08
   7   5   9   26.50    1.10
  -7  -5  -9   23.83    1.26
  -7  -5 -10   17.50    0.94
   7   5  10   15.78    0.89
  -7  -5 -10   15.77    1.07
  -7  -5 -11    6.73    0.61
   7   5  11    7.06    0.63
  -7  -5 -11    6.23    0.72
  -7  -5 -12   15.14    0.95
   7   5  12   14.74    0.93
  -7  -5 -12   16.16    1.19
  -7  -5 -13   12.78    0.91
   7   5  13   12.53    0.89
  -7  -5 -13   13.17    1.11
   7   6  -9    2.79    0.50
   7   6  -8    3.44    0.53
   7   6  -8    3.36    0.49
  -7  -6   8    3.50    0.53
  -7  -6   7    1.49    0.36
   7   6  -7    1.35    0.34
   7   6  -7    1.44    0.33
  -7  -6   6    1.57    0.36
   7   6  -6    1.01    0.28
   7   6  -6    1.73    0.35
   7   6  -5    6.35    0.59
   7   6  -5    6.58    0.64
  -7  -6   5    6.33    0.63
  -7  -6   4    2.84    0.42
   7   6  -4    3.64    0.43
   7   6  -4    3.00    0.43
   7   6  -3    9.22    0.63
   7   6  -3    8.44    0.60
   7   6  -3    7.71    0.68
  -7  -6   3   10.00    0.74
   7   6  -2    4.53    0.42
   7   6  -2    5.15    0.48
   7   6  -2    4.07    0.49
   7   6  -1    3.72    0.35
   7   6  -1    4.20    0.48
  -7  -6   1    4.62    0.51
   7   6   0   15.56    0.88
  -7  -6   0   16.32    0.89
  -7  -6  -1    6.70    0.46
   7   6   1    6.34    0.57
  -7  -6  -1    6.58    0.57
  -7  -6  -2    9.44    0.58
   7   6   2    8.15    0.60
  -7  -6  -2    9.30    0.66
  -7  -6  -3    6.61    0.52
   7   6   3    6.16    0.51
  -7  -6  -3    6.01    0.52
  -7  -6  -4    8.10    0.60
   7   6   4    7.53    0.56
  -7  -6  -4    8.32    0.60
   7   6   5   26.99    1.03
  -7  -6  -5   26.65    1.10
   7   6   5   25.76    0.99
  -7  -6  -5   26.19    1.04
  -7  -6  -6    0.95    0.26
   7   6   6    1.18    0.24
   7   6   6    1.04    0.20
   7   6   7   12.02    0.71
  -7  -6  -7   10.89    0.77
   7   6   7   10.68    0.63
   7   6   8    5.31    0.50
  -7  -6  -8    5.19    0.57
   7   6   8    4.85    0.42
  -7  -6  -9    7.56    0.57
   7   6   9    6.79    0.58
  -7  -6  -9    7.41    0.70
  -7  -6 -10   20.91    0.99
   7   6  10   20.95    1.03
  -7  -6 -10   20.30    1.19
  -7  -6 -11    0.10    0.14
  -7  -6 -11    0.00    0.22
   7   6  11   -0.21    0.17
  -7  -6 -12    1.08    0.27
  -7  -6 -12    1.53    0.41
   7   6  12    1.27    0.28
  -7  -6 -13    9.89    0.79
   7   6  13    9.51    0.77
  -7  -6 -13   10.59    0.99
  -7  -6 -14    0.23    0.17
   7   7  -8    1.44    0.37
   7   7  -8    2.13    0.40
  -7  -7   7    2.05    0.43
   7   7  -7    1.28    0.33
  -7  -7   6    0.69    0.28
   7   7  -6    0.42    0.22
   7   7  -6    0.25    0.18
   7   7  -5    6.77    0.63
   7   7  -5    7.17    0.69
  -7  -7   5    7.50    0.71
  -7  -7   4    1.04    0.31
   7   7  -4    0.87    0.25
   7   7  -4    0.71    0.24
   7   7  -3    7.34    0.59
   7   7  -3    8.30    0.72
  -7  -7   3    7.86    0.69
  -7  -7   2    0.99    0.28
   7   7  -2    0.99    0.23
   7   7  -2    0.84    0.28
  -7  -7   1    2.68    0.42
   7   7  -1    2.40    0.35
   7   7  -1    1.76    0.34
   7   7   0    8.49    0.64
   7   7   0    7.74    0.67
  -7  -7   0    8.61    0.68
  -7  -7  -1   -0.16    0.24
   7   7   1   -0.15    0.20
  -7  -7  -2    4.24    0.47
  -7  -7  -2    4.17    0.37
   7   7   2    3.71    0.44
  -7  -7  -3    5.51    0.46
   7   7   3    4.78    0.48
  -7  -7  -3    5.37    0.52
  -7  -7  -4    1.25    0.27
  -7  -7  -4    2.17    0.33
   7   7   4    1.81    0.29
  -7  -7  -5    7.05    0.57
   7   7   5    6.86    0.56
  -7  -7  -5    7.62    0.61
  -7  -7  -6    0.28    0.15
  -7  -7  -6    0.58    0.21
   7   7   6    0.64    0.22
   7   7   6    0.31    0.15
   7   7   7    4.04    0.44
  -7  -7  -7    4.97    0.52
   7   7   7    4.08    0.42
  -7  -7  -8    1.63    0.34
   7   7   8    1.24    0.26
   7   7   8    1.33    0.24
  -7  -7  -9   -0.13    0.15
  -7  -7  -9   -0.11    0.20
   7   7   9    0.10    0.15
   7   7  10   12.04    0.80
  -7  -7 -10   11.97    0.73
  -7  -7 -10   11.53    0.89
  -7  -7 -11    0.11    0.16
   7   7  11    0.06    0.12
  -7  -7 -12    0.15    0.15
  -7  -7 -12    0.23    0.20
   7   7  12    0.39    0.17
   7   7  13    5.73    0.61
  -7  -7 -13    4.20    0.50
  -7  -7 -13    5.59    0.74
  -7  -7 -14    0.61    0.23
   7   8  -7    0.00    0.13
  -7  -8   6    0.38    0.24
   7   8  -6    0.48    0.22
  -7  -8   5    2.11    0.42
   7   8  -5    2.53    0.43
  -7  -8   4    0.26    0.23
   7   8  -4    0.02    0.13
   7   8  -3    7.88    0.71
  -7  -8   3    8.76    0.74
  -7  -8   2    0.08    0.19
   7   8  -2    0.22    0.15
   7   8  -2   -0.18    0.20
  -7  -8   1    0.29    0.22
   7   8  -1    0.30    0.17
   7   8  -1    0.24    0.17
   7   8   0    7.23    0.61
   7   8   0    6.87    0.63
  -7  -8   0    7.96    0.68
   7   8   1    6.30    0.58
   7   8   1    5.39    0.57
  -7  -8  -1    5.96    0.59
  -7  -8  -2    1.31    0.30
   7   8   2    1.87    0.34
   7   8   2    1.34    0.29
   7   8   3    4.38    0.50
   7   8   3    3.27    0.42
  -7  -8  -3    4.30    0.50
   7   8   4    6.33    0.56
  -7  -8  -4    7.08    0.62
  -7  -8  -5    5.27    0.48
   7   8   5    5.33    0.51
  -7  -8  -5    5.68    0.54
  -7  -8  -6   12.11    0.76
   7   8   6   11.35    0.72
  -7  -8  -6   11.85    0.78
  -7  -8  -7    1.31    0.29
  -7  -8  -7    0.66    0.24
   7   8   7    1.47    0.30
   7   8   7    1.13    0.24
  -7  -8  -8    1.95    0.36
   7   8   8    2.54    0.37
   7   8   8    1.96    0.29
   7   8   9   20.09    1.01
  -7  -8  -9   20.22    1.11
  -7  -8 -10    2.27    0.42
   7   8  10    1.62    0.31
   7   8  11   13.98    0.90
  -7  -8 -11   14.29    1.02
  -7  -8 -12    1.05    0.34
   7   8  12    0.59    0.23
  -7  -8 -13    2.72    0.55
   7   8  13    2.84    0.44
   7   9  -6   -0.12    0.19
  -7  -9   5    0.51    0.28
   7   9  -5    0.14    0.17
  -7  -9   4    4.85    0.59
   7   9  -4    3.97    0.54
  -7  -9   3   -0.20    0.20
   7   9  -3   -0.13    0.14
  -7  -9   2    0.45    0.24
   7   9  -2    0.32    0.15
   7   9  -2    0.49    0.26
   7   9  -1   11.57    0.78
   7   9  -1   11.06    0.82
  -7  -9   1   12.73    0.90
  -7  -9   0   -0.10    0.20
   7   9   0    0.13    0.15
   7   9   0    0.01    0.17
   7   9   1   18.05    0.99
   7   9   1   18.56    1.04
  -7  -9  -1   19.20    1.08
  -7  -9  -2    4.40    0.53
   7   9   2    4.88    0.53
   7   9   2    3.24    0.44
  -7  -9  -3    0.92    0.26
   7   9   3    0.83    0.25
   7   9   3    0.83    0.25
   7   9   4   18.70    1.05
   7   9   4   15.92    0.91
  -7  -9  -4   19.97    1.07
  -7  -9  -5    0.99    0.28
   7   9   5    1.16    0.29
  -7  -9  -5    0.95    0.23
   7   9   5    1.04    0.25
   7   9   6    6.26    0.63
  -7  -9  -6    7.18    0.58
   7   9   6    6.71    0.58
  -7  -9  -6    7.24    0.63
  -7  -9  -7    2.36    0.37
   7   9   7    2.35    0.39
  -7  -9  -7    2.54    0.39
   7   9   7    2.37    0.35
  -7  -9  -8    0.54    0.21
   7   9   8    0.11    0.15
   7   9   8    0.34    0.19
   7   9   9    8.48    0.68
   7   9   9    7.63    0.71
  -7  -9  -9    7.14    0.68
   7   9  10    0.06    0.13
  -7  -9 -10    0.25    0.22
   7   9  10    0.11    0.15
   7   9  11    4.61    0.57
   7   9  11    5.10    0.55
  -7  -9 -11    5.70    0.66
   7   9  12    0.09    0.17
  -7  -9 -12    0.30    0.24
   7   9  12   -0.20    0.19
   7   9  13    0.95    0.30
  -7  -9 -13    1.18    0.36
   7   9  13    1.14    0.31
  -7 -10   4    2.13    0.44
   7  10  -4    2.01    0.40
  -7 -10   3    0.00    0.22
   7  10  -3    0.30    0.23
  -7 -10   2    0.55    0.27
   7  10  -2    0.41    0.23
  -7 -10   1    4.34    0.57
   7  10  -1    4.11    0.48
   7  10  -1    3.76    0.52
  -7 -10   0    0.58    0.26
   7  10   0    0.65    0.24
   7  10   0    0.42    0.23
   7  10   1    7.22    0.66
   7  10   1    7.71    0.69
  -7 -10  -1    7.30    0.72
  -7 -10  -2    0.04    0.19
   7  10   2    0.31    0.18
   7  10   2    0.38    0.20
  -7 -10  -3    3.56    0.50
   7  10   3    3.92    0.50
   7  10   3    3.00    0.42
   7  10   4   19.28    1.09
   7  10   4   18.46    1.01
  -7 -10  -4   21.59    1.16
  -7 -10  -5    3.34    0.48
   7  10   5    2.65    0.43
   7  10   5    2.33    0.37
   7  10   6    4.96    0.57
   7  10   6    5.85    0.56
  -7 -10  -6    5.51    0.59
  -7 -10  -7    2.91    0.42
   7  10   7    2.48    0.43
  -7 -10  -7    2.56    0.38
   7  10   7    2.82    0.39
  -7 -10  -8    1.08    0.30
   7  10   8    0.71    0.22
  -7 -10  -8    1.22    0.29
   7  10   9    4.23    0.50
   7  10   9    5.20    0.61
  -7 -10  -9    5.09    0.56
  -7 -10  -9    4.89    0.58
   7  10  10    6.14    0.62
   7  10  10    6.05    0.66
  -7 -10 -10    5.82    0.64
   7  10  11   -0.03    0.16
  -7 -10 -11    0.17    0.18
   7  10  11   -0.02    0.13
   7  10  12   -0.05    0.15
  -7 -10 -12   -0.08    0.20
   7  10  12    0.43    0.22
   7  10  13    6.27    0.71
   7  10  13    7.12    0.70
  -7 -10 -13    6.91    0.79
  -7 -11   3    1.08    0.33
   7  11  -3    1.19    0.33
  -7 -11   2    0.14    0.22
   7  11  -2    0.26    0.19
  -7 -11   1    0.26    0.24
   7  11  -1    0.60    0.21
  -7 -11   0    2.04    0.42
   7  11   0    1.28    0.29
   7  11   0    1.29    0.33
  -7 -11  -1    0.16    0.23
   7  11   1    0.01    0.14
   7  11   1   -0.16    0.17
  -7 -11  -2    0.18    0.24
   7  11   2    0.25    0.14
   7  11   2    0.51    0.23
  -7 -11  -3    1.97    0.41
   7  11   3    1.82    0.36
   7  11   3    2.16    0.39
  -7 -11  -4   -0.25    0.27
   7  11   4    0.22    0.19
   7  11   4    0.02    0.13
   7  11   5    8.66    0.76
   7  11   5    7.53    0.66
  -7 -11  -5    8.83    0.79
  -7 -11  -6    0.55    0.26
   7  11   6    0.10    0.16
   7  11   6    0.15    0.13
  -7 -11  -7    1.94    0.38
   7  11   7    1.63    0.36
   7  11   7    2.27    0.35
   7  11   8   12.20    0.93
  -7 -11  -8   13.51    0.87
  -7 -11  -8   15.37    1.00
  -7 -11  -9    1.06    0.32
   7  11   9    1.22    0.34
  -7 -11  -9    1.09    0.29
   7  11  10   15.49    0.98
   7  11  10   16.27    1.10
  -7 -11 -10   16.83    1.05
  -7 -11 -10   17.21    1.10
   7  11  11    5.67    0.62
   7  11  11    6.39    0.69
  -7 -11 -11    5.89    0.67
   7  11  12   -0.14    0.13
  -7 -11 -12    0.28    0.20
   7  11  12    0.25    0.15
   7  11  13    4.04    0.57
  -7 -11 -13    4.74    0.64
  -7 -12   1    1.38    0.35
   7  12  -1    1.35    0.34
  -7 -12   0    2.66    0.49
   7  12   0    2.18    0.39
   7  12   0    2.22    0.42
  -7 -12  -1    1.29    0.37
   7  12   1    1.08    0.28
   7  12   1    1.10    0.30
  -7 -12  -2    0.20    0.20
   7  12   2    0.27    0.15
   7  12   2    0.74    0.28
  -7 -12  -3    2.25    0.44
   7  12   3    1.98    0.37
   7  12   3    1.95    0.37
  -7 -12  -4    1.84    0.39
   7  12   4    2.09    0.40
   7  12   4    1.42    0.32
  -7 -12  -5    3.81    0.56
   7  12   5    4.74    0.58
   7  12   5    4.24    0.52
   7  12   6    0.20    0.19
   7  12   6    0.18    0.16
  -7 -12  -7    0.35    0.20
   7  12   7    0.24    0.16
   7  12   7    0.31    0.15
  -7 -12  -8    1.13    0.30
   7  12   8    1.88    0.40
  -7 -12  -9    2.76    0.47
   7  12   9    2.29    0.43
  -7 -12 -10    4.57    0.60
   7  12  10    3.87    0.56
  -7 -12 -10    3.72    0.51
  -7 -12 -11    1.15    0.33
   7  12  11    1.34    0.33
   7  12  11    0.84    0.27
  -7 -12 -11    1.03    0.31
  -7 -12 -12   -0.01    0.18
   7  12  12    0.12    0.18
   7  12  12   -0.12    0.19
   7  12  13    0.26    0.18
   7  13   0    2.96    0.45
   7  13   1    0.20    0.15
   7  13   1    0.34    0.17
  -7 -13  -2    0.57    0.27
   7  13   2    0.77    0.25
   7  13   2    0.61    0.24
   7  13   3    0.19    0.16
   7  13   3    0.24    0.18
  -7 -13  -4    0.76    0.27
   7  13   4    1.06    0.30
   7  13   4    1.09    0.29
  -7 -13  -5    1.14    0.33
   7  13   5    1.10    0.30
   7  13   5    0.79    0.24
  -7 -13  -6    0.85    0.27
   7  13   6    0.95    0.29
   7  13   6    0.95    0.27
  -7 -13  -7    0.03    0.20
   7  13   7   -0.08    0.14
   7  13   7   -0.15    0.14
  -7 -13  -8    1.13    0.34
   7  13   8    1.14    0.34
  -7 -13  -9    4.35    0.60
   7  13   9    4.94    0.63
  -7 -13 -10   -0.10    0.16
   7  13  10    0.48    0.23
  -7 -13 -11    2.48    0.47
   7  13  11    1.44    0.35
  -7 -13 -12    1.07    0.31
   7  14   2    0.60    0.24
  -7 -14  -3    1.00    0.36
   7  14   3    0.73    0.26
   7  14   3    0.86    0.28
  -7 -14  -4    2.38    0.49
   7  14   4    1.83    0.38
   7  14   4    1.21    0.31
  -7 -14  -5    2.07    0.45
   7  14   5    1.65    0.36
   7  14   5    1.64    0.36
  -7 -14  -6    0.02    0.19
   7  14   6   -0.05    0.14
   7  14   6   -0.07    0.15
  -7 -14  -7    1.89    0.44
   7  14   7    2.16    0.42
  -7 -14  -8    2.24    0.46
   7  14   8    1.72    0.38
  -7 -14  -9    1.35    0.36
   7  15   6    0.75    0.23
   8  -9  -8    1.00    0.31
   8  -9  -7   -0.11    0.15
   8  -9  -6    0.15    0.18
  -8   9   6   -0.30    0.21
   8  -9  -6   -0.27    0.19
   8  -9  -5    0.58    0.27
  -8   9   5    0.84    0.28
   8  -9  -5    0.78    0.24
   8  -9  -4    1.10    0.33
  -8   9   4    0.40    0.21
   8  -9  -4    0.61    0.24
   8  -9  -3    0.59    0.28
  -8   9   3    0.31    0.19
   8  -9  -3    0.13    0.15
  -8   9   2    0.48    0.22
  -8   9   1   -0.17    0.15
   8  -8  -9   -0.02    0.16
  -8   8   8    1.50    0.39
   8  -8  -8    0.87    0.26
  -8   8   7   -0.09    0.24
   8  -8  -7    0.46    0.18
   8  -8  -6    0.55    0.23
  -8   8   6    0.40    0.23
   8  -8  -6    0.79    0.27
   8  -8  -5    1.53    0.35
  -8   8   5    1.20    0.33
   8  -8  -5    1.00    0.27
   8  -8  -4    1.47    0.37
  -8   8   4    1.13    0.31
   8  -8  -4    0.77    0.25
   8  -8  -3    2.07    0.42
  -8   8   3    1.45    0.34
   8  -8  -3    1.78    0.35
  -8   8   2   -0.05    0.18
   8  -8  -2    0.01    0.11
   8  -8  -1    0.10    0.22
  -8   8   1    0.15    0.16
   8  -8   0   -0.18    0.23
  -8   8   0   -0.16    0.16
  -8   8  -1    1.93    0.37
   8  -7 -10    0.43    0.22
  -8   7   9    1.05    0.33
   8  -7  -9    1.36    0.34
  -8   7   8    3.10    0.52
   8  -7  -8    2.84    0.44
  -8   7   7    4.33    0.59
   8  -7  -7    4.85    0.57
   8  -7  -6   -0.12    0.15
  -8   7   6    0.07    0.18
   8  -7  -6   -0.07    0.14
   8  -7  -5    4.58    0.55
   8  -7  -5    4.89    0.54
  -8   7   5    4.88    0.62
   8  -7  -4    7.03    0.64
  -8   7   4    5.19    0.62
   8  -7  -4    6.08    0.64
  -8   7   3    1.69    0.38
   8  -7  -3    1.75    0.33
   8  -7  -2    6.42    0.60
  -8   7   2    6.70    0.69
   8  -7  -2    7.46    0.73
  -8   7   1    4.91    0.60
   8  -7  -1    6.07    0.67
   8  -7   0    0.09    0.19
  -8   7   0    0.20    0.18
   8  -7   1    5.38    0.66
  -8   7  -1    5.49    0.62
   8  -7   2   -0.01    0.21
  -8   7  -2   -0.13    0.18
   8  -6 -11    0.14    0.17
  -8   6  10    0.43    0.24
   8  -6 -10    0.23    0.18
  -8   6   9    0.81    0.27
   8  -6  -9    0.69    0.27
  -8   6   8   -0.16    0.24
   8  -6  -8   -0.04    0.14
  -8   6   7    0.13    0.17
   8  -6  -7   -0.33    0.22
   8  -6  -6    0.65    0.24
  -8   6   6    0.57    0.25
   8  -6  -6    0.61    0.23
   8  -6  -5    0.03    0.18
  -8   6   5    0.41    0.26
   8  -6  -5   -0.03    0.13
   8  -6  -4    0.86    0.28
  -8   6   4    0.61    0.23
   8  -6  -4    0.61    0.22
   8  -6  -3    0.32    0.23
  -8   6   3   -0.01    0.19
   8  -6  -3    0.10    0.11
   8  -6  -2    0.58    0.24
  -8   6   2    1.22    0.31
   8  -6  -2    0.81    0.21
   8  -6  -1    0.75    0.30
  -8   6   1    0.42    0.23
   8  -6   0    0.28    0.23
  -8   6   0   -0.16    0.18
   8  -6   1    0.91    0.32
  -8   6  -1    0.81    0.26
   8  -6   2    1.27    0.38
  -8   6  -2    0.71    0.26
   8  -6   3    0.25    0.21
  -8   6  -3   -0.03    0.12
   8  -6   4    0.89    0.31
  -8   6  -4    0.75    0.25
   8  -5 -11    0.80    0.29
  -8   5  11    0.52    0.28
  -8   5  10    1.26    0.37
   8  -5 -10    1.65    0.35
  -8   5   9    1.14    0.34
   8  -5  -9    1.43    0.31
  -8   5   8    0.68    0.26
   8  -5  -8    0.70    0.24
  -8   5   7    0.33    0.16
   8  -5  -7    0.22    0.15
  -8   5   6    0.69    0.26
   8  -5  -6    0.38    0.16
   8  -5  -6    1.08    0.28
   8  -5  -5    1.72    0.32
  -8   5   5    1.72    0.38
   8  -5  -5    1.25    0.26
   8  -5  -4    0.36    0.19
  -8   5   4    0.09    0.18
   8  -5  -4    0.43    0.17
   8  -5  -3    3.19    0.46
  -8   5   3    4.35    0.56
   8  -5  -3    3.29    0.39
   8  -5  -2    1.97    0.37
  -8   5   2    2.32    0.43
   8  -5  -2    2.26    0.32
  -8   5   1    4.48    0.55
   8  -5  -1    4.87    0.56
   8  -5   0    2.09    0.39
  -8   5   0    1.81    0.37
   8  -5   1    1.04    0.34
  -8   5  -1    0.77    0.27
  -8   5  -2   15.88    1.03
   8  -5   2   17.84    1.11
   8  -5   3    0.26    0.24
  -8   5  -3    0.01    0.15
   8  -5   4    2.33    0.44
  -8   5  -4    2.02    0.40
  -8   5  -4    1.46    0.36
  -8   5  -5    5.23    0.63
  -8   5  -5    5.42    0.63
   8  -5   5    6.82    0.73
  -8   5  -6    0.10    0.18
  -8   4  12    0.02    0.16
   8  -4 -11    0.97    0.32
  -8   4  11    1.10    0.34
  -8   4  10    3.46    0.54
   8  -4 -10    3.71    0.51
  -8   4   9    0.41    0.26
   8  -4  -9    0.20    0.15
   8  -4  -8   14.78    0.92
  -8   4   8   13.75    1.01
   8  -4  -8   13.38    0.84
  -8   4   7    2.88    0.47
   8  -4  -7    2.22    0.36
  -8   4   6    0.60    0.24
   8  -4  -6    0.36    0.15
   8  -4  -6    0.74    0.22
   8  -4  -5   10.43    0.70
  -8   4   5   10.90    0.86
   8  -4  -5   11.35    0.75
  -8   4   4    1.38    0.31
   8  -4  -4    1.34    0.25
   8  -4  -4    1.86    0.34
  -8   4   3    3.99    0.52
   8  -4  -3    5.94    0.50
   8  -4  -3    4.75    0.51
  -8   4   2    0.42    0.21
   8  -4  -2    0.04    0.10
   8  -4  -1    0.65    0.23
  -8   4   1    0.43    0.19
   8  -4   0    1.30    0.31
  -8   4   0    1.32    0.33
   8  -4   1    0.01    0.18
  -8   4  -1    0.08    0.21
  -8   4  -2    7.49    0.73
  -8   4  -2    8.50    0.75
   8  -4   2    9.27    0.76
   8  -4   3    0.56    0.29
  -8   4  -3    0.38    0.23
  -8   4  -3   -0.03    0.22
   8  -4   4    0.20    0.22
  -8   4  -4   -0.13    0.24
   8  -4   5    1.77    0.40
  -8   4  -5    1.53    0.38
   8  -4   6    1.82    0.42
  -8   4  -6    1.94    0.42
   8  -4   7    0.34    0.23
  -8   4  -7    0.21    0.21
  -8   3  12   -0.17    0.17
   8  -3 -11   -0.10    0.21
  -8   3  11   -0.10    0.16
  -8   3  10   -0.31    0.21
   8  -3 -10   -0.21    0.20
  -8   3   9    0.23    0.18
   8  -3  -9   -0.27    0.25
  -8   3   8    3.31    0.49
   8  -3  -8    3.42    0.45
   8  -3  -8    3.60    0.45
  -8   3   7    0.08    0.16
   8  -3  -7   -0.06    0.12
   8  -3  -7    0.19    0.14
  -8   3   6    0.00    0.14
   8  -3  -6   -0.13    0.15
   8  -3  -6    0.18    0.14
  -8   3   5    0.97    0.30
   8  -3  -5    0.88    0.23
   8  -3  -5    0.48    0.18
  -8   3   4    0.03    0.20
   8  -3  -4    0.14    0.12
   8  -3  -4   -0.13    0.17
  -8   3   3    2.17    0.41
   8  -3  -3    1.97    0.28
   8  -3  -3    2.23    0.35
  -8   3   2    0.35    0.20
   8  -3  -2    0.26    0.12
   8  -3  -2    0.57    0.23
   8  -3  -1    1.56    0.32
  -8   3   1    0.44    0.23
   8  -3   0    1.26    0.31
  -8   3   0    1.53    0.34
   8  -3   1    0.33    0.22
  -8   3  -1    0.21    0.20
  -8   3  -1    0.20    0.24
   8  -3   2   -0.08    0.18
  -8   3  -2   -0.24    0.22
   8  -3   3   -0.09    0.17
  -8   3  -3   -0.17    0.26
   8  -3   4    0.61    0.27
  -8   3  -4   -0.24    0.26
   8  -3   5    1.58    0.37
  -8   3  -5    1.51    0.39
   8  -3   6    2.82    0.47
  -8   3  -6    3.26    0.51
   8  -3   7   -0.25    0.22
  -8   3  -7    0.23    0.24
   8  -3   8    1.82    0.38
  -8   3  -8    1.72    0.41
   8  -2 -11    1.02    0.31
  -8   2  11    0.55    0.23
  -8   2  10    1.62    0.34
   8  -2 -10    0.87    0.28
   8  -2  -9    6.92    0.68
  -8   2   9    7.85    0.74
  -8   2   8    2.70    0.43
   8  -2  -8    2.16    0.36
   8  -2  -8    2.85    0.39
  -8   2   7    2.65    0.43
   8  -2  -7    3.41    0.44
   8  -2  -7    3.25    0.42
   8  -2  -6    3.53    0.42
  -8   2   6    4.01    0.51
   8  -2  -6    3.87    0.45
  -8   2   5    1.02    0.27
   8  -2  -5    0.83    0.22
   8  -2  -5    0.53    0.18
   8  -2  -4   26.04    1.00
  -8   2   4   24.63    1.23
   8  -2  -4   27.66    1.11
   8  -2  -3    6.51    0.48
  -8   2   3    6.91    0.66
   8  -2  -3    6.21    0.55
   8  -2  -2    8.41    0.52
  -8   2   2    8.14    0.71
   8  -2  -2    7.10    0.60
  -8   2   1   23.29    1.18
   8  -2  -1   21.93    1.03
  -8   2   0    1.83    0.37
   8  -2   0    1.84    0.33
  -8   2  -1   10.43    0.81
   8  -2   1    9.68    0.71
  -8   2  -2   15.08    0.98
   8  -2   2   14.87    0.89
   8  -2   3    1.07    0.30
  -8   2  -3    0.45    0.22
  -8   2  -4    7.69    0.73
   8  -2   4    7.01    0.65
   8  -2   5    0.57    0.24
  -8   2  -5    0.42    0.22
   8  -2   6    3.06    0.46
  -8   2  -6    2.62    0.46
  -8   2  -7    0.13    0.22
   8  -2   7    0.78    0.29
  -8   2  -8    0.36    0.25
   8  -2   8    0.79    0.28
   8  -2   9    2.31    0.42
  -8   2  -9    2.41    0.49
   8  -2   9    2.57    0.44
   8  -1 -11    2.02    0.43
   8  -1 -10    2.14    0.43
  -8   1  10    1.42    0.31
   8  -1  -9    5.74    0.62
  -8   1   9    6.10    0.63
  -8   1   8    0.76    0.24
   8  -1  -8    1.12    0.30
   8  -1  -8    0.69    0.22
  -8   1   7    1.03    0.29
   8  -1  -7    0.59    0.23
   8  -1  -7    0.76    0.23
   8  -1  -6    3.45    0.42
  -8   1   6    4.02    0.50
   8  -1  -6    4.26    0.47
  -8   1   5    1.45    0.32
   8  -1  -5    1.69    0.27
   8  -1  -5    1.84    0.27
   8  -1  -5    1.74    0.32
   8  -1  -4   15.13    0.75
   8  -1  -4   15.94    0.79
  -8   1   4   15.84    0.96
   8  -1  -4   15.28    0.81
   8  -1  -3    6.48    0.47
  -8   1   3    5.80    0.59
   8  -1  -3    6.46    0.55
  -8   1   2    1.95    0.36
   8  -1  -2    1.30    0.25
  -8   1   1    3.22    0.46
   8  -1  -1    2.99    0.39
  -8   1   0    2.98    0.45
  -8   1   0    2.71    0.42
   8  -1   0    3.60    0.43
  -8   1  -1    2.19    0.39
   8  -1   1    2.48    0.39
  -8   1  -2    5.39    0.59
   8  -1   2    4.67    0.51
  -8   1  -3    0.48    0.27
   8  -1   3    0.63    0.24
  -8   1  -4   -0.07    0.23
   8  -1   4    0.13    0.17
  -8   1  -5    1.78    0.39
   8  -1   5    1.65    0.32
  -8   1  -6   -0.06    0.22
   8  -1   6    0.00    0.18
  -8   1  -7    0.16    0.26
   8  -1   7   -0.10    0.18
   8  -1   8    0.17    0.17
  -8   1  -8    0.27    0.27
   8  -1   8    0.35    0.22
   8  -1   9    0.09    0.16
   8  -1   9    0.06    0.15
   8  -1  10    0.24    0.15
   8   0 -11    0.30    0.25
   8   0 -10    0.18    0.21
  -8   0   9    1.11    0.27
   8   0  -9    0.91    0.28
  -8   0   8    1.69    0.32
   8   0  -8    1.33    0.32
   8   0  -8    1.77    0.32
   8   0  -7    3.53    0.45
  -8   0   7    3.57    0.47
   8   0  -7    3.49    0.44
  -8   0   6   -0.02    0.14
   8   0  -6    0.24    0.15
   8   0  -6    0.19    0.13
  -8   0   5    1.21    0.28
   8   0  -5    1.20    0.24
   8   0  -5    0.87    0.24
   8   0  -4    6.83    0.51
   8   0  -4    6.53    0.50
  -8   0   4    7.24    0.64
   8   0  -4    5.60    0.52
  -8   0   3    1.05    0.26
   8   0  -3    0.88    0.18
   8   0  -3    1.02    0.24
  -8   0   2    0.13    0.17
   8   0  -2    0.04    0.13
   8   0  -2    0.06    0.16
  -8   0   1    0.07    0.15
   8   0  -1    0.25    0.16
   8   0  -1    0.02    0.16
  -8   0   0    8.49    0.68
   8   0   0    8.60    0.65
  -8   0  -1    3.66    0.47
   8   0   1    4.20    0.46
  -8   0  -2    5.41    0.59
   8   0   2    5.41    0.53
  -8   0  -3    7.79    0.70
   8   0   3    7.99    0.64
  -8   0  -4   -0.17    0.20
   8   0   4    0.10    0.19
  -8   0  -5   15.63    1.04
   8   0   5   15.30    0.90
   8   0   6    4.51    0.51
  -8   0  -6    4.64    0.61
   8   0   6    3.71    0.47
   8   0   7    1.38    0.29
  -8   0  -7    1.20    0.34
   8   0   7    1.51    0.33
   8   0   8   14.60    0.95
  -8   0  -8   13.17    1.04
   8   0   8   13.46    0.90
   8   0   9    1.80    0.36
  -8   0  -9    1.81    0.44
   8   0   9    1.66    0.34
   8   0  10    4.84    0.58
  -8   0 -10    4.22    0.64
   8   1 -11    0.24    0.24
   8   1 -11   -0.01    0.17
  -8  -1  11   -0.24    0.19
   8   1 -10    2.44    0.45
  -8  -1  10    2.32    0.40
   8   1  -9    4.05    0.54
  -8  -1   9    3.63    0.46
   8   1  -8    2.76    0.44
   8   1  -8    2.52    0.41
  -8  -1   8    2.73    0.39
  -8  -1   7    0.18    0.14
   8   1  -7   -0.09    0.15
   8   1  -7    0.31    0.16
  -8  -1   7    0.25    0.17
  -8  -1   6    2.73    0.36
  -8  -1   6    1.60    0.30
   8   1  -6    2.34    0.35
   8   1  -6    1.91    0.34
   8   1  -5   12.44    0.74
  -8  -1   5   11.64    0.77
   8   1  -5   12.85    0.81
  -8  -1   5   12.15    0.69
   8   1  -4    5.22    0.45
   8   1  -4    4.97    0.43
  -8  -1   4    5.69    0.56
   8   1  -4    4.74    0.49
  -8  -1   4    5.33    0.45
  -8  -1   3    1.07    0.22
  -8  -1   3    0.85    0.24
   8   1  -3    1.18    0.22
   8   1  -3    1.38    0.25
   8   1  -3    0.95    0.25
   8   1  -2   11.98    0.69
   8   1  -2   11.82    0.75
  -8  -1   2   11.71    0.78
  -8  -1   2   12.66    0.66
  -8  -1   1    0.76    0.18
  -8  -1   1    1.23    0.30
   8   1  -1    1.06    0.23
   8   1   0   52.41    1.47
  -8  -1   0   51.69    1.60
  -8  -1   0   52.55    1.32
   8   1   0   51.56    1.52
   8   1   1   26.92    1.08
  -8  -1  -1   27.36    1.20
  -8  -1  -1   26.44    0.93
   8   1   1   27.30    1.13
  -8  -1  -2   -0.11    0.13
   8   1   2   -0.11    0.16
  -8  -1  -2    0.23    0.23
   8   1   2   -0.09    0.17
   8   1   3   23.95    1.06
  -8  -1  -3   22.00    1.13
   8   1   3   22.59    1.05
  -8  -1  -3   22.39    0.83
   8   1   4    7.67    0.63
  -8  -1  -4    7.36    0.68
   8   1   4    6.84    0.59
   8   1   5   11.53    0.77
  -8  -1  -5   11.59    0.88
   8   1   5   11.56    0.77
   8   1   6   10.78    0.77
  -8  -1  -6   11.14    0.89
   8   1   6   10.12    0.73
   8   1   7    2.73    0.40
  -8  -1  -7    2.91    0.50
   8   1   7    2.46    0.39
   8   1   8    1.03    0.26
  -8  -1  -8    0.83    0.32
   8   1   8    1.34    0.31
   8   1   9    3.73    0.49
  -8  -1  -9    4.94    0.67
   8   1   9    3.70    0.47
   8   1  10    1.06    0.30
  -8  -1 -10    0.71    0.28
   8   1  10    0.23    0.18
   8   1  11    0.18    0.18
   8   2 -11    0.84    0.27
  -8  -2  11    0.89    0.29
   8   2 -10    1.79    0.40
   8   2 -10    1.25    0.33
  -8  -2  10    0.85    0.27
   8   2  -9    5.91    0.65
  -8  -2   9    5.82    0.62
   8   2  -8    3.68    0.50
   8   2  -8    3.04    0.46
  -8  -2   8    3.17    0.45
   8   2  -7    2.36    0.40
   8   2  -7    1.74    0.34
  -8  -2   7    2.33    0.39
   8   2  -6    7.22    0.60
  -8  -2   6    6.33    0.55
   8   2  -6    6.14    0.60
  -8  -2   6    6.40    0.57
  -8  -2   5    1.38    0.28
  -8  -2   5    1.13    0.25
   8   2  -5    1.25    0.26
   8   2  -5    1.16    0.28
   8   2  -4    5.15    0.45
   8   2  -4    5.34    0.44
  -8  -2   4    4.48    0.48
   8   2  -4    4.21    0.47
  -8  -2   4    4.52    0.45
  -8  -2   3    2.03    0.30
  -8  -2   3    1.89    0.32
   8   2  -3    2.25    0.29
   8   2  -3    2.22    0.29
   8   2  -3    1.86    0.32
  -8  -2   2    1.13    0.24
  -8  -2   2    1.42    0.30
   8   2  -2    1.12    0.23
   8   2  -2    1.08    0.24
  -8  -2   1    0.21    0.15
  -8  -2   1    0.08    0.18
   8   2  -1   -0.09    0.14
   8   2  -1   -0.07    0.15
  -8  -2   0    2.53    0.31
   8   2   0    3.02    0.36
  -8  -2   0    2.48    0.37
   8   2   0    2.35    0.35
  -8  -2  -1    0.01    0.15
   8   2   1    0.19    0.15
  -8  -2  -1    0.15    0.18
   8   2   2    3.00    0.38
  -8  -2  -2    3.41    0.43
  -8  -2  -2    2.98    0.34
   8   2   3    3.81    0.44
  -8  -2  -3    4.11    0.51
   8   2   3    4.06    0.45
  -8  -2  -3    3.56    0.35
   8   2   4    4.24    0.38
   8   2   4    4.14    0.47
  -8  -2  -4    4.79    0.55
   8   2   4    4.33    0.47
  -8  -2  -4    4.32    0.39
   8   2   5    3.05    0.34
   8   2   5    3.22    0.43
  -8  -2  -5    2.03    0.40
   8   2   5    3.20    0.41
   8   2   6    5.16    0.45
   8   2   6    4.31    0.49
  -8  -2  -6    4.69    0.59
   8   2   6    4.01    0.46
   8   2   7    0.24    0.17
  -8  -2  -7    0.78    0.31
   8   2   7    0.73    0.20
   8   2   7    0.84    0.25
   8   2   8    0.19    0.17
  -8  -2  -8    0.12    0.21
   8   2   8    0.04    0.16
   8   2   8    0.04    0.10
   8   2   9    8.15    0.63
   8   2   9    7.63    0.69
  -8  -2  -9    8.31    0.83
   8   2   9    8.16    0.68
   8   2  10    0.14    0.13
  -8  -2 -10    0.96    0.40
   8   2  10    0.66    0.21
   8   2  11    0.38    0.17
   8   2  11    0.40    0.16
   8   3 -10    0.82    0.30
   8   3 -10    1.03    0.29
  -8  -3  10    1.33    0.34
   8   3  -9    1.78    0.38
   8   3  -9    1.74    0.35
  -8  -3   9    1.23    0.34
   8   3  -8    1.96    0.40
   8   3  -8    1.51    0.32
  -8  -3   8    1.15    0.31
  -8  -3   7    2.45    0.41
   8   3  -7    3.32    0.46
   8   3  -7    2.87    0.45
  -8  -3   6    0.63    0.22
   8   3  -6    0.49    0.23
   8   3  -6    0.83    0.27
  -8  -3   5    0.29    0.20
  -8  -3   5    0.15    0.15
   8   3  -5    0.08    0.15
   8   3  -5   -0.09    0.15
   8   3  -4   12.39    0.71
  -8  -3   4   11.52    0.72
   8   3  -4   11.65    0.79
  -8  -3   4   11.34    0.73
  -8  -3   3    0.16    0.16
  -8  -3   3    0.00    0.11
   8   3  -3    0.26    0.16
   8   3  -3   -0.12    0.17
  -8  -3   2    0.28    0.14
  -8  -3   2    0.01    0.13
   8   3  -2    0.14    0.10
   8   3  -2    0.39    0.19
   8   3  -1   11.18    0.67
   8   3  -1   10.48    0.70
  -8  -3   1   11.30    0.73
  -8  -3   1   12.12    0.72
   8   3   0    7.87    0.57
  -8  -3   0    8.26    0.61
   8   3   0    7.46    0.59
  -8  -3   0    8.05    0.58
  -8  -3  -1    2.07    0.29
   8   3   1    2.32    0.33
  -8  -3  -1    2.54    0.36
   8   3   1    2.63    0.36
  -8  -3  -2    1.26    0.24
   8   3   2    1.78    0.30
  -8  -3  -2    1.34    0.31
   8   3   2    1.49    0.28
   8   3   3    4.08    0.45
  -8  -3  -3    4.06    0.49
   8   3   3    3.88    0.44
  -8  -3  -3    3.49    0.37
   8   3   4   18.85    0.81
   8   3   4   17.25    0.92
  -8  -3  -4   18.13    1.01
  -8  -3  -4   19.04    0.84
   8   3   5    7.47    0.52
   8   3   5    6.62    0.59
  -8  -3  -5    6.11    0.62
  -8  -3  -5    6.58    0.50
   8   3   6    5.74    0.47
   8   3   6    5.17    0.52
  -8  -3  -6    5.94    0.64
   8   3   7    9.50    0.63
   8   3   7   10.42    0.75
  -8  -3  -7    8.16    0.76
   8   3   8    3.05    0.39
   8   3   8    2.39    0.38
  -8  -3  -8    2.57    0.47
   8   3   9   18.50    0.95
   8   3   9   17.20    1.01
  -8  -3  -9   18.02    1.19
   8   3  10   14.41    0.87
   8   3  10   13.79    0.93
  -8  -3 -10   12.90    1.05
   8   3  11    1.92    0.37
  -8  -3 -11    1.46    0.41
   8   3  11    2.09    0.36
   8   3  12    3.21    0.45
   8   4  -9   -0.07    0.19
  -8  -4   9    0.43    0.24
   8   4  -8    2.66    0.44
   8   4  -8    2.74    0.45
  -8  -4   8    2.67    0.45
  -8  -4   7    0.01    0.20
   8   4  -7   -0.24    0.20
   8   4  -7    0.15    0.18
  -8  -4   6    1.01    0.29
   8   4  -6    1.00    0.25
   8   4  -6    0.64    0.24
   8   4  -5   14.67    0.85
   8   4  -5   15.44    0.98
  -8  -4   5   15.13    0.91
  -8  -4   4    2.61    0.39
   8   4  -4    2.76    0.37
   8   4  -4    2.80    0.44
   8   4  -3    9.04    0.72
  -8  -4   3    7.36    0.56
  -8  -4   3    7.91    0.63
   8   4  -2   17.64    0.97
  -8  -4   2   18.08    0.89
  -8  -4   2   17.72    0.92
   8   4  -1    5.66    0.54
  -8  -4   1    5.88    0.53
  -8  -4   1    5.65    0.52
   8   4   0   30.71    1.14
  -8  -4   0   31.27    1.13
   8   4   0   29.43    1.18
  -8  -4   0   29.84    1.15
  -8  -4  -1    0.45    0.16
   8   4   1    0.68    0.20
  -8  -4  -1    1.07    0.26
   8   4   1    1.02    0.24
  -8  -4  -2    2.93    0.36
   8   4   2    2.85    0.37
  -8  -4  -2    3.23    0.41
   8   4   2    2.81    0.38
   8   4   3    8.12    0.63
  -8  -4  -3    8.85    0.67
   8   4   3    7.80    0.59
  -8  -4  -3    8.74    0.60
  -8  -4  -4    2.01    0.30
   8   4   4    2.10    0.33
  -8  -4  -4    2.24    0.39
   8   4   4    2.38    0.34
   8   4   5    9.75    0.62
   8   4   5    9.46    0.69
  -8  -4  -5    8.97    0.73
   8   4   5    8.67    0.61
  -8  -4  -5    9.73    0.64
   8   4   6   -0.07    0.13
  -8  -4  -6    0.50    0.25
   8   4   6    0.40    0.14
   8   4   6    0.33    0.15
   8   4   7    0.01    0.16
  -8  -4  -7    0.18    0.24
   8   4   7    0.27    0.14
   8   4   7    0.03    0.10
   8   4   8    5.40    0.51
   8   4   8    5.74    0.58
  -8  -4  -8    5.37    0.63
   8   4   8    6.18    0.52
   8   4   9    1.04    0.29
  -8  -4  -9    1.54    0.40
   8   4   9    1.17    0.27
   8   4  10    7.41    0.63
   8   4  10    7.99    0.71
  -8  -4 -10    6.69    0.78
  -8  -4 -11    0.10    0.26
   8   4  11    0.23    0.13
  -8  -4 -12    1.93    0.38
  -8  -4 -12    1.90    0.45
   8   4  12    1.92    0.36
   8   5  -9    0.09    0.23
   8   5  -8    3.59    0.53
   8   5  -8    2.98    0.47
  -8  -5   8    3.27    0.51
  -8  -5   7   -0.03    0.20
   8   5  -7    0.38    0.23
   8   5  -7    0.12    0.17
  -8  -5   6    0.17    0.18
   8   5  -6    0.02    0.14
   8   5  -6    0.03    0.13
   8   5  -5    6.07    0.58
   8   5  -5    6.23    0.66
  -8  -5   5    6.39    0.63
  -8  -5   4    1.64    0.35
   8   5  -4    1.58    0.29
   8   5  -4    1.72    0.36
  -8  -5   3    1.87    0.35
   8   5  -3    1.72    0.34
  -8  -5   2    0.07    0.18
  -8  -5   2    0.03    0.09
   8   5  -2   -0.04    0.15
  -8  -5   1    3.62    0.45
  -8  -5   1    3.75    0.41
   8   5  -1    2.70    0.42
  -8  -5   0   10.81    0.65
   8   5   0    9.74    0.72
  -8  -5   0    9.77    0.71
  -8  -5  -1    0.13    0.15
  -8  -5  -1    0.16    0.13
   8   5   1    0.19    0.16
  -8  -5  -2    0.80    0.20
  -8  -5  -2    1.02    0.24
   8   5   2    0.62    0.20
   8   5   3    6.26    0.55
  -8  -5  -3    6.28    0.55
   8   5   3    5.30    0.50
  -8  -5  -3    6.16    0.53
  -8  -5  -4    1.77    0.29
   8   5   4    1.85    0.33
  -8  -5  -4    1.46    0.32
   8   5   4    1.72    0.29
   8   5   5    4.78    0.49
  -8  -5  -5    5.39    0.56
   8   5   5    4.68    0.46
  -8  -5  -5    4.30    0.44
  -8  -5  -6   -0.10    0.15
   8   5   6   -0.04    0.14
  -8  -5  -6    0.22    0.22
   8   5   6   -0.02    0.12
   8   5   6   -0.02    0.10
   8   5   7   -0.08    0.14
  -8  -5  -7   -0.10    0.23
   8   5   7    0.00    0.12
   8   5   7    0.07    0.10
   8   5   8    4.81    0.49
   8   5   8    4.23    0.50
  -8  -5  -8    5.22    0.62
   8   5   8    4.29    0.43
   8   5   9    1.37    0.31
  -8  -5  -9    1.83    0.40
   8   5   9    1.60    0.32
   8   5  10    4.83    0.52
  -8  -5 -10    4.00    0.60
  -8  -5 -11    0.53    0.25
   8   5  11    0.57    0.21
  -8  -5 -12   -0.13    0.20
  -8  -5 -12    0.05    0.21
   8   5  12   -0.02    0.12
   8   6  -8    2.28    0.44
   8   6  -8    2.18    0.42
  -8  -6   8    2.85    0.51
  -8  -6   7   -0.14    0.20
   8   6  -7    0.10    0.15
   8   6  -7    0.10    0.16
  -8  -6   6    0.37    0.25
   8   6  -6    0.08    0.17
   8   6  -6    0.06    0.20
  -8  -6   5    1.71    0.37
   8   6  -5    1.71    0.33
   8   6  -5    2.53    0.44
  -8  -6   4    1.26    0.34
   8   6  -4    0.49    0.18
   8   6  -4    0.98    0.30
  -8  -6   3    1.74    0.35
   8   6  -3    1.93    0.38
  -8  -6   2    2.07    0.38
   8   6  -2    1.98    0.37
   8   6  -1    9.89    0.76
  -8  -6   1    9.84    0.74
  -8  -6   0    3.56    0.46
   8   6   0    3.62    0.47
  -8  -6  -1    8.59    0.57
   8   6   1    7.46    0.64
  -8  -6  -1    7.28    0.62
  -8  -6  -2    3.13    0.41
  -8  -6  -2    2.96    0.36
   8   6   2    2.70    0.38
  -8  -6  -3   11.10    0.71
   8   6   3    9.27    0.67
  -8  -6  -3    9.23    0.68
  -8  -6  -4   47.55    1.51
   8   6   4   43.77    1.42
  -8  -6  -4   47.06    1.50
  -8  -6  -5    0.47    0.19
   8   6   5    0.70    0.20
   8   6   6   14.22    0.81
  -8  -6  -6   13.15    0.87
   8   6   6   11.90    0.73
  -8  -6  -6   13.85    0.82
   8   6   7   11.92    0.75
  -8  -6  -7   12.15    0.86
   8   6   7   12.00    0.72
  -8  -6  -7   12.47    0.79
  -8  -6  -8    0.21    0.20
   8   6   8    0.15    0.14
   8   6   8    0.08    0.09
   8   6   9   19.00    1.00
  -8  -6  -9   17.07    1.10
  -8  -6 -10    0.82    0.29
   8   6  10    1.62    0.32
  -8  -6 -11    0.89    0.32
   8   6  11    0.52    0.17
  -8  -6 -12    0.02    0.12
  -8  -6 -12   -0.28    0.30
   8   6  12    0.00    0.13
  -8  -6 -13    0.21    0.15
  -8  -7   7    0.12    0.19
   8   7  -7   -0.38    0.28
   8   7  -7   -0.13    0.15
  -8  -7   6    2.40    0.45
   8   7  -6    1.85    0.36
   8   7  -6    1.86    0.39
  -8  -7   5    0.48    0.26
   8   7  -5    0.62    0.23
   8   7  -5    0.37    0.21
  -8  -7   4    3.00    0.47
   8   7  -4    3.49    0.51
  -8  -7   3   -0.11    0.18
   8   7  -3   -0.03    0.16
  -8  -7   2    0.00    0.18
   8   7  -2    0.07    0.10
   8   7  -2    0.18    0.17
   8   7  -1   14.67    0.88
   8   7  -1   11.34    0.86
  -8  -7   1   13.90    0.91
  -8  -7   0    0.27    0.20
   8   7   0    0.31    0.20
   8   7   1    6.23    0.61
  -8  -7  -1    5.84    0.59
  -8  -7  -2    1.06    0.24
   8   7   2    1.37    0.33
  -8  -7  -3   -0.19    0.19
   8   7   3    0.12    0.12
  -8  -7  -4   10.86    0.72
   8   7   4    9.68    0.70
  -8  -7  -4    9.51    0.73
  -8  -7  -5    0.09    0.14
  -8  -7  -5   -0.13    0.18
   8   7   5    0.03    0.12
  -8  -7  -6    3.72    0.45
  -8  -7  -6    3.76    0.48
   8   7   6    3.12    0.39
  -8  -7  -7    2.86    0.41
  -8  -7  -7    2.07    0.36
   8   7   7    2.23    0.35
   8   7   7    2.45    0.36
  -8  -7  -8    3.00    0.46
   8   7   8    3.35    0.44
   8   7   8    3.07    0.38
   8   7   9    7.25    0.63
  -8  -7  -9    7.25    0.72
  -8  -7 -10    0.55    0.28
   8   7  10    0.80    0.25
  -8  -7 -11    1.31    0.38
   8   7  11    1.05    0.28
  -8  -7 -12    0.60    0.29
   8   7  12    0.55    0.22
  -8  -8   6    1.30    0.36
   8   8  -6    0.95    0.32
  -8  -8   5    0.01    0.19
   8   8  -5    0.03    0.16
  -8  -8   4    3.12    0.49
   8   8  -4    3.27    0.50
  -8  -8   3   -0.06    0.19
   8   8  -3    0.13    0.17
  -8  -8   2    0.30    0.21
   8   8  -2    0.21    0.14
   8   8  -2    0.27    0.21
  -8  -8   1    3.78    0.51
   8   8  -1    2.87    0.41
   8   8  -1    3.41    0.48
  -8  -8   0   -0.10    0.17
   8   8   0    0.19    0.15
   8   8   0    0.06    0.19
  -8  -8  -1    3.52    0.48
   8   8   1    2.88    0.42
   8   8   1    2.50    0.42
  -8  -8  -2    0.21    0.19
   8   8   2    0.02    0.16
  -8  -8  -3    0.14    0.17
   8   8   3    0.16    0.15
  -8  -8  -4    7.40    0.58
   8   8   4    6.13    0.58
  -8  -8  -4    7.53    0.68
  -8  -8  -5    4.56    0.49
   8   8   5    3.97    0.47
  -8  -8  -5    5.20    0.56
  -8  -8  -6    0.85    0.25
  -8  -8  -6    0.66    0.25
   8   8   6    0.75    0.21
  -8  -8  -7    4.10    0.51
   8   8   7    4.05    0.46
  -8  -8  -7    5.32    0.56
   8   8   8    8.01    0.67
  -8  -8  -8    7.16    0.68
  -8  -8  -8    8.19    0.70
   8   8   9    5.11    0.55
  -8  -8  -9    5.14    0.61
   8   8  10    9.81    0.77
  -8  -8 -10    9.20    0.83
  -8  -8 -11    1.02    0.31
   8   8  11    1.75    0.37
  -8  -8 -12    0.62    0.31
   8   8  12    0.64    0.25
   8   9  -5    1.25    0.36
  -8  -9   4    0.47    0.27
   8   9  -4    0.21    0.20
  -8  -9   3    0.15    0.23
   8   9  -3    0.62    0.28
  -8  -9   2    2.97    0.47
   8   9  -2    3.41    0.51
  -8  -9   1   -0.07    0.18
   8   9  -1   -0.02    0.13
   8   9  -1    0.09    0.16
  -8  -9   0    4.57    0.57
   8   9   0    5.11    0.56
   8   9   0    4.84    0.58
  -8  -9  -1    0.14    0.20
   8   9   1    0.19    0.16
   8   9   1    0.22    0.17
  -8  -9  -2   -0.12    0.25
   8   9   2    0.46    0.19
   8   9   2    0.15    0.16
   8   9   3   15.44    0.99
   8   9   3   15.31    0.96
  -8  -9  -3   16.26    1.04
  -8  -9  -4    0.93    0.30
   8   9   4    0.26    0.16
   8   9   4    0.53    0.22
   8   9   5    7.40    0.70
   8   9   5    6.28    0.61
  -8  -9  -5    6.60    0.65
  -8  -9  -6    2.48    0.42
  -8  -9  -6    1.96    0.35
   8   9   6    2.08    0.36
  -8  -9  -7    0.03    0.16
  -8  -9  -7    0.19    0.20
   8   9   7   -0.16    0.16
  -8  -9  -8    9.09    0.76
  -8  -9  -8    9.71    0.79
  -8  -9  -9    3.56    0.51
  -8  -9  -9    2.52    0.44
   8   9   9    3.36    0.47
  -8  -9 -10    2.04    0.41
   8   9  10    2.83    0.45
   8   9  11    5.87    0.63
  -8  -9 -11    6.34    0.73
   8   9  12   -0.07    0.18
  -8  -9 -12   -0.29    0.26
   8   9  12    0.05    0.16
   8   9  13    2.75    0.49
  -8 -10   3   -0.43    0.25
   8  10  -3    0.12    0.18
  -8 -10   2    0.69    0.31
   8  10  -2    0.67    0.26
  -8 -10   1    1.30    0.36
   8  10  -1    1.15    0.27
   8  10  -1    1.30    0.34
  -8 -10   0    1.34    0.37
   8  10   0    1.17    0.28
   8  10   0    1.35    0.34
  -8 -10  -1    0.39    0.28
   8  10   1    0.50    0.21
   8  10   1    0.02    0.14
  -8 -10  -2    0.26    0.25
   8  10   2    0.68    0.23
   8  10   2    0.64    0.24
  -8 -10  -3    1.24    0.35
   8  10   3    1.72    0.37
   8  10   3    1.33    0.30
  -8 -10  -4    0.05    0.20
   8  10   4    0.05    0.18
   8  10   4    0.17    0.17
  -8 -10  -5    4.14    0.55
   8  10   5    3.90    0.52
   8  10   5    3.65    0.48
  -8 -10  -6    0.43    0.23
   8  10   6    0.61    0.24
   8  10   6    0.50    0.20
  -8 -10  -7   -0.39    0.25
   8  10   7    0.12    0.16
  -8 -10  -7   -0.15    0.17
   8  10   7   -0.04    0.11
  -8 -10  -8    2.29    0.41
   8  10   8    2.15    0.42
  -8 -10  -8    1.83    0.35
  -8 -10  -9    4.18    0.54
   8  10   9    3.43    0.52
  -8 -10  -9    3.88    0.53
  -8 -10 -10    2.36    0.43
   8  10  10    1.31    0.32
  -8 -10 -10    2.14    0.42
   8  10  10    2.42    0.43
   8  10  11    3.53    0.54
  -8 -10 -11    3.55    0.56
   8  10  11    4.04    0.54
   8  10  12   -0.04    0.16
  -8 -10 -12    0.15    0.25
   8  10  12    0.25    0.24
   8  10  13    0.40    0.20
   8  11  -2    1.08    0.32
  -8 -11   1    1.87    0.42
   8  11  -1    1.82    0.40
  -8 -11   0    3.57    0.55
   8  11   0    2.22    0.39
   8  11   0    2.57    0.45
  -8 -11  -1    3.62    0.57
   8  11   1    2.90    0.44
   8  11   1    3.51    0.52
  -8 -11  -2    3.24    0.52
   8  11   2    2.52    0.43
   8  11   2    3.09    0.47
  -8 -11  -3   -0.25    0.23
   8  11   3    0.21    0.17
   8  11   3    0.15    0.15
  -8 -11  -4    3.25    0.52
   8  11   4    3.94    0.54
   8  11   4    3.06    0.45
  -8 -11  -5    0.44    0.25
   8  11   5    0.29    0.20
   8  11   5    0.14    0.17
  -8 -11  -6    0.71    0.27
   8  11   6    0.76    0.29
   8  11   6    0.34    0.16
  -8 -11  -7    3.70    0.55
   8  11   7    3.92    0.55
   8  11   7    3.35    0.45
  -8 -11  -8    0.18    0.19
   8  11   8    0.57    0.26
  -8 -11  -9    3.11    0.50
   8  11   9    3.00    0.49
  -8 -11  -9    2.72    0.44
  -8 -11 -10   -0.13    0.19
   8  11  10   -0.14    0.16
  -8 -11 -10   -0.14    0.24
  -8 -11 -11    0.39    0.21
   8  11  11    0.90    0.30
  -8 -11 -11    0.08    0.18
   8  11  11    0.76    0.25
   8  11  12    3.08    0.53
  -8 -11 -12    3.34    0.55
  -8 -12   0    0.38    0.26
   8  12   0    0.85    0.25
   8  12   0    0.05    0.17
  -8 -12  -1    0.44    0.29
   8  12   1    0.28    0.17
   8  12   1    0.31    0.18
  -8 -12  -2    0.53    0.27
   8  12   2    0.02    0.12
   8  12   2    0.37    0.22
  -8 -12  -3    0.86    0.31
   8  12   3    1.69    0.37
   8  12   3    1.27    0.31
  -8 -12  -4    3.23    0.52
   8  12   4    2.73    0.45
   8  12   4    2.55    0.42
  -8 -12  -5    2.09    0.43
   8  12   5    3.12    0.49
   8  12   5    2.17    0.39
  -8 -12  -6    0.91    0.32
   8  12   6    0.64    0.23
   8  12   6    0.23    0.16
  -8 -12  -7    3.10    0.53
   8  12   7    2.41    0.44
   8  12   7    2.48    0.41
  -8 -12  -8    1.91    0.41
   8  12   8    1.79    0.40
  -8 -12  -9   -0.26    0.24
   8  12   9    0.10    0.18
  -8 -12 -10    1.02    0.33
   8  12  10    0.66    0.26
   8  12  11    1.17    0.33
  -8 -12 -11    1.45    0.36
   8  13   1    0.14    0.15
   8  13   2    0.04    0.15
   8  13   2   -0.19    0.18
   8  13   3    1.79    0.38
   8  13   3    1.08    0.31
  -8 -13  -4    1.93    0.45
   8  13   4    2.10    0.42
   8  13   4    1.51    0.34
  -8 -13  -5    0.55    0.26
   8  13   5    1.65    0.38
   8  13   5    1.10    0.31
  -8 -13  -6   -0.27    0.27
   8  13   6   -0.05    0.14
   8  13   6    0.20    0.17
  -8 -13  -7    2.23    0.48
   8  13   7    0.82    0.28
  -8 -13  -8    2.11    0.44
   8  13   8    1.28    0.34
   8  14   5    0.37    0.18
   8  14   6    1.00    0.29
   9  -8  -6   -0.29    0.18
   9  -8  -5   -0.13    0.19
   9  -7  -8    0.40    0.23
   9  -7  -7    0.42    0.21
  -9   7   6    0.39    0.23
   9  -7  -6    0.76    0.22
   9  -7  -5    2.58    0.45
  -9   7   5    3.15    0.53
   9  -7  -4    0.03    0.15
  -9   7   4    0.21    0.22
   9  -7  -3    2.92    0.50
  -9   7   3    3.07    0.51
   9  -7  -2    0.26    0.24
  -9   7   2    0.02    0.14
  -9   7   1    0.98    0.28
  -9   7   0    2.53    0.46
   9  -6  -9    0.19    0.19
   9  -6  -8    2.02    0.38
  -9   6   7    1.86    0.43
   9  -6  -7    1.48    0.34
  -9   6   6   -0.11    0.17
   9  -6  -6    0.12    0.15
   9  -6  -6   -0.08    0.15
  -9   6   5    3.17    0.53
   9  -6  -5    1.80    0.37
   9  -6  -4    0.93    0.29
  -9   6   4    0.25    0.17
   9  -6  -3    0.45    0.25
  -9   6   3    0.48    0.24
   9  -6  -2    0.21    0.22
  -9   6   2   -0.01    0.22
   9  -6  -1    1.31    0.33
  -9   6   1    0.54    0.23
   9  -6   0    0.23    0.21
  -9   6   0   -0.32    0.26
   9  -6   1    0.17    0.20
  -9   6  -1    0.03    0.17
  -9   6  -2   -0.04    0.14
  -9   6  -3    0.03    0.14
   9  -5 -10    0.13    0.16
  -9   5   9    0.03    0.18
   9  -5  -9    0.16    0.16
  -9   5   8    1.92    0.43
   9  -5  -8    1.76    0.36
  -9   5   7    0.09    0.15
   9  -5  -7   -0.06    0.18
  -9   5   6    0.36    0.23
   9  -5  -6    0.33    0.17
   9  -5  -6    0.56    0.23
  -9   5   5    1.58    0.40
   9  -5  -5    1.20    0.32
  -9   5   4    0.70    0.30
   9  -5  -4    0.17    0.19
   9  -5  -3    0.09    0.17
  -9   5   3   -0.13    0.22
   9  -5  -2    1.06    0.33
  -9   5   2    1.08    0.31
   9  -5  -1    3.05    0.48
  -9   5   1    3.79    0.56
   9  -5   0    0.50    0.26
  -9   5   0    0.10    0.16
   9  -5   1    2.37    0.45
  -9   5  -1    1.80    0.39
   9  -5   2    1.13    0.33
  -9   5  -2    0.66    0.24
   9  -5   3    0.57    0.28
  -9   5  -3    0.10    0.18
  -9   5  -4    1.19    0.34
   9  -4 -10    0.03    0.16
  -9   4   9    4.43    0.63
   9  -4  -9    4.38    0.56
  -9   4   8    0.24    0.23
   9  -4  -8   -0.03    0.13
   9  -4  -8   -0.07    0.13
  -9   4   7    0.08    0.17
   9  -4  -7    0.08    0.14
   9  -4  -6    5.64    0.56
  -9   4   6    6.17    0.71
   9  -4  -6    5.47    0.55
  -9   4   5    0.49    0.27
   9  -4  -5    0.11    0.14
  -9   4   4   10.94    0.92
   9  -4  -4   11.20    0.82
  -9   4   3    5.24    0.63
   9  -4  -3    6.45    0.63
  -9   4   2    1.22    0.32
   9  -4  -2    1.40    0.32
  -9   4   1   13.53    1.00
   9  -4  -1   12.09    0.90
   9  -4   0    1.57    0.36
  -9   4   0    1.14    0.33
   9  -4   1    0.35    0.23
  -9   4  -1    0.76    0.29
   9  -4   2    1.80    0.39
  -9   4  -2    2.75    0.49
   9  -4   3    0.33    0.17
  -9   4  -3    0.39    0.21
   9  -4   4    1.80    0.41
  -9   4  -4    1.68    0.40
  -9   4  -4    1.63    0.40
  -9   4  -5    0.26    0.18
  -9   4  -5   -0.15    0.23
  -9   3  10    1.05    0.32
   9  -3 -10    1.54    0.38
  -9   3   9    1.81    0.40
   9  -3  -9    2.07    0.41
  -9   3   8    0.00    0.20
   9  -3  -8   -0.26    0.23
   9  -3  -8    0.05    0.15
  -9   3   7   -0.01    0.17
   9  -3  -7    0.32    0.17
   9  -3  -7    0.14    0.17
  -9   3   6    0.77    0.25
   9  -3  -6    0.56    0.22
  -9   3   5    0.67    0.25
   9  -3  -5    0.45    0.19
  -9   3   4    0.70    0.22
   9  -3  -4    0.54    0.21
  -9   3   3    0.27    0.21
   9  -3  -3    0.23    0.14
  -9   3   2   -0.09    0.22
   9  -3  -2   -0.14    0.18
  -9   3   1    1.19    0.33
   9  -3  -1    0.91    0.31
  -9   3   0    0.71    0.28
   9  -3   0    0.88    0.27
  -9   3  -1   -0.22    0.18
   9  -3   1   -0.21    0.21
  -9   3  -2    0.22    0.19
  -9   3  -2    0.08    0.24
   9  -3   2    0.17    0.20
   9  -3   3    3.08    0.49
  -9   3  -3    2.60    0.46
  -9   3  -3    3.16    0.53
   9  -3   4    0.20    0.21
  -9   3  -4    0.18    0.21
  -9   3  -5    0.78    0.27
   9  -3   5    0.79    0.31
  -9   3  -6   -0.42    0.27
   9  -3   6    0.21    0.23
  -9   2  11   -0.12    0.19
  -9   2  10    0.25    0.16
   9  -2 -10    0.04    0.20
  -9   2   9    0.28    0.21
   9  -2  -9    0.68    0.26
  -9   2   8    0.38    0.21
   9  -2  -8    0.58    0.25
   9  -2  -8    0.55    0.23
  -9   2   7   -0.24    0.18
   9  -2  -7   -0.25    0.20
   9  -2  -7   -0.04    0.14
  -9   2   6    0.25    0.20
   9  -2  -6   -0.07    0.13
   9  -2  -6    0.14    0.18
   9  -2  -5    5.23    0.50
  -9   2   5    4.83    0.61
  -9   2   4    0.44    0.20
   9  -2  -4    0.07    0.14
  -9   2   3    0.14    0.20
   9  -2  -3    0.46    0.24
  -9   2   2    3.09    0.50
   9  -2  -2    2.94    0.42
  -9   2   1    0.26    0.21
   9  -2  -1    0.07    0.18
  -9   2   0    6.22    0.67
   9  -2   0    6.53    0.63
  -9   2  -1    0.41    0.25
  -9   2  -1    0.11    0.22
   9  -2   1    0.28    0.20
  -9   2  -2    3.86    0.56
   9  -2   2    3.70    0.50
  -9   2  -3   13.18    1.00
   9  -2   3   13.36    0.93
  -9   2  -4   -0.10    0.22
   9  -2   4    0.32    0.23
  -9   2  -5    7.32    0.78
   9  -2   5    7.51    0.73
  -9   2  -6    3.77    0.57
   9  -2   6    3.17    0.50
  -9   2  -7   -0.06    0.20
   9  -2   7   -0.09    0.19
   9  -1 -10    3.31    0.52
  -9   1   9    4.07    0.56
   9  -1  -9    3.95    0.53
  -9   1   8    0.54    0.22
   9  -1  -8    0.33    0.20
   9  -1  -8    0.41    0.21
  -9   1   7    4.20    0.55
   9  -1  -7    3.87    0.48
   9  -1  -7    4.58    0.53
   9  -1  -6    8.06    0.65
  -9   1   6    7.70    0.73
   9  -1  -6    6.95    0.64
  -9   1   5    4.19    0.54
   9  -1  -5    4.59    0.52
  -9   1   4    1.68    0.35
   9  -1  -4    2.16    0.33
   9  -1  -4    2.00    0.36
  -9   1   3    0.67    0.23
   9  -1  -3    1.14    0.26
   9  -1  -3    0.72    0.22
  -9   1   2    3.53    0.49
   9  -1  -2    3.19    0.42
  -9   1   1    2.79    0.45
   9  -1  -1    3.14    0.44
  -9   1   0    3.46    0.51
   9  -1   0    4.00    0.48
  -9   1  -1    1.18    0.29
   9  -1   1    0.94    0.27
  -9   1  -2    0.26    0.22
   9  -1   2    0.12    0.16
  -9   1  -3    1.71    0.39
   9  -1   3    1.03    0.31
  -9   1  -4    1.65    0.39
   9  -1   4    1.58    0.37
  -9   1  -5    1.89    0.43
   9  -1   5    1.40    0.32
   9  -1   6    1.54    0.34
  -9   1  -6    1.63    0.40
   9  -1   6    1.53    0.35
   9  -1   7    3.33    0.50
  -9   1  -7    3.00    0.53
   9  -1   7    3.71    0.52
   9  -1   8    0.90    0.29
  -9   1  -8    0.90    0.36
   9  -1   8    0.60    0.25
   9   0 -10    1.64    0.40
   9   0  -9    1.89    0.40
  -9   0   8    1.61    0.34
   9   0  -8    1.78    0.36
   9   0  -8    1.55    0.34
  -9   0   7    0.23    0.17
   9   0  -7   -0.13    0.19
   9   0  -7    0.02    0.15
  -9   0   6    2.04    0.38
   9   0  -6    1.95    0.34
   9   0  -6    1.56    0.34
  -9   0   5    1.46    0.33
   9   0  -5    1.05    0.27
  -9   0   4    0.57    0.22
   9   0  -4    1.41    0.27
   9   0  -4    0.94    0.26
  -9   0   3   -0.05    0.18
   9   0  -3    0.09    0.13
   9   0  -3    0.02    0.14
  -9   0   2    0.35    0.19
   9   0  -2    0.74    0.22
   9   0  -1    6.03    0.55
  -9   0   1    5.75    0.62
   9   0  -1    5.34    0.55
  -9   0   0    0.06    0.22
  -9   0   0   -0.42    0.28
   9   0   0    0.17    0.16
   9   0   0   -0.01    0.16
   9   0   1    0.32    0.18
  -9   0  -1   -0.11    0.25
   9   0   1   -0.06    0.18
   9   0   2    0.23    0.17
  -9   0  -2   -0.20    0.24
   9   0   2   -0.04    0.17
   9   0   3   -0.05    0.13
  -9   0  -3    0.19    0.23
   9   0   3   -0.05    0.16
   9   0   4    3.68    0.49
  -9   0  -4    4.00    0.57
   9   0   4    3.74    0.49
   9   0   5    0.26    0.15
  -9   0  -5    0.42    0.23
   9   0   5    0.70    0.25
   9   0   6    0.71    0.26
  -9   0  -6    1.03    0.37
   9   0   6    0.37    0.19
   9   0   7    0.18    0.20
  -9   0  -7    0.05    0.24
   9   0   7    0.40    0.20
   9   0   8    0.44    0.22
  -9   0  -8    0.61    0.35
   9   0   8   -0.10    0.18
   9   0   9    3.01    0.48
   9   0   9    2.97    0.47
   9   1 -10   -0.02    0.18
   9   1  -9    1.35    0.35
   9   1  -8    0.44    0.21
   9   1  -8   -0.53    0.22
  -9  -1   7    0.18    0.13
   9   1  -7   -0.30    0.18
   9   1  -7   -0.25    0.23
  -9  -1   6    2.32    0.39
   9   1  -6    2.19    0.36
   9   1  -6    2.15    0.39
  -9  -1   5    0.74    0.22
   9   1  -5    0.38    0.18
   9   1  -4    4.74    0.46
  -9  -1   4    5.00    0.56
   9   1  -4    5.31    0.56
  -9  -1   3    3.02    0.46
   9   1  -3    3.10    0.39
   9   1  -3    2.00    0.35
  -9  -1   2    3.05    0.44
   9   1  -2    2.93    0.37
   9   1  -2    3.05    0.42
   9   1  -1   11.66    0.76
   9   1  -1   12.44    0.83
  -9  -1   1   11.02    0.83
  -9  -1   0    3.17    0.47
   9   1   0    3.64    0.44
  -9  -1   0    3.03    0.43
   9   1   1   -0.03    0.17
  -9  -1  -1   -0.18    0.24
   9   1   1    0.02    0.18
   9   1   2   10.44    0.75
  -9  -1  -2    9.76    0.79
   9   1   2    9.29    0.72
   9   1   3   12.10    0.82
  -9  -1  -3   13.00    0.94
   9   1   3   12.38    0.83
   9   1   4    4.68    0.53
  -9  -1  -4    4.48    0.58
   9   1   4    3.50    0.46
   9   1   5    6.33    0.62
  -9  -1  -5    6.76    0.71
   9   1   5    6.07    0.60
   9   1   6    0.13    0.18
   9   1   6   -0.29    0.24
   9   1   7    1.14    0.30
   9   1   7    1.14    0.29
   9   1   8    4.18    0.55
  -9  -1  -8    4.24    0.64
   9   1   8    4.78    0.57
   9   1   9    0.82    0.27
  -9  -1  -9    1.70    0.44
   9   1   9    1.04    0.30
   9   1  10    3.92    0.55
   9   1  10    3.75    0.52
   9   2 -10    1.85    0.39
   9   2  -9    0.28    0.23
  -9  -2   9    0.23    0.18
   9   2  -8    1.66    0.36
   9   2  -8    2.10    0.41
  -9  -2   8    1.58    0.35
   9   2  -7    2.08    0.37
   9   2  -7    2.62    0.45
  -9  -2   7    2.38    0.38
  -9  -2   6    1.24    0.29
  -9  -2   6    1.77    0.32
   9   2  -6    1.38    0.33
  -9  -2   5    8.26    0.67
   9   2  -5    7.27    0.67
  -9  -2   5    7.73    0.62
  -9  -2   4    0.40    0.14
  -9  -2   4    0.47    0.19
   9   2  -4    0.00    0.15
  -9  -2   3    2.71    0.35
  -9  -2   3    3.08    0.44
   9   2  -3    2.59    0.35
   9   2  -3    2.24    0.37
   9   2  -2   22.31    1.01
   9   2  -2   22.47    1.10
  -9  -2   2   20.28    1.09
  -9  -2   2   20.58    0.93
  -9  -2   1    0.02    0.10
  -9  -2   1    0.03    0.18
   9   2  -1    0.07    0.17
   9   2  -1    0.05    0.15
   9   2   0    3.25    0.42
  -9  -2   0    4.61    0.51
   9   2   0    4.02    0.48
   9   2   1    0.21    0.15
  -9  -2  -1   -0.08    0.22
   9   2   1    0.23    0.18
   9   2   2    0.20    0.18
  -9  -2  -2    0.02    0.18
   9   2   3    5.78    0.57
  -9  -2  -3    5.35    0.61
   9   2   4    0.11    0.18
  -9  -2  -4   -0.02    0.20
   9   2   5    0.68    0.24
  -9  -2  -5    0.58    0.28
   9   2   6    0.10    0.16
  -9  -2  -6   -0.05    0.22
   9   2   7   -0.13    0.19
  -9  -2  -7    0.36    0.28
   9   2   8    4.21    0.54
  -9  -2  -8    5.24    0.69
   9   2   9    0.68    0.27
  -9  -2  -9    0.35    0.30
   9   2  10    0.66    0.25
   9   3  -9    0.23    0.18
  -9  -3   9    0.67    0.27
   9   3  -8    0.44    0.22
   9   3  -8   -0.06    0.18
  -9  -3   8    0.13    0.17
   9   3  -7   -0.18    0.19
   9   3  -7    0.17    0.17
  -9  -3   7    0.12    0.14
  -9  -3   6    0.69    0.25
   9   3  -6    0.73    0.26
  -9  -3   5    3.79    0.48
   9   3  -5    3.55    0.50
  -9  -3   4    1.08    0.27
  -9  -3   4    1.36    0.29
   9   3  -4    1.43    0.32
  -9  -3   3    0.45    0.19
  -9  -3   3    0.23    0.14
   9   3  -3    0.61    0.24
  -9  -3   2    1.47    0.29
  -9  -3   2    0.93    0.26
   9   3  -2    1.67    0.29
   9   3  -2    0.98    0.27
  -9  -3   1    2.55    0.36
  -9  -3   1    2.00    0.35
   9   3  -1    2.25    0.34
   9   3  -1    2.77    0.42
   9   3   0   18.89    0.95
  -9  -3   0   19.31    1.00
   9   3   0   17.72    0.98
  -9  -3   0   18.97    0.93
  -9  -3  -1    0.88    0.21
   9   3   1    1.27    0.28
  -9  -3  -1    1.17    0.28
   9   3   1    1.37    0.29
  -9  -3  -2   -0.19    0.19
   9   3   2   -0.21    0.17
  -9  -3  -2    0.07    0.18
   9   3   2   -0.12    0.16
   9   3   3    8.70    0.69
  -9  -3  -3    8.04    0.71
   9   3   3    8.07    0.66
  -9  -3  -3    8.76    0.62
  -9  -3  -4    2.18    0.32
   9   3   4    2.02    0.36
  -9  -3  -4    2.12    0.40
   9   3   4    2.02    0.35
  -9  -3  -5    2.41    0.33
   9   3   5    2.38    0.38
  -9  -3  -5    2.58    0.45
   9   3   6    3.61    0.41
   9   3   6    3.08    0.43
  -9  -3  -6    3.93    0.58
  -9  -3  -6    3.51    0.39
   9   3   7    4.80    0.48
   9   3   7    3.74    0.49
  -9  -3  -7    4.72    0.64
   9   3   8    2.29    0.40
  -9  -3  -8    1.99    0.44
   9   3   9    2.40    0.43
  -9  -3  -9    2.15    0.46
   9   3  10    0.28    0.20
  -9  -3 -10    0.77    0.34
   9   3  11    0.72    0.25
   9   4  -9   -0.13    0.18
   9   4  -8    0.28    0.23
   9   4  -8    0.22    0.17
  -9  -4   8    0.16    0.18
  -9  -4   7    0.48    0.23
   9   4  -7    0.62    0.29
  -9  -4   6    2.65    0.43
   9   4  -6    2.39    0.44
  -9  -4   5    0.22    0.19
   9   4  -5    0.18    0.16
  -9  -4   4    0.49    0.22
   9   4  -4    0.38    0.19
  -9  -4   3    1.81    0.32
  -9  -4   3    2.40    0.36
   9   4  -3    2.40    0.42
  -9  -4   2    0.78    0.22
  -9  -4   2    0.40    0.18
   9   4  -2    0.47    0.20
   9   4  -1    7.55    0.66
  -9  -4   1    8.30    0.67
  -9  -4   1    8.13    0.65
  -9  -4   0    0.76    0.23
   9   4   0    0.64    0.17
  -9  -4   0    1.03    0.24
   9   4   0    0.60    0.21
  -9  -4  -1    0.81    0.23
   9   4   1    1.21    0.25
  -9  -4  -1    0.44    0.18
   9   4   1    0.78    0.23
   9   4   2   18.15    0.97
  -9  -4  -2   17.61    0.98
   9   4   2   16.45    0.93
  -9  -4  -2   16.38    0.89
  -9  -4  -3    2.26    0.36
   9   4   3    2.30    0.38
  -9  -4  -3    2.38    0.39
   9   4   3    1.64    0.31
   9   4   4   20.30    1.06
  -9  -4  -4   21.27    1.14
   9   4   4   18.20    0.96
  -9  -4  -4   20.45    0.98
  -9  -4  -5    0.95    0.23
   9   4   5    0.81    0.24
  -9  -4  -5    1.02    0.33
   9   4   5    0.60    0.20
   9   4   6    5.76    0.52
   9   4   6    6.43    0.62
  -9  -4  -6    5.88    0.66
   9   4   6    5.61    0.54
  -9  -4  -6    5.84    0.53
   9   4   7   12.41    0.77
   9   4   7   11.96    0.86
  -9  -4  -7   12.34    0.97
   9   4   7   11.41    0.77
  -9  -4  -7   11.78    0.77
   9   4   8    0.98    0.28
  -9  -4  -8    0.72    0.34
   9   4   8    0.65    0.20
   9   4   8    0.72    0.22
   9   4   9    5.01    0.53
   9   4   9    4.21    0.54
  -9  -4  -9    4.67    0.66
   9   4  10    3.02    0.47
  -9  -4 -10    3.36    0.58
   9   4  10    2.85    0.41
   9   4  11    0.58    0.18
   9   4  11    0.43    0.20
   9   5  -8    1.28    0.34
  -9  -5   7    0.10    0.22
   9   5  -7    0.18    0.21
  -9  -5   6    3.65    0.51
   9   5  -6    3.95    0.57
  -9  -5   5    0.25    0.23
   9   5  -5    0.14    0.15
  -9  -5   4    0.32    0.19
   9   5  -4    1.17    0.29
  -9  -5   3    2.55    0.41
   9   5  -3    2.96    0.47
  -9  -5   2    0.72    0.26
   9   5  -2    0.27    0.19
   9   5  -1    6.97    0.65
  -9  -5   1    6.96    0.60
  -9  -5   1    7.48    0.65
  -9  -5   0   -0.02    0.15
  -9  -5   0    0.18    0.15
   9   5   0    0.13    0.14
  -9  -5  -1    0.33    0.16
  -9  -5  -1    0.07    0.13
   9   5   1    0.25    0.14
  -9  -5  -2    3.72    0.45
  -9  -5  -2    4.63    0.49
   9   5   2    3.31    0.44
  -9  -5  -3    0.40    0.21
   9   5   3   -0.17    0.21
  -9  -5  -3    0.26    0.22
   9   5   3   -0.08    0.17
   9   5   4    6.43    0.61
  -9  -5  -4    6.61    0.63
   9   5   4    6.29    0.58
  -9  -5  -4    6.35    0.58
  -9  -5  -5    0.09    0.14
   9   5   5   -0.36    0.27
  -9  -5  -5   -0.05    0.18
   9   5   5   -0.06    0.14
  -9  -5  -6    0.16    0.16
   9   5   6    0.28    0.15
  -9  -5  -6    0.61    0.28
   9   5   6    0.44    0.16
  -9  -5  -7    2.19    0.36
   9   5   7    1.53    0.33
  -9  -5  -7    1.90    0.43
   9   5   7    2.61    0.39
   9   5   7    2.13    0.33
   9   5   8    0.80    0.23
  -9  -5  -8    1.08    0.38
   9   5   8    1.55    0.32
   9   5   8    1.23    0.27
   9   5   9    1.94    0.39
  -9  -5  -9    2.19    0.48
   9   5   9    1.96    0.35
  -9  -5 -10    0.35    0.25
   9   5  10    0.98    0.28
   9   5  11    0.51    0.21
  -9  -6   7    0.31    0.22
   9   6  -7    0.08    0.14
  -9  -6   6    3.07    0.48
   9   6  -6    3.26    0.52
  -9  -6   5    0.63    0.29
   9   6  -5    0.50    0.26
  -9  -6   4    2.28    0.41
   9   6  -4    2.02    0.41
  -9  -6   3    0.85    0.29
   9   6  -3    0.87    0.30
  -9  -6   2    1.66    0.36
   9   6  -2    1.11    0.33
   9   6  -1    5.03    0.58
  -9  -6   1    5.60    0.59
  -9  -6   0    1.31    0.30
   9   6   0    1.41    0.32
  -9  -6  -1   -0.10    0.18
   9   6   1   -0.14    0.19
  -9  -6  -2   -0.04    0.20
  -9  -6  -2    0.10    0.16
   9   6   2    0.18    0.17
  -9  -6  -3    0.92    0.28
  -9  -6  -3    1.03    0.28
   9   6   3    0.75    0.24
  -9  -6  -4    2.82    0.40
  -9  -6  -4    3.31    0.46
   9   6   4    2.99    0.42
  -9  -6  -5    2.61    0.39
  -9  -6  -5    2.05    0.38
   9   6   5    2.53    0.38
  -9  -6  -6    2.75    0.40
  -9  -6  -6    2.74    0.45
   9   6   6    2.86    0.40
  -9  -6  -7    1.97    0.34
  -9  -6  -7    3.19    0.51
   9   6   7    2.42    0.37
   9   6   7    1.90    0.33
   9   6   8   11.65    0.80
  -9  -6  -8   11.89    0.95
  -9  -6  -8   11.15    0.81
  -9  -6  -9    1.01    0.35
   9   6   9    0.83    0.26
   9   6  10    7.78    0.70
  -9  -6 -10    8.50    0.87
   9   6  11   14.43    0.96
  -9  -6 -11   15.73    1.20
   9   7  -6   -0.22    0.19
  -9  -7   5    1.09    0.33
   9   7  -5    1.36    0.35
  -9  -7   4    1.42    0.35
   9   7  -4    0.87    0.27
  -9  -7   3    1.44    0.35
   9   7  -3    1.66    0.38
   9   7  -2    6.55    0.62
   9   7  -2    6.85    0.73
  -9  -7   2    6.38    0.66
  -9  -7   1    1.10    0.32
   9   7  -1    0.95    0.26
   9   7  -1    0.94    0.31
  -9  -7   0    1.87    0.38
   9   7   0    1.76    0.37
  -9  -7  -1    3.44    0.49
   9   7   1    3.04    0.46
  -9  -7  -2    4.30    0.52
   9   7   2    3.50    0.48
  -9  -7  -3   16.09    0.89
   9   7   3   17.51    1.02
  -9  -7  -3   14.74    0.94
  -9  -7  -4    1.73    0.36
  -9  -7  -4    2.36    0.38
   9   7   4    1.59    0.33
  -9  -7  -5    0.02    0.15
   9   7   5   -0.28    0.20
  -9  -7  -6    4.11    0.51
  -9  -7  -6    4.25    0.54
   9   7   6    3.29    0.43
  -9  -7  -7    0.18    0.15
  -9  -7  -7    0.39    0.24
   9   7   7   -0.15    0.14
  -9  -7  -8    2.53    0.39
  -9  -7  -8    2.72    0.47
   9   7   8    3.44    0.46
  -9  -7  -9   -0.26    0.20
  -9  -7  -9    0.06    0.19
   9   7   9    0.15    0.17
  -9  -7 -10    0.07    0.25
   9   7  10    0.16    0.13
  -9  -7 -11    3.74    0.61
   9   7  11    4.35    0.54
  -9  -8   4    0.59    0.27
   9   8  -4    0.62    0.29
  -9  -8   3    0.03    0.21
   9   8  -3   -0.04    0.20
   9   8  -2    6.12    0.69
  -9  -8   2    5.97    0.66
  -9  -8   1    0.44    0.28
   9   8  -1    0.23    0.14
   9   8  -1    0.20    0.21
  -9  -8   0    1.73    0.38
   9   8   0    1.91    0.36
   9   8   0    1.86    0.40
   9   8   1    0.06    0.14
   9   8   1    0.33    0.20
  -9  -8  -2    0.84    0.29
   9   8   2    0.82    0.27
   9   8   3    8.80    0.76
  -9  -8  -3    8.11    0.74
  -9  -8  -4    0.90    0.28
   9   8   4    0.84    0.25
  -9  -8  -5    0.82    0.27
  -9  -8  -5    0.84    0.26
   9   8   5    0.48    0.18
  -9  -8  -6    1.58    0.34
  -9  -8  -6    1.24    0.33
   9   8   6    1.61    0.32
  -9  -8  -7    0.32    0.20
  -9  -8  -7    1.10    0.32
   9   8   7    0.69    0.24
  -9  -8  -8    0.61    0.25
  -9  -8  -8    0.80    0.30
  -9  -8  -9    1.24    0.31
  -9  -8  -9    1.09    0.30
   9   8   9    1.31    0.31
  -9  -8 -10    0.58    0.23
  -9  -8 -10    0.33    0.23
   9   8  10    0.62    0.27
  -9  -8 -11    0.44    0.25
   9   8  11    0.72    0.27
  -9  -9   3   -0.37    0.29
   9   9  -3    0.04    0.18
  -9  -9   2    0.51    0.25
   9   9  -2    0.48    0.27
  -9  -9   1    1.25    0.37
   9   9  -1    1.22    0.31
   9   9  -1    1.40    0.36
  -9  -9   0    0.14    0.19
   9   9   0    0.30    0.21
   9   9   0    0.25    0.17
  -9  -9  -1   -0.01    0.23
   9   9   1    0.48    0.24
  -9  -9  -2    3.03    0.49
   9   9   2    3.46    0.50
   9   9   2    3.05    0.49
  -9  -9  -3    0.06    0.20
   9   9   3   -0.04    0.16
   9   9   3    0.19    0.20
  -9  -9  -4    2.36    0.45
   9   9   4    2.16    0.40
  -9  -9  -5    3.41    0.50
   9   9   5    2.77    0.43
  -9  -9  -6    0.61    0.27
  -9  -9  -6    0.67    0.26
   9   9   6    0.55    0.23
  -9  -9  -7   12.80    0.91
   9   9   7   12.92    0.88
  -9  -9  -7   15.17    1.03
  -9  -9  -8    2.49    0.45
  -9  -9  -8    2.68    0.45
  -9  -9  -9    1.39    0.35
  -9  -9  -9    1.38    0.35
  -9  -9 -10    2.57    0.44
  -9  -9 -10    2.71    0.49
   9   9  10    3.06    0.47
  -9  -9 -11    0.40    0.25
  -9  -9 -11    0.43    0.26
   9   9  11    0.48    0.24
  -9 -10   1    2.91    0.48
   9  10  -1    2.09    0.42
  -9 -10   0    1.99    0.43
   9  10   0    2.57    0.44
   9  10   0    2.10    0.43
  -9 -10  -1    0.96    0.32
   9  10   1    0.65    0.25
   9  10   1    1.24    0.34
  -9 -10  -2    1.05    0.31
   9  10   2    0.55    0.23
   9  10   2    0.65    0.26
  -9 -10  -3    2.52    0.47
   9  10   3    3.25    0.50
   9  10   3    3.64    0.52
  -9 -10  -4    1.79    0.38
   9  10   4    1.81    0.39
   9  10   4    1.91    0.39
  -9 -10  -5    0.71    0.27
   9  10   5    0.45    0.23
   9  10   5    0.43    0.19
  -9 -10  -6    2.81    0.47
   9  10   6    2.68    0.47
   9  10   6    2.26    0.40
  -9 -10  -7    3.12    0.51
   9  10   7    3.47    0.54
   9  10   7    2.02    0.36
  -9 -10  -8   -0.25    0.21
   9  10   8    0.29    0.20
  -9 -10  -8    0.07    0.17
  -9 -10  -9   -0.24    0.23
   9  10   9   -0.31    0.22
  -9 -10  -9   -0.07    0.20
  -9 -10 -10    0.04    0.15
   9  10  10    0.38    0.23
  -9 -10 -10    0.44    0.25
  -9 -10 -11    1.89    0.44
  -9 -11   0    0.16    0.22
   9  11   0   -0.03    0.11
   9  11   0    0.18    0.16
  -9 -11  -1    0.47    0.27
   9  11   1    0.69    0.25
   9  11   1    0.01    0.17
  -9 -11  -2    1.66    0.41
   9  11   2    1.99    0.39
   9  11   2    1.85    0.40
  -9 -11  -3    4.69    0.63
   9  11   3    5.35    0.64
   9  11   3    3.99    0.55
  -9 -11  -4    1.94    0.42
   9  11   4    1.49    0.34
   9  11   4    1.37    0.33
  -9 -11  -5   -0.17    0.30
   9  11   5    0.20    0.20
   9  11   5    0.19    0.17
  -9 -11  -6    1.47    0.38
   9  11   6    1.74    0.39
   9  11   6    1.18    0.30
  -9 -11  -7    1.34    0.38
   9  11   7    0.99    0.30
   9  11   7    0.89    0.26
  -9 -11  -8    2.43    0.47
   9  11   8    2.45    0.46
  -9 -11  -9    0.86    0.29
   9  11   9    0.88    0.30
  -9 -11 -10   -0.38    0.23
   9  12   1    0.21    0.15
   9  12   2    0.94    0.30
   9  12   2    1.36    0.36
  -9 -12  -3    0.16    0.19
   9  12   3    0.44    0.24
  -9 -12  -4    0.18    0.19
   9  12   4    0.44    0.23
   9  12   4    0.01    0.16
  -9 -12  -5   -0.11    0.22
   9  12   5   -0.25    0.20
   9  12   5    0.01    0.13
  -9 -12  -6    1.22    0.35
   9  12   6    1.48    0.37
   9  12   6    1.14    0.31
  -9 -12  -7    1.55    0.42
   9  12   7    1.37    0.35
   9  13   5    0.00    0.12
   9  13   6   -0.12    0.15
  10  -6  -5   -0.37    0.22
  10  -5  -5    0.13    0.17
  10  -5  -4   -0.09    0.22
 -10   5   3   -0.16    0.18
  10  -5  -3   -0.04    0.20
 -10   5   2    0.02    0.16
  10  -5  -2   -0.24    0.24
 -10   5   1    1.85    0.44
  10  -4  -7    1.37    0.34
 -10   4   6    0.47    0.27
 -10   4   5    1.15    0.35
  10  -4  -5    1.14    0.31
 -10   4   4    1.23    0.37
  10  -4  -4    0.87    0.28
 -10   4   3    0.19    0.24
  10  -4  -3    0.25    0.17
 -10   4   2    2.96    0.54
  10  -4  -2    3.29    0.49
 -10   4   1    0.43    0.24
  10  -4  -1    0.57    0.27
 -10   4   0    0.51    0.27
  10  -4   0    0.53    0.25
 -10   4  -1    2.18    0.46
  10  -4   1    1.97    0.42
 -10   4  -2   -0.41    0.25
  10  -3  -8    0.13    0.15
 -10   3   7    2.23    0.47
  10  -3  -7    2.97    0.47
 -10   3   6    5.08    0.66
  10  -3  -6    3.91    0.53
 -10   3   5    0.63    0.27
  10  -3  -5    0.48    0.21
 -10   3   4    1.57    0.38
  10  -3  -4    1.37    0.33
 -10   3   3    2.14    0.44
  10  -3  -3    1.34    0.31
 -10   3   2   -0.17    0.23
  10  -3  -2    0.13    0.15
 -10   3   1    0.57    0.28
  10  -3  -1    0.28    0.24
 -10   3   0    0.11    0.19
  10  -3   0    0.23    0.24
 -10   3  -1    0.18    0.20
  10  -3   1    0.17    0.22
 -10   3  -2    0.36    0.25
  10  -3   2    0.29    0.21
 -10   3  -3    0.59    0.31
  10  -3   3   -0.06    0.19
 -10   2   8   -0.16    0.17
  10  -2  -8   -0.33    0.19
 -10   2   7    0.07    0.16
  10  -2  -7    0.09    0.14
 -10   2   6    0.66    0.27
  10  -2  -6   -0.10    0.15
 -10   2   5    3.15    0.52
  10  -2  -5    3.56    0.50
 -10   2   4    0.10    0.21
  10  -2  -4    0.01    0.13
 -10   2   3    0.73    0.28
  10  -2  -3    0.39    0.20
  10  -2  -3    0.41    0.22
 -10   2   2    0.05    0.20
  10  -2  -2    0.29    0.17
 -10   2   1    2.58    0.48
  10  -2  -1    2.69    0.45
 -10   2   0   -0.10    0.19
  10  -2   0   -0.02    0.19
 -10   2  -1    0.88    0.33
  10  -2   1    0.77    0.28
 -10   2  -2    0.40    0.27
  10  -2   2    0.57    0.28
 -10   2  -3    0.27    0.24
 -10   2  -3   -0.19    0.26
  10  -2   3    0.09    0.21
 -10   2  -4    0.69    0.34
  10  -2   4    0.26    0.18
 -10   1   9    0.28    0.18
 -10   1   8    1.33    0.33
  10  -1  -8    0.73    0.27
 -10   1   7    0.48    0.19
  10  -1  -7    0.63    0.22
 -10   1   6    3.24    0.52
  10  -1  -6    2.81    0.44
 -10   1   5    1.78    0.40
  10  -1  -5    1.30    0.33
  10  -1  -4    0.46    0.19
  10  -1  -4    0.21    0.19
  10  -1  -3    5.85    0.58
 -10   1   3    5.58    0.66
  10  -1  -2    5.27    0.57
 -10   1   2    5.13    0.64
  10  -1  -2    5.71    0.61
  10  -1  -1    6.19    0.61
 -10   1   1    5.73    0.69
  10  -1  -1    5.96    0.63
  10  -1   0    5.91    0.61
 -10   1   0    5.79    0.69
  10  -1   0    5.85    0.63
  10  -1   1    6.03    0.62
 -10   1  -1    5.69    0.69
  10  -1   1    5.87    0.64
  10  -1   2    6.29    0.64
 -10   1  -2    5.89    0.71
 -10   1  -2    5.56    0.69
  10  -1   2    6.44    0.67
  10  -1   3    8.65    0.77
 -10   1  -3    8.09    0.83
  10  -1   3    6.61    0.68
  10  -1   4    0.21    0.21
 -10   1  -4   -0.45    0.33
  10  -1   4   -0.23    0.22
  10  -1   5    2.53    0.44
 -10   1  -5    1.91    0.46
  10  -1   5    1.98    0.39
 -10   0   8    0.06    0.12
  10   0  -8   -0.59    0.24
 -10   0   7    1.94    0.40
  10   0  -7    1.86    0.37
 -10   0   6    0.84    0.27
  10   0  -6    1.30    0.30
 -10   0   5    1.23    0.32
  10   0  -5    1.41    0.34
 -10   0   4   -0.21    0.21
  10   0  -4   -0.01    0.14
 -10   0   3    0.61    0.25
  10   0  -3    0.35    0.18
  10   0  -3    0.30    0.18
 -10   0   2    1.41    0.34
  10   0  -2    2.08    0.35
  10   0  -2    1.15    0.31
 -10   0   1    1.25    0.34
  10   0  -1    1.43    0.31
  10   0   0    0.27    0.16
  10   0   0    0.16    0.18
 -10   0  -1    0.49    0.27
 -10   0  -1    0.34    0.25
  10   0   1   -0.09    0.16
  10   0   1    0.03    0.17
  10   0   2    0.45    0.22
 -10   0  -2    0.23    0.23
  10   0   2    0.62    0.27
  10   0   3    2.02    0.40
 -10   0  -3    1.56    0.39
  10   0   3    1.13    0.31
  10   0   4   -0.17    0.18
 -10   0  -4    0.13    0.22
  10   0   4   -0.13    0.20
  10   0   5    0.13    0.17
 -10   0  -5   -0.22    0.24
  10   0   5   -0.30    0.22
  10   0   6    0.58    0.24
 -10   0  -6    0.52    0.32
  10   0   6    0.60    0.25
  10   0   7    0.29    0.24
  10   1  -8    0.04    0.13
  10   1  -7    0.70    0.26
 -10  -1   6    0.04    0.12
  10   1  -6    0.10    0.16
 -10  -1   5    1.04    0.29
  10   1  -5    0.73    0.24
 -10  -1   4    0.23    0.20
  10   1  -4   -0.06    0.15
 -10  -1   3    1.66    0.37
  10   1  -3    1.26    0.28
  10   1  -3    1.28    0.31
 -10  -1   2    0.90    0.31
  10   1  -2    1.05    0.27
  10   1  -2    0.70    0.26
 -10  -1   1    0.19    0.21
  10   1  -1   -0.06    0.12
  10   1  -1    0.08    0.18
 -10  -1   0    1.59    0.38
  10   1   0    1.07    0.28
  10   1   0    1.27    0.32
  10   1   1    0.58    0.24
 -10  -1  -1    0.83    0.29
  10   1   2    1.58    0.33
 -10  -1  -2    1.25    0.32
  10   1   3    6.03    0.63
 -10  -1  -3    4.90    0.63
  10   1   3    4.89    0.58
  10   1   4    1.93    0.38
 -10  -1  -4    0.97    0.30
  10   1   4    1.22    0.32
  10   1   5   -0.24    0.20
 -10  -1  -5    0.06    0.22
  10   1   5    0.09    0.19
  10   1   6    9.12    0.80
 -10  -1  -6    9.05    0.91
  10   1   6    8.11    0.75
  10   1   7    5.32    0.64
 -10  -1  -7    6.55    0.78
  10   1   7    5.86    0.66
  10   2  -8    0.72    0.25
  10   2  -7    0.71    0.27
  10   2  -6    4.43    0.58
 -10  -2   5   -0.01    0.12
  10   2  -5    0.23    0.17
 -10  -2   4   -0.05    0.15
  10   2  -4    0.01    0.14
  10   2  -3    9.58    0.70
 -10  -2   3    9.39    0.80
  10   2  -3    9.23    0.78
 -10  -2   2    2.69    0.44
  10   2  -2    2.64    0.40
  10   2  -2    2.82    0.45
  10   2  -1   11.23    0.79
  10   2  -1   10.57    0.82
 -10  -2   1   10.15    0.84
 -10  -2   0    0.81    0.28
  10   2   0    1.20    0.26
  10   2   0    1.23    0.31
  10   2   1    0.42    0.18
 -10  -2  -1   -0.05    0.21
  10   2   1    0.36    0.22
  10   2   2   11.36    0.83
 -10  -2  -2   10.59    0.86
  10   2   2   10.81    0.82
  10   2   3    1.08    0.29
 -10  -2  -3    1.16    0.35
  10   2   4    2.80    0.45
 -10  -2  -4    2.19    0.45
  10   2   5    1.88    0.37
 -10  -2  -5    2.02    0.42
  10   2   6    0.06    0.15
 -10  -2  -6    0.24    0.27
  10   2   7    0.99    0.30
 -10  -2  -7    1.05    0.39
  10   2   8    0.11    0.21
  10   3  -7   -0.09    0.17
  10   3  -6    3.00    0.51
  10   3  -5   -0.21    0.18
 -10  -3   4    0.08    0.14
  10   3  -4   -0.10    0.14
 -10  -3   3    1.19    0.31
  10   3  -3    1.18    0.30
 -10  -3   2    0.69    0.27
  10   3  -2    0.33    0.16
  10   3  -2    0.90    0.30
 -10  -3   1    0.85    0.30
  10   3  -1    0.79    0.24
  10   3  -1    0.98    0.28
 -10  -3   0    1.75    0.38
  10   3   0    1.69    0.33
  10   3   0    1.28    0.33
  10   3   1   -0.05    0.14
 -10  -3  -1    0.04    0.18
  10   3   1   -0.01    0.14
  10   3   2    2.95    0.43
 -10  -3  -2    2.57    0.44
  10   3   2    2.22    0.38
  10   3   3    0.27    0.19
 -10  -3  -3    0.08    0.19
  10   3   3    0.62    0.26
  10   3   4    1.34    0.30
 -10  -3  -4    0.86    0.31
  10   3   4    1.41    0.31
  10   3   5    0.02    0.16
 -10  -3  -5    0.53    0.29
  10   3   5    0.59    0.23
  10   3   6    0.26    0.20
 -10  -3  -6    0.31    0.25
  10   3   6    0.11    0.15
  10   3   7    2.08    0.40
 -10  -3  -7    2.11    0.47
  10   3   7    1.91    0.36
  10   3   8    0.30    0.20
 -10  -3  -8   -0.04    0.21
  10   4  -7    0.42    0.21
 -10  -4   7    0.19    0.17
 -10  -4   6    2.44    0.42
  10   4  -6    2.45    0.46
 -10  -4   5   -0.29    0.23
  10   4  -5    0.17    0.18
 -10  -4   4    0.36    0.23
  10   4  -4    0.16    0.18
 -10  -4   3    1.28    0.30
  10   4  -3    1.39    0.34
  10   4  -2    9.33    0.81
 -10  -4   2    8.20    0.71
 -10  -4   2    9.31    0.73
 -10  -4   1    0.35    0.21
 -10  -4   1    0.14    0.15
  10   4  -1    0.17    0.19
 -10  -4   0    1.36    0.29
 -10  -4   0    1.34    0.32
  10   4   0    0.84    0.23
  10   4   0    0.96    0.28
  10   4   1    4.45    0.52
 -10  -4  -1    5.24    0.57
  10   4   1    4.45    0.54
 -10  -4  -1    4.95    0.52
 -10  -4  -2   -0.14    0.18
  10   4   2    0.12    0.14
 -10  -4  -2    0.07    0.19
  10   4   2    0.10    0.14
  10   4   3    6.60    0.64
 -10  -4  -3    6.59    0.68
  10   4   3    5.81    0.60
 -10  -4  -3    5.88    0.57
 -10  -4  -4    0.18    0.15
  10   4   4    0.09    0.15
 -10  -4  -4    0.53    0.25
  10   4   4    0.70    0.24
  10   4   5   -0.01    0.18
 -10  -4  -5    0.25    0.23
  10   4   5   -0.02    0.14
  10   4   6    6.88    0.70
 -10  -4  -6    6.42    0.72
  10   4   6    5.91    0.60
  10   4   7    0.88    0.27
 -10  -4  -7    1.07    0.39
  10   4   7    0.68    0.23
  10   4   8    3.82    0.54
 -10  -4  -8    3.34    0.57
  10   4   9    0.10    0.17
 -10  -5   6    0.10    0.17
  10   5  -6   -0.27    0.23
 -10  -5   5    0.71    0.29
  10   5  -5    0.63    0.25
 -10  -5   4    1.30    0.32
  10   5  -4    1.05    0.28
 -10  -5   3    2.51    0.41
  10   5  -3    3.59    0.55
  10   5  -2    9.61    0.83
 -10  -5   2    9.65    0.77
 -10  -5   1    0.16    0.17
 -10  -5   1    0.10    0.17
  10   5  -1    0.01    0.19
 -10  -5   0    0.16    0.16
 -10  -5   0    0.56    0.22
  10   5   0    0.24    0.19
 -10  -5  -1    2.17    0.38
 -10  -5  -1    2.60    0.41
  10   5   1    2.31    0.40
 -10  -5  -2    1.79    0.36
 -10  -5  -2    2.30    0.39
  10   5   2    1.83    0.37
 -10  -5  -3    5.99    0.63
  10   5   3    6.34    0.65
 -10  -5  -3    4.94    0.54
 -10  -5  -4    0.48    0.21
  10   5   4   -0.02    0.15
 -10  -5  -4    0.10    0.19
  10   5   4    0.16    0.18
 -10  -5  -5    1.39    0.31
  10   5   5    1.71    0.36
 -10  -5  -5    2.01    0.41
  10   5   5    1.12    0.29
 -10  -5  -6    2.75    0.41
  10   5   6    2.84    0.46
 -10  -5  -6    3.61    0.55
  10   5   6    3.05    0.44
 -10  -5  -7   -0.19    0.19
  10   5   7   -0.24    0.25
  10   5   7    0.08    0.16
 -10  -5  -8    0.11    0.16
  10   5   8    0.35    0.20
 -10  -5  -8    0.05    0.22
  10   5   8    0.27    0.17
 -10  -5  -9    1.01    0.28
 -10  -5  -9    1.37    0.41
 -10  -6   5    0.30    0.20
  10   6  -5    0.29    0.24
 -10  -6   4   -0.11    0.20
  10   6  -4    0.00    0.15
 -10  -6   3    0.08    0.19
  10   6  -3    0.25    0.23
  10   6  -2    5.36    0.66
 -10  -6   2    5.63    0.61
 -10  -6   1    0.56    0.27
  10   6  -1    0.26    0.21
 -10  -6   0    0.31    0.18
  10   6   0    1.06    0.32
 -10  -6  -1    0.22    0.19
  10   6   1    0.18    0.17
 -10  -6  -2    4.00    0.51
 -10  -6  -2    3.84    0.47
  10   6   2    3.01    0.46
 -10  -6  -3    3.04    0.46
 -10  -6  -3    3.41    0.48
  10   6   3    3.21    0.47
 -10  -6  -4    0.69    0.23
 -10  -6  -4    0.37    0.26
  10   6   4    0.60    0.23
 -10  -6  -5    0.53    0.23
 -10  -6  -5    0.58    0.29
  10   6   5    0.09    0.14
 -10  -6  -6    2.58    0.41
 -10  -6  -6    2.53    0.46
  10   6   6    2.12    0.38
 -10  -6  -7    2.35    0.40
 -10  -6  -7    2.43    0.47
  10   6   7    1.90    0.35
 -10  -6  -8   -0.18    0.17
 -10  -6  -8    0.30    0.26
 -10  -6  -9    0.06    0.14
 -10  -6  -9    0.49    0.27
  10   6   9    0.60    0.21
 -10  -6 -10    1.46    0.33
  10   6  10    1.47    0.33
 -10  -7   4   -0.04    0.19
 -10  -7   3    1.50    0.35
  10   7  -3    1.27    0.37
 -10  -7   2   -0.10    0.19
  10   7  -2   -0.09    0.19
 -10  -7   1    0.94    0.30
  10   7  -1    0.83    0.29
 -10  -7   0    0.37    0.23
  10   7   0    0.70    0.28
 -10  -7  -1   -0.10    0.17
  10   7   1    0.43    0.26
  10   7   2    7.87    0.74
 -10  -7  -2    6.55    0.68
 -10  -7  -3    0.29    0.20
  10   7   3    1.22    0.30
 -10  -7  -4    1.24    0.30
 -10  -7  -4    1.06    0.30
  10   7   4    0.68    0.22
 -10  -7  -5    5.80    0.63
  10   7   5    5.08    0.59
 -10  -7  -5    5.53    0.62
 -10  -7  -6    2.78    0.44
 -10  -7  -6    3.04    0.51
  10   7   6    1.51    0.32
 -10  -7  -7    8.28    0.80
  10   7   7    7.38    0.68
 -10  -7  -7    8.56    0.76
 -10  -7  -8    4.51    0.57
 -10  -7  -8    5.27    0.67
 -10  -7  -9    1.75    0.37
  10   7   9    1.69    0.35
 -10  -7  -9    2.39    0.47
 -10  -7 -10    0.56    0.23
  10   7  10    0.58    0.23
 -10  -8   3   -0.05    0.23
 -10  -8   2    2.15    0.43
  10   8  -2    1.98    0.43
 -10  -8   1    1.04    0.32
  10   8  -1    1.05    0.28
  10   8  -1    0.84    0.29
  10   8   0    0.51    0.24
  10   8   0    0.15    0.13
 -10  -8  -1    0.69    0.29
  10   8   1    0.74    0.25
 -10  -8  -2    0.02    0.19
  10   8   2    0.16    0.16
 -10  -8  -3    0.35    0.25
  10   8   3   -0.35    0.26
 -10  -8  -4    0.27    0.20
  10   8   4    0.94    0.28
 -10  -8  -5    0.59    0.26
  10   8   5    0.57    0.26
 -10  -8  -6    4.28    0.57
 -10  -8  -6    3.85    0.53
  10   8   6    3.71    0.51
 -10  -8  -7    2.95    0.48
 -10  -8  -7    3.55    0.53
  10   8   7    3.39    0.48
 -10  -8  -8    0.02    0.18
 -10  -8  -8    0.65    0.27
 -10  -8  -9    0.09    0.17
 -10  -8  -9    0.03    0.24
 -10  -9   1    0.75    0.28
  10   9  -1    1.28    0.36
 -10  -9   0    0.13    0.23
  10   9   0    0.16    0.15
  10   9   0   -0.13    0.18
 -10  -9  -1    1.15    0.34
  10   9   1    1.10    0.30
  10   9   1    1.26    0.35
 -10  -9  -2    0.21    0.18
  10   9   2    0.15    0.17
  10   9   2    0.18    0.18
 -10  -9  -3    2.01    0.43
  10   9   3    2.62    0.46
  10   9   3    2.24    0.43
 -10  -9  -4    0.09    0.19
  10   9   4    0.17    0.16
 -10  -9  -5    0.28    0.20
  10   9   5   -0.04    0.15
 -10  -9  -6    2.53    0.48
  10   9   6    2.52    0.45
 -10  -9  -7    0.45    0.24
 -10  -9  -7    0.96    0.31
  10   9   7    0.54    0.21
 -10  -9  -8    0.45    0.23
 -10  -9  -8    0.43    0.25
 -10  -9  -9    0.78    0.29
 -10  -9  -9    0.73    0.32
  10  10   0    0.47    0.23
 -10 -10  -1    2.02    0.45
  10  10   1    0.99    0.28
  10  10   1    1.15    0.34
 -10 -10  -2    2.19    0.44
  10  10   2    1.58    0.37
  10  10   2    1.61    0.38
 -10 -10  -3   -0.26    0.24
  10  10   3    0.07    0.16
  10  10   3    0.24    0.20
 -10 -10  -4    0.73    0.29
  10  10   4    0.40    0.22
  10  10   4    0.72    0.27
 -10 -10  -5    1.32    0.38
  10  10   5    1.55    0.36
  10  10   5    1.31    0.34
 -10 -10  -6    1.43    0.39
  10  10   6    0.68    0.27
 -10 -10  -7    1.89    0.41
  10  10   7    1.77    0.40
  10  10   7    0.91    0.28
 -10 -10  -9    1.15    0.33
  10  11   1    0.07    0.13
  10  11   2    0.24    0.17
  10  11   3   -0.04    0.15
  10  11   3    0.05    0.15
  10  11   4    0.86    0.29
  10  11   4    0.49    0.24
  10  11   5    0.37    0.19
  10  11   6    0.54    0.24
  11  -3  -4    1.68    0.37
  11  -3  -3    2.99    0.48
  11  -2  -3    0.21    0.16
  11  -2  -2    0.57    0.25
  11  -2  -2    0.12    0.18
  11  -2  -1    0.17    0.19
  11  -2  -1   -0.09    0.23
  11  -2   0    0.05    0.13
 -11   1   5    0.00    0.15
  11  -1  -5    0.11    0.17
 -11   1   4   -0.19    0.21
  11  -1  -4    0.31    0.21
 -11   1   3    2.20    0.47
  11  -1  -3    2.02    0.38
  11  -1  -3    2.60    0.46
 -11   1   2   -0.05    0.18
  11  -1  -2    0.58    0.25
 -11   1   1    0.25    0.23
  11  -1  -1    0.05    0.18
 -11   1   0   -0.16    0.18
  11  -1   0    0.17    0.16
  11  -1   0   -0.17    0.22
 -11   1  -1    0.99    0.33
  11  -1   1    0.93    0.29
  11  -1   1    0.71    0.27
 -11   0   6    0.59    0.23
 -11   0   5    0.79    0.28
  11   0  -5    1.01    0.30
 -11   0   4    0.20    0.21
  11   0  -4    0.70    0.27
  11   0  -3    6.53    0.65
 -11   0   3    6.78    0.76
  11   0  -3    7.27    0.74
 -11   0   2    0.21    0.26
  11   0  -2    0.43    0.20
  11   0  -2    0.30    0.20
 -11   0   1    0.35    0.26
  11   0  -1    0.17    0.19
  11   0  -1    0.79    0.29
 -11   0   0    1.25    0.36
  11   0   0    0.55    0.21
 -11   0  -1    0.79    0.32
  11   0   1    0.70    0.22
 -11   0  -2    1.37    0.38
 -11   0  -2    1.46    0.37
  11   0   2    1.10    0.34
  11   0   3    0.15    0.17
 -11   0  -3   -0.08    0.23
  11   0   3   -0.12    0.21
 -11  -1   6    0.41    0.21
 -11  -1   5    0.32    0.25
  11   1  -5   -0.27    0.18
 -11  -1   4   -0.19    0.21
  11   1  -4    0.09    0.17
 -11  -1   3    3.32    0.53
  11   1  -3    3.89    0.55
 -11  -1   2    0.22    0.20
  11   1  -2   -0.10    0.16
  11   1  -2    0.21    0.20
 -11  -1   1    0.11    0.16
  11   1  -1    0.34    0.21
  11   1  -1    0.28    0.21
 -11  -1   0    0.05    0.18
  11   1   0    0.13    0.17
  11   1   0    0.19    0.16
 -11  -1  -1    0.29    0.25
  11   1   1    0.37    0.23
  11   1   1    0.46    0.25
 -11  -1  -2    2.10    0.48
  11   1   2    1.70    0.36
 -11  -1  -2    1.76    0.43
  11   1   3    0.08    0.16
 -11  -1  -3    0.05    0.21
  11   1   4   -0.25    0.22
 -11  -1  -4   -0.11    0.24
  11   2  -5    0.24    0.18
 -11  -2   4   -0.04    0.15
  11   2  -4   -0.19    0.22
 -11  -2   3   -0.01    0.16
  11   2  -3    0.04    0.16
 -11  -2   2    2.13    0.43
  11   2  -2    2.63    0.42
  11   2  -2    1.95    0.41
 -11  -2   1    0.26    0.21
  11   2  -1    0.58    0.22
  11   2  -1    0.26    0.19
 -11  -2   0    0.95    0.35
  11   2   0    0.60    0.25
  11   2   0    0.50    0.22
  11   2   1    6.61    0.67
  11   2   1    7.02    0.71
 -11  -2  -1    7.03    0.76
  11   2   2    0.18    0.21
 -11  -2  -2   -0.06    0.23
  11   2   2    0.33    0.22
  11   2   3    2.99    0.48
 -11  -2  -3    3.14    0.53
  11   2   3    3.66    0.52
  11   2   4    4.63    0.60
 -11  -2  -4    4.04    0.61
  11   2   4    3.14    0.49
 -11  -2  -5    0.87    0.33
  11   2   5    1.04    0.29
  11   3  -4    2.73    0.48
 -11  -3   3    4.02    0.55
  11   3  -3    3.60    0.54
 -11  -3   2    1.15    0.32
  11   3  -2    1.22    0.30
  11   3  -2    1.24    0.33
 -11  -3   1   -0.07    0.15
  11   3  -1    0.14    0.14
  11   3  -1   -0.09    0.22
 -11  -3   0   -0.19    0.23
  11   3   0   -0.12    0.14
  11   3   0    0.19    0.17
 -11  -3  -1    2.15    0.44
  11   3   1    1.73    0.36
  11   3   1    2.03    0.39
  11   3   2    0.26    0.17
 -11  -3  -2   -0.07    0.19
  11   3   2    0.20    0.16
  11   3   3    0.48    0.20
 -11  -3  -3    0.44    0.25
  11   3   3    0.41    0.20
  11   3   4   -0.51    0.24
 -11  -3  -4   -0.21    0.25
  11   3   4    0.08    0.17
  11   3   5    0.11    0.19
 -11  -3  -5    0.12    0.22
  11   3   5   -0.04    0.13
  11   3   6    1.93    0.38
  11   3   7    0.44    0.20
  11   4  -3   -0.10    0.18
  11   4  -2    6.05    0.69
 -11  -4   1    0.35    0.19
  11   4  -1    0.14    0.15
 -11  -4   0    0.38    0.23
  11   4   0   -0.03    0.17
 -11  -4  -1    0.96    0.30
  11   4   1    0.87    0.26
 -11  -4  -1    0.70    0.25
  11   4   1    1.31    0.33
  11   4   2    0.98    0.29
 -11  -4  -2    1.04    0.29
  11   4   2    1.01    0.29
  11   4   3    0.13    0.14
 -11  -4  -3   -0.31    0.25
  11   4   3    0.13    0.15
  11   4   4    0.70    0.28
 -11  -4  -4    0.47    0.26
  11   4   4    0.63    0.23
  11   4   5    2.98    0.48
 -11  -4  -5    2.48    0.48
  11   4   5    2.93    0.46
 -11  -4  -6    0.51    0.32
  11   4   6    0.06    0.11
  11   4   7    1.71    0.36
  11   5  -2    1.72    0.40
  11   5  -1    0.20    0.20
 -11  -5   0    1.73    0.37
  11   5   0    2.28    0.44
 -11  -5  -1    0.98    0.30
  11   5   1    0.40    0.18
 -11  -5  -2    0.62    0.23
  11   5   2    1.38    0.34
 -11  -5  -3    1.32    0.34
  11   5   3    0.91    0.28
 -11  -5  -4    0.09    0.20
  11   5   4   -0.23    0.21
  11   5   5    5.47    0.65
 -11  -5  -5    5.17    0.66
  11   5   5    5.95    0.65
  11   5   6    1.01    0.28
 -11  -5  -6    1.73    0.42
  11   5   6    1.29    0.35
  11   5   7    1.59    0.35
 -11  -6   3    0.39    0.23
 -11  -6   2    1.31    0.35
 -11  -6   1    0.24    0.19
  11   6  -1    0.37    0.26
 -11  -6   0    0.85    0.29
  11   6   0    1.47    0.37
 -11  -6  -1    0.29    0.19
  11   6   1    0.22    0.18
 -11  -6  -2    0.93    0.30
  11   6   2    1.03    0.31
 -11  -6  -3    0.04    0.17
 -11  -6  -3   -0.26    0.23
  11   6   3    0.18    0.16
 -11  -6  -4   -0.24    0.24
 -11  -6  -4   -0.03    0.17
  11   6   4   -0.12    0.17
 -11  -6  -5    0.78    0.29
 -11  -6  -5    0.20    0.22
  11   6   5    0.57    0.24
 -11  -6  -6    0.66    0.29
  11   6   6    0.04    0.18
 -11  -6  -7    0.21    0.20
  11   6   7    0.24    0.15
 -11  -7   2    0.22    0.19
 -11  -7   1    0.52    0.25
 -11  -7   0    0.01    0.19
  11   7   0   -0.10    0.20
 -11  -7  -1    0.59    0.26
  11   7   1    1.59    0.39
 -11  -7  -2    0.09    0.17
  11   7   2   -0.18    0.26
 -11  -7  -3   -0.11    0.18
  11   7   3    0.21    0.18
 -11  -7  -4    1.36    0.36
  11   7   4    1.71    0.39
 -11  -7  -5    0.69    0.23
 -11  -7  -5    0.31    0.23
  11   7   5    0.13    0.17
 -11  -7  -6    2.69    0.47
 -11  -7  -6    1.79    0.40
  11   7   6    1.73    0.37
 -11  -7  -7    0.32    0.16
 -11  -7  -7    0.25    0.24
  11   7   7   -0.28    0.19
 -11  -7  -8    0.07    0.14
 -11  -8   0    1.76    0.38
  11   8   0    2.00    0.41
 -11  -8  -1    1.19    0.34
 -11  -8  -2    1.75    0.40
  11   8   2    1.92    0.42
 -11  -8  -3    0.68    0.27
  11   8   3    1.15    0.34
 -11  -8  -4    0.31    0.22
  11   8   4    0.56    0.26
 -11  -8  -5    1.18    0.33
  11   8   5    1.74    0.39
 -11  -8  -6    1.61    0.39
  11   8   6    0.68    0.26
 -11  -8  -7    0.14    0.18
 -11  -8  -7    0.00    0.18
  11   8   7   -0.17    0.22
  11   9   1    1.81    0.39
  11   9   2    0.44    0.22
 -11  -9  -3   -0.11    0.19
 -11  -9  -4    0.32    0.24
  11   9   4    0.34    0.21
 -11  -9  -5    2.07    0.44
  11   9   5    2.07    0.41
  11   9   6   -0.02    0.16
  12   3  -1    0.42    0.18
 -12  -4   1    0.25    0.16
 -12  -4   0    0.75    0.28
 -12  -4  -2    0.39    0.20
 -12  -5  -1    1.21    0.36
 -12  -6  -2   -0.43    0.22
   0   0   0    0.00    0.00
;
_shelx_hkl_checksum              55926
loop_
_space_group_symop_operation_xyz
'x, y, z'
'-x, -y, -z'
loop_
_atom_site_label
_atom_site_type_symbol
_atom_site_fract_x
_atom_site_fract_y
_atom_site_fract_z
_atom_site_U_iso_or_equiv
_atom_site_adp_type
_atom_site_occupancy
_atom_site_site_symmetry_order
_atom_site_calc_flag
_atom_site_refinement_flags_posn
_atom_site_refinement_flags_adp
I1 I 0.30787(2) 0.11546(2) 0.81225(2) 0.03841(7) Uani 1 1 d . .
Cl3 Cl -0.15281(8) 0.51264(7) 0.17154(6) 0.03508(13) Uani 1 1 d . .
Cl1 Cl 0.52044(8) 0.22408(7) 0.22269(6) 0.03778(14) Uani 1 1 d . .
Cl4 Cl 0.20489(9) 0.05693(7) 0.13191(6) 0.03951(15) Uani 1 1 d . .
Cl2 Cl 0.06577(8) 0.09339(8) 0.59123(6) 0.03733(14) Uani 1 1 d . .
N2 N 0.1302(2) 0.2791(2) 0.24044(18) 0.0260(4) Uani 1 1 d . .
C1 C 0.3009(3) 0.1670(2) 0.4155(2) 0.0239(4) Uani 1 1 d . .
C7 C 0.0127(3) 0.2833(2) 0.15042(19) 0.0240(4) Uani 1 1 d . .
N1 N 0.1792(3) 0.1627(2) 0.33171(17) 0.0269(4) Uani 1 1 d . .
C12 C -0.1238(3) 0.3955(2) 0.1054(2) 0.0257(4) Uani 1 1 d . .
C13 C -0.3617(4) 0.3268(4) -0.1268(3) 0.0513(8) Uani 1 1 d . .
H13A H -0.3612(4) 0.234(3) -0.1165(4) 0.062 Uiso 1 1 calc R U
H13B H -0.470(3) 0.3607(9) -0.1006(8) 0.062 Uiso 1 1 calc R U
C6 C 0.2588(3) 0.1372(2) 0.5426(2) 0.0245(4) Uani 1 1 d . .
C5 C 0.3711(3) 0.1418(2) 0.6267(2) 0.0280(4) Uani 1 1 d . .
C2 C 0.4595(3) 0.1932(2) 0.3769(2) 0.0280(4) Uani 1 1 d . .
C3 C 0.5751(3) 0.1916(3) 0.4623(2) 0.0340(5) Uani 1 1 d . .
H3 H 0.684(4) 0.2065(6) 0.4361(9) 0.041 Uiso 1 1 calc R U
C11 C -0.2403(3) 0.4139(3) 0.0132(2) 0.0293(5) Uani 1 1 d . .
H11 H -0.334(3) 0.496(3) -0.0181(10) 0.035 Uiso 1 1 calc R U
C14 C -0.3478(6) 0.4153(5) -0.2637(4) 0.0695(11) Uani 1 1 d . .
H14A H -0.4492 0.4196 -0.3107 0.083 Uiso 1 1 calc R U
H14B H -0.3506 0.5100 -0.2740 0.083 Uiso 1 1 calc R U
C10 C -0.2260(3) 0.3166(3) -0.0358(2) 0.0333(5) Uani 1 1 d . .
C4 C 0.5299(3) 0.1681(3) 0.5856(2) 0.0345(5) Uani 1 1 d . .
H4 H 0.606(3) 0.1699(3) 0.642(2) 0.041 Uiso 1 1 calc R U
C9 C -0.0891(3) 0.2073(3) 0.0047(2) 0.0310(5) Uani 1 1 d . .
H9 H -0.0749(5) 0.139(2) -0.0324(12) 0.037 Uiso 1 1 calc R U
C8 C 0.0294(3) 0.1904(2) 0.0958(2) 0.0260(4) Uani 1 1 d . .
C15 C -0.2004(5) 0.3758(4) -0.3257(4) 0.0655(10) Uani 1 1 d . .
H15A H -0.1860 0.2764 -0.3041 0.079 Uiso 1 1 calc R U
H15B H -0.0996 0.3876 -0.2900 0.079 Uiso 1 1 calc R U
C16 C -0.2087(6) 0.4603(4) -0.4755(4) 0.0708(11) Uani 1 1 d . .
H16A H -0.3198 0.4674 -0.5102 0.106 Uiso 1 1 calc R U
H16B H -0.1211 0.4133 -0.5122 0.106 Uiso 1 1 calc R U
H16C H -0.1903 0.5533 -0.4980 0.106 Uiso 1 1 calc R U
loop_
_atom_site_aniso_label
_atom_site_aniso_U_11
_atom_site_aniso_U_22
_atom_site_aniso_U_33
_atom_site_aniso_U_23
_atom_site_aniso_U_13
_atom_site_aniso_U_12
I1 0.04781(11) 0.04627(11) 0.02596(9) -0.02018(7) -0.00333(7) -0.00849(8)
Cl3 0.0325(3) 0.0378(3) 0.0397(3) -0.0237(3) 0.0000(2) -0.0012(2)
Cl1 0.0386(3) 0.0419(3) 0.0262(3) -0.0095(2) 0.0092(2) -0.0088(3)
Cl4 0.0486(4) 0.0367(3) 0.0310(3) -0.0194(2) -0.0128(2) 0.0096(3)
Cl2 0.0310(3) 0.0587(4) 0.0285(3) -0.0215(3) 0.0052(2) -0.0175(3)
N2 0.0270(9) 0.0285(9) 0.0229(8) -0.0114(7) -0.0015(7) -0.0053(7)
C1 0.0270(10) 0.0225(9) 0.0209(9) -0.0081(8) -0.0016(8) -0.0052(8)
C7 0.0252(10) 0.0271(10) 0.0184(9) -0.0079(8) 0.0013(7) -0.0075(8)
N1 0.0316(10) 0.0301(9) 0.0191(8) -0.0097(7) -0.0012(7) -0.0089(8)
C12 0.0256(10) 0.0296(10) 0.0225(9) -0.0112(8) 0.0033(8) -0.0082(8)
C13 0.0310(13) 0.082(2) 0.0525(18) -0.0451(18) -0.0134(12) 0.0034(14)
C6 0.0252(10) 0.0250(10) 0.0237(10) -0.0107(8) -0.0007(8) -0.0057(8)
C5 0.0339(12) 0.0274(10) 0.0226(10) -0.0104(8) -0.0040(8) -0.0058(9)
C2 0.0302(11) 0.0257(10) 0.0231(10) -0.0064(8) 0.0011(8) -0.0055(9)
C3 0.0275(11) 0.0343(12) 0.0346(12) -0.0087(10) -0.0021(9) -0.0088(10)
C11 0.0220(10) 0.0379(12) 0.0246(10) -0.0116(9) 0.0005(8) -0.0035(9)
C14 0.076(3) 0.078(3) 0.053(2) -0.032(2) -0.0238(19) -0.001(2)
C10 0.0270(11) 0.0498(15) 0.0246(11) -0.0178(10) -0.0003(8) -0.0075(10)
C4 0.0326(12) 0.0356(12) 0.0313(12) -0.0092(10) -0.0100(9) -0.0087(10)
C9 0.0329(12) 0.0389(12) 0.0249(11) -0.0160(10) 0.0010(9) -0.0107(10)
C8 0.0276(11) 0.0255(10) 0.0218(10) -0.0083(8) -0.0025(8) -0.0032(8)
C15 0.063(2) 0.073(2) 0.056(2) -0.0204(19) -0.0131(17) -0.0176(19)
C16 0.094(3) 0.064(2) 0.051(2) -0.0205(18) 0.006(2) -0.021(2)
loop_
_atom_type_symbol
_atom_type_description
_atom_type_scat_dispersion_real
_atom_type_scat_dispersion_imag
_atom_type_scat_source
C C 0.0033 0.0016 'International Tables Vol C Tables 4.2.6.8 and 6.1.1.4'
H H 0.0000 0.0000 'International Tables Vol C Tables 4.2.6.8 and 6.1.1.4'
N N 0.0061 0.0033 'International Tables Vol C Tables 4.2.6.8 and 6.1.1.4'
Cl Cl 0.1484 0.1585 'International Tables Vol C Tables 4.2.6.8 and 6.1.1.4'
I I -0.4742 1.8119 'International Tables Vol C Tables 4.2.6.8 and 6.1.1.4'
loop_
_geom_angle_atom_site_label_1
_geom_angle_atom_site_label_2
_geom_angle_atom_site_label_3
_geom_angle
N1 N2 C7 114.74(18)
C2 C1 C6 119.2(2)
C2 C1 N1 122.7(2)
C6 C1 N1 118.07(19)
C12 C7 C8 117.1(2)
C12 C7 N2 117.14(19)
C8 C7 N2 125.6(2)
N2 N1 C1 111.09(18)
C11 C12 C7 122.1(2)
C11 C12 Cl3 118.75(18)
C7 C12 Cl3 119.09(17)
C14 C13 C10 116.4(3)
C14 C13 H13A 108.2
C10 C13 H13A 108.2
C14 C13 H13B 108.2
C10 C13 H13B 108.2
H13A C13 H13B 107.3
C5 C6 C1 120.3(2)
C5 C6 Cl2 121.49(18)
C1 C6 Cl2 118.25(16)
C6 C5 C4 119.3(2)
C6 C5 I1 122.14(17)
C4 C5 I1 118.54(17)
C1 C2 C3 120.7(2)
C1 C2 Cl1 120.90(18)
C3 C2 Cl1 118.34(19)
C4 C3 C2 119.7(2)
C4 C3 H3 120.2
C2 C3 H3 120.2
C12 C11 C10 120.0(2)
C12 C11 H11 120.0
C10 C11 H11 120.0
C15 C14 C13 117.3(3)
C15 C14 H14A 108.0
C13 C14 H14A 108.0
C15 C14 H14B 108.0
C13 C14 H14B 108.0
H14A C14 H14B 107.2
C9 C10 C11 118.6(2)
C9 C10 C13 120.4(2)
C11 C10 C13 120.9(2)
C3 C4 C5 120.7(2)
C3 C4 H4 119.6
C5 C4 H4 119.6
C10 C9 C8 121.1(2)
C10 C9 H9 119.4
C8 C9 H9 119.4
C9 C8 C7 121.0(2)
C9 C8 Cl4 117.61(18)
C7 C8 Cl4 121.30(17)
C14 C15 C16 114.2(4)
C14 C15 H15A 108.7
C16 C15 H15A 108.7
C14 C15 H15B 108.7
C16 C15 H15B 108.7
H15A C15 H15B 107.6
C15 C16 H16A 109.5
C15 C16 H16B 109.5
H16A C16 H16B 109.5
C15 C16 H16C 109.5
H16A C16 H16C 109.5
H16B C16 H16C 109.5
loop_
_geom_bond_atom_site_label_1
_geom_bond_atom_site_label_2
_geom_bond_distance
I1 C5 2.087(2)
Cl3 C12 1.737(2)
Cl1 C2 1.729(2)
Cl4 C8 1.735(2)
Cl2 C6 1.728(2)
N2 N1 1.247(3)
N2 C7 1.426(3)
C1 C2 1.386(3)
C1 C6 1.399(3)
C1 N1 1.439(3)
C7 C12 1.395(3)
C7 C8 1.399(3)
C12 C11 1.380(3)
C13 C14 1.464(5)
C13 C10 1.515(3)
C13 H13A 0.97(3)
C13 H13B 0.97(3)
C6 C5 1.391(3)
C5 C4 1.393(4)
C2 C3 1.388(3)
C3 C4 1.377(4)
C3 H3 0.95(3)
C11 C10 1.397(4)
C11 H11 0.99(3)
C14 C15 1.451(6)
C14 H14A 0.9900
C14 H14B 0.9900
C10 C9 1.379(4)
C4 H4 0.93(3)
C9 C8 1.388(3)
C9 H9 1.00(3)
C15 C16 1.564(5)
C15 H15A 0.9900
C15 H15B 0.9900
C16 H16A 0.9800
C16 H16B 0.9800
C16 H16C 0.9800
loop_
_geom_torsion_atom_site_label_1
_geom_torsion_atom_site_label_2
_geom_torsion_atom_site_label_3
_geom_torsion_atom_site_label_4
_geom_torsion
N1 N2 C7 C12 138.0(2)
N1 N2 C7 C8 -47.2(3)
C7 N2 N1 C1 178.22(18)
C2 C1 N1 N2 -66.6(3)
C6 C1 N1 N2 116.4(2)
C8 C7 C12 C11 1.4(3)
N2 C7 C12 C11 176.6(2)
C8 C7 C12 Cl3 178.95(16)
N2 C7 C12 Cl3 -5.9(3)
C2 C1 C6 C5 3.7(3)
N1 C1 C6 C5 -179.1(2)
C2 C1 C6 Cl2 -175.70(17)
N1 C1 C6 Cl2 1.5(3)
C1 C6 C5 C4 -3.9(3)
Cl2 C6 C5 C4 175.53(19)
C1 C6 C5 I1 174.52(16)
Cl2 C6 C5 I1 -6.1(3)
C6 C1 C2 C3 -0.7(3)
N1 C1 C2 C3 -177.7(2)
C6 C1 C2 Cl1 177.50(17)
N1 C1 C2 Cl1 0.5(3)
C1 C2 C3 C4 -2.1(4)
Cl1 C2 C3 C4 179.6(2)
C7 C12 C11 C10 1.6(3)
Cl3 C12 C11 C10 -176.00(18)
C10 C13 C14 C15 63.1(5)
C12 C11 C10 C9 -3.5(3)
C12 C11 C10 C13 173.8(3)
C14 C13 C10 C9 -96.9(4)
C14 C13 C10 C11 85.9(4)
C2 C3 C4 C5 2.0(4)
C6 C5 C4 C3 1.0(4)
I1 C5 C4 C3 -177.46(19)
C11 C10 C9 C8 2.4(4)
C13 C10 C9 C8 -174.9(3)
C10 C9 C8 C7 0.6(4)
C10 C9 C8 Cl4 -175.48(19)
C12 C7 C8 C9 -2.5(3)
N2 C7 C8 C9 -177.2(2)
C12 C7 C8 Cl4 173.45(17)
N2 C7 C8 Cl4 -1.3(3)
C13 C14 C15 C16 170.4(3)
