#------------------------------------------------------------------------------
#$Date: 2017-02-22 05:50:20 +0200 (Wed, 22 Feb 2017) $
#$Revision: 192435 $
#$URL: file:///home/coder/svn-repositories/cod/cif/1/54/53/1545308.cif $
#------------------------------------------------------------------------------
#
# This file is available in the Crystallography Open Database (COD),
# http://www.crystallography.net/. The original data for this entry
# were provided by IUCr Journals, http://journals.iucr.org/.
#
# The file may be used within the scientific community so long as
# proper attribution is given to the journal article from which the
# data were obtained.
#
data_1545308
loop_
_publ_author_name
'Du, Ran'
'Meng, Li'
'Lu, Li-Ping'
_publ_section_title
;
 1,4-Bis(1<i>H</i>-1,2,4-triazol-1-yl)benzene
;
_journal_coeditor_code           HB4114
_journal_issue                   2
_journal_name_full               IUCrData
_journal_page_first              x170272
_journal_paper_doi               10.1107/S2414314617002723
_journal_volume                  2
_journal_year                    2017
_chemical_formula_iupac          'C10 H8 N6'
_chemical_formula_moiety         'C10 H8 N6'
_chemical_formula_sum            'C10 H8 N6'
_chemical_formula_weight         212.22
_chemical_name_systematic
;
1,4-Bis(1<i>H</i>-1,2,4-triazol-1-yl)benzene
;
_space_group_crystal_system      monoclinic
_space_group_IT_number           14
_space_group_name_Hall           '-P 2ybc'
_space_group_name_H-M_alt        'P 1 21/c 1'
_symmetry_space_group_name_Hall  '-P 2ybc'
_symmetry_space_group_name_H-M   'P 1 21/c 1'
_atom_sites_solution_hydrogens   geom
_atom_sites_solution_primary     direct
_audit_creation_method           SHELXL-2016/6
_cell_angle_alpha                90
_cell_angle_beta                 96.165(3)
_cell_angle_gamma                90
_cell_formula_units_Z            2
_cell_length_a                   3.8091(3)
_cell_length_b                   10.2616(9)
_cell_length_c                   11.9768(11)
_cell_measurement_reflns_used    2111
_cell_measurement_temperature    298(2)
_cell_measurement_theta_max      27.48
_cell_measurement_theta_min      3.422
_cell_volume                     465.44(7)
_computing_cell_refinement
;
SAINT (Bruker, 2000)
;
_computing_data_collection
;
APEX2 (Bruker, 2000)
;
_computing_data_reduction
;
SAINT (Bruker, 2000)
;
_computing_molecular_graphics
;
SHELXTL (Sheldrick, 2008)
;
_computing_publication_material
;
SHELXTL (Sheldrick, 2008)
;
_computing_structure_refinement
;
SHELXL2016 (Sheldrick, 2015)
;
_computing_structure_solution
;
SHELXS97 (Sheldrick, 2008)
;
_diffrn_ambient_temperature      298(2)
_diffrn_measured_fraction_theta_full 0.992
_diffrn_measured_fraction_theta_max 0.992
_diffrn_measurement_device_type  'Bruker APEXII CCD'
_diffrn_measurement_method       '\f and \w scans'
_diffrn_radiation_type           MoK\a
_diffrn_radiation_wavelength     0.71073
_diffrn_reflns_av_R_equivalents  0.0292
_diffrn_reflns_limit_h_max       4
_diffrn_reflns_limit_h_min       -3
_diffrn_reflns_limit_k_max       13
_diffrn_reflns_limit_k_min       -13
_diffrn_reflns_limit_l_max       15
_diffrn_reflns_limit_l_min       -15
_diffrn_reflns_number            4210
_diffrn_reflns_theta_full        25.242
_diffrn_reflns_theta_max         27.483
_diffrn_reflns_theta_min         3.422
_exptl_absorpt_coefficient_mu    0.102
_exptl_absorpt_correction_T_max  0.7456
_exptl_absorpt_correction_T_min  0.6685
_exptl_absorpt_correction_type   multi-scan
_exptl_absorpt_process_details
;
(SADABS; Sheldrick, 1996)
;
_exptl_crystal_colour            colorless
_exptl_crystal_density_diffrn    1.514
_exptl_crystal_description       block
_exptl_crystal_F_000             220
_exptl_crystal_size_max          0.200
_exptl_crystal_size_mid          0.200
_exptl_crystal_size_min          0.200
_refine_diff_density_max         0.232
_refine_diff_density_min         -0.169
_refine_ls_extinction_method     none
_refine_ls_goodness_of_fit_ref   1.026
_refine_ls_hydrogen_treatment    constr
_refine_ls_matrix_type           full
_refine_ls_number_parameters     73
_refine_ls_number_reflns         1057
_refine_ls_number_restraints     0
_refine_ls_restrained_S_all      1.026
_refine_ls_R_factor_all          0.0542
_refine_ls_R_factor_gt           0.0431
_refine_ls_shift/su_max          0.001
_refine_ls_shift/su_mean         0.000
_refine_ls_structure_factor_coef Fsqd
_refine_ls_weighting_details
'w=1/[\s^2^(Fo^2^)+(0.0567P)^2^+0.1337P] where P=(Fo^2^+2Fc^2^)/3'
_refine_ls_weighting_scheme      calc
_refine_ls_wR_factor_gt          0.1082
_refine_ls_wR_factor_ref         0.1144
_reflns_number_gt                875
_reflns_number_total             1057
_reflns_threshold_expression     'I > 2\s(I)'
_cod_data_source_file            hb4114sup1.cif
_cod_data_source_block           I
_cod_database_code               1545308
_shelx_space_group_comment
;
The symmetry employed for this shelxl refinement is uniquely defined
by the following loop, which should always be used as a source of
symmetry information in preference to the above space-group names.
They are only intended as comments.
;
_shelx_estimated_absorpt_t_min   0.980
_shelx_estimated_absorpt_t_max   0.980
_shelx_hkl_file
;
   3   0   0    2.62    0.35
   4   0   0    1.46    0.23
   4   0   0    0.88    0.27
   1   1   0    0.21    0.09
   1   1   0    0.38    0.10
   2   1   0   53.89    1.17
   3  -1   0    1.44    0.19
   3   1   0    1.66    0.26
   4  -1   0    0.29    0.22
   4  -1   0   -0.03    0.20
   4   1   0    0.09    0.16
   4   1   0   -0.09    0.23
   4   1   0   -0.45    0.26
   1  -2   0   20.62    0.52
  -1  -2   0   21.99    0.49
   1  -2   0   21.26    0.44
   1  -2   0   21.97    0.49
  -1  -2   0   21.91    0.48
   1   2   0   21.91    0.48
   1   2   0   20.19    0.54
   1   2   0   21.82    0.50
   2  -2   0   37.09    0.93
   2  -2   0   37.49    0.79
   2   2   0   38.59    0.82
   2   2   0   37.25    0.87
   3  -2   0    2.29    0.29
   3  -2   0    2.39    0.30
   3   2   0    2.18    0.35
   3   2   0    1.97    0.30
   4  -2   0    2.00    0.32
   4  -2   0    2.15    0.26
   4  -2   0    2.74    0.34
   4   2   0    2.87    0.27
   4   2   0    2.78    0.39
   4   2   0    2.53    0.39
   0  -3   0    0.17    0.10
   0  -3   0   -0.10    0.07
   0  -3   0    0.11    0.10
   0   3   0    0.28    0.11
   0   3   0    0.11    0.08
   0   3   0    0.03    0.07
  -1  -3   0   11.00    0.32
   1  -3   0   11.01    0.26
  -1  -3   0   11.45    0.37
   1  -3   0   11.15    0.37
   1  -3   0   11.45    0.32
  -1   3   0   11.34    0.26
   1   3   0   11.22    0.31
   1   3   0   10.85    0.34
  -1   3   0   11.00    0.32
   1   3   0   10.39    0.38
   2  -3   0   41.21    0.85
   2  -3   0   41.58    0.99
   2   3   0   41.75    0.94
   2   3   0   40.52    1.03
   2   3   0   42.21    0.91
   3  -3   0    0.18    0.12
   3   3   0    0.02    0.22
   3   3   0    0.21    0.21
   3   3   0    0.13    0.19
   4  -3   0    0.51    0.18
   4  -3   0    0.11    0.19
   4   3   0    0.56    0.30
   4   3   0    0.16    0.31
   0  -4   0  186.29    3.62
   0  -4   0  196.79    3.64
   0  -4   0  179.56    3.57
   0  -4   0  193.66    3.62
   0   4   0  187.88    3.63
   0   4   0  180.59    3.62
   0   4   0  197.60    3.58
  -1  -4   0    0.02    0.14
   1  -4   0    0.01    0.11
  -1  -4   0    0.03    0.11
   1  -4   0    0.10    0.11
   1  -4   0    0.10    0.06
   1   4   0   -0.04    0.12
  -1   4   0    0.00    0.06
   1   4   0    0.04    0.15
   1   4   0    0.04    0.09
  -1   4   0    0.05    0.10
  -2  -4   0    2.26    0.26
   2  -4   0    2.01    0.28
   2  -4   0    2.43    0.14
   2   4   0    2.00    0.28
   2   4   0    2.28    0.34
   2   4   0    2.09    0.24
   3  -4   0   18.71    0.67
   3  -4   0   17.22    0.45
   3   4   0   17.80    0.71
   3   4   0   16.99    0.61
   3   4   0   18.37    0.61
   4  -4   0    1.49    0.28
   4   4   0    1.19    0.33
   0  -5   0    0.14    0.12
   0   5   0    0.14    0.13
  -1  -5   0    5.78    0.36
   1  -5   0    5.39    0.21
  -1  -5   0    5.26    0.30
   1  -5   0    5.63    0.34
   1   5   0    5.49    0.35
  -1   5   0    5.54    0.21
  -1   5   0    5.22    0.27
   1   5   0    5.81    0.31
   2  -5   0   30.85    0.70
  -2  -5   0   32.14    0.76
   2   5   0   30.75    0.79
   2   5   0   31.03    0.93
   3  -5   0    5.34    0.66
   3   5   0    5.56    0.40
   3   5   0    6.06    0.49
   4  -5   0    0.82    0.28
   4   5   0    1.91    0.43
   4   5   0    0.82    0.35
   0  -6   0   27.35    0.76
   0   6   0   27.90    0.74
   1  -6   0   21.16    0.68
  -1  -6   0   21.28    0.63
   1  -6   0   21.80    0.52
  -1   6   0   20.38    0.63
   1   6   0   20.66    0.61
  -1   6   0   21.58    0.52
   1   6   0   20.66    0.68
   2  -6   0    0.24    0.20
  -2  -6   0    0.61    0.18
   2  -6   0    0.41    0.10
   2   6   0    0.41    0.21
   2   6   0    0.27    0.24
   3  -6   0    3.92    0.44
   3   6   0    4.43    0.53
   3   6   0    4.48    0.36
   4   6   0    0.42    0.38
   0  -7   0    0.14    0.19
   0   7   0    0.02    0.18
   1  -7   0    2.62    0.36
  -1  -7   0    2.67    0.36
   1   7   0    2.98    0.40
  -1   7   0    2.17    0.29
   2  -7   0   96.26    1.80
   2  -7   0   93.04    2.12
  -2  -7   0   89.83    1.94
  -2   7   0   89.01    1.94
   2   7   0   93.19    1.97
  -2   7   0   91.67    1.79
   3  -7   0    0.38    0.25
   3   7   0    1.38    0.23
   3   7   0    0.79    0.32
   4  -7   0    1.01    0.36
   4   7   0    1.54    0.53
   0  -8   0  108.99    2.37
  -1  -8   0   43.30    1.28
   1  -8   0   43.47    1.20
   1   8   0   45.18    1.21
  -1   8   0   44.61    1.11
  -2  -8   0    0.72    0.24
   2  -8   0    0.82    0.25
   2   8   0    0.79    0.21
  -2   8   0    1.02    0.24
   3  -8   0   -0.03    0.45
   3   8   0    0.01    0.35
   0  -9   0   -0.12    0.20
   0   9   0    0.10    0.23
  -1  -9   0   19.13    0.72
   1   9   0   18.80    0.74
  -1   9   0   18.64    0.68
   2  -9   0   19.79    0.82
  -2  -9   0   18.51    0.72
  -2   9   0   19.24    0.70
   2   9   0   19.05    0.82
   3  -9   0    4.30    0.63
   3   9   0    4.78    0.65
   0 -10   0   64.72    1.66
   0  10   0   66.78    1.63
   1 -10   0   10.49    0.71
  -1 -10   0   10.64    0.59
  -1  10   0   10.25    0.53
  -2 -10   0    0.18    0.22
   2 -10   0   -0.31    0.25
   2  10   0   -0.21    0.32
  -2  10   0    0.53    0.23
   3 -10   0    1.38    0.40
   3  10   0    0.49    0.43
   0 -11   0   -0.19    0.25
   1 -11   0    5.05    0.58
  -1  11   0    5.26    0.46
   1  11   0    3.96    0.52
   2 -11   0   -0.33    0.27
  -2 -11   0   -0.27    0.25
   2  11   0   -0.25    0.35
  -2  11   0    0.37    0.27
   0 -12   0    1.03    0.38
   0  12   0    1.11    0.35
  -1 -12   0   -0.09    0.32
   1 -12   0    1.03    0.37
   1  12   0    0.50    0.38
  -1  12   0    0.96    0.38
  -2 -12   0    0.55    0.33
   2  12   0   -0.01    0.42
   0 -13   0   -0.31    0.36
   0  13   0   -0.19    0.32
  -1 -13   0   -0.12    0.37
  -1  13   0    0.87    0.60
   1  13   0    0.12    0.40
   4   0  -1    0.00    0.21
   4   0  -1    0.06    0.25
   4   0  -1    0.34    0.22
   3   0  -1   -0.03    0.18
   1   0   1    0.36    0.06
   1   0   1    0.45    0.08
   1   0   1    0.15    0.12
   2   0   1    0.15    0.15
   3   0   1    0.13    0.13
   3   0   1   -0.15    0.23
   4   0   1   -0.19    0.16
   4   0   1   -0.45    0.23
   4  -1  -1    0.54    0.24
   4  -1  -1    0.07    0.18
   4  -1  -1   -0.10    0.18
   4   1  -1    0.41    0.25
   3   1  -1    2.04    0.30
   3   1  -1    2.26    0.31
   2   1  -1   29.59    0.70
   2   1  -1   30.43    0.76
   1  -1  -1  185.99    3.51
   1   1  -1  183.35    3.49
   1   1  -1  193.05    3.53
   1   1  -1  188.16    3.56
   2  -1   1   67.35    1.39
   2   1   1   67.50    1.46
   3  -1   1   14.90    0.50
   3   1   1   15.71    0.61
   3   1   1   15.29    0.45
   4  -1   1    0.30    0.26
   4  -1   1    0.70    0.23
   4   1   1    0.40    0.27
   4   1   1    0.26    0.17
   4  -2  -1    0.74    0.22
   4  -2  -1    0.20    0.19
   4   2  -1    0.32    0.27
   4   2  -1    0.05    0.26
   3  -2  -1   -0.04    0.17
   3  -2  -1    0.31    0.13
   3   2  -1    0.31    0.23
   3   2  -1    0.21    0.19
   2  -2  -1    0.74    0.11
   2   2  -1    1.10    0.15
   2   2  -1    1.21    0.20
   2   2  -1    1.18    0.15
   1  -2  -1  117.05    2.17
   1  -2  -1  116.96    2.21
  -1  -2   1  114.87    2.16
  -1  -2   1  110.91    2.22
  -1  -2   1  114.53    2.26
   1   2  -1  114.94    2.27
   1   2  -1  122.22    2.30
   1   2  -1  110.11    2.16
  -1   2   1  115.33    2.18
   0  -2  -1   60.32    1.21
   0  -2  -1   63.57    1.25
   0  -2  -1   60.66    1.20
   0  -2   1   61.70    1.23
   0  -2  -1   63.64    1.21
   0   2   1   62.67    1.21
   0   2   1   62.75    1.20
   0   2  -1   61.20    1.23
   0   2   1   58.94    1.24
  -1  -2  -1   12.38    0.36
   1  -2   1   12.15    0.36
   1  -2   1   12.50    0.36
   1   2   1   12.14    0.39
  -1   2  -1   12.25    0.35
   1   2   1   12.17    0.35
   2  -2   1   12.55    0.43
   2   2   1   12.44    0.46
   2   2   1   13.34    0.34
   3  -2   1   35.37    0.91
   3   2   1   34.90    0.79
   3   2   1   34.35    0.97
   4  -2   1    1.45    0.20
   4  -2   1    0.67    0.24
   4  -2   1    1.50    0.33
   4   2   1    1.35    0.33
   4   2   1    1.11    0.31
   4  -3  -1    0.13    0.19
   4  -3  -1    0.38    0.20
   4   3  -1    0.10    0.28
   4   3  -1   -0.40    0.24
   3  -3  -1   12.21    0.54
   3  -3  -1   11.80    0.40
   3   3  -1   11.85    0.58
   3   3  -1   12.16    0.48
   2  -3  -1   49.51    1.05
   2  -3  -1   47.27    1.13
   2  -3  -1   49.37    1.01
   2   3  -1   49.97    1.08
   2   3  -1   49.03    1.03
   2   3  -1   49.39    1.18
  -1  -3   1   50.96    1.09
   1  -3  -1   50.61    1.04
   1  -3  -1   53.91    1.05
  -1  -3   1   53.33    1.05
  -1   3   1   51.80    1.04
   1   3  -1   53.04    1.15
   1   3  -1   53.82    1.10
  -1   3   1   52.94    1.04
   1   3  -1   51.18    1.04
   0  -3  -1   19.43    0.52
   0  -3   1   18.64    0.49
   0  -3  -1   18.30    0.44
   0  -3   1   18.29    0.48
   0  -3  -1   18.92    0.45
   0  -3  -1   18.22    0.46
   0   3  -1   18.10    0.48
   0   3   1   19.18    0.44
   0   3   1   17.71    0.50
   0   3   1   18.12    0.46
   0   3   1   17.91    0.47
   0   3  -1   18.73    0.42
   0   3  -1   17.99    0.47
   1  -3   1   13.22    0.41
  -1  -3  -1   14.27    0.42
   1  -3   1   13.53    0.39
  -1  -3  -1   13.30    0.34
   1   3   1   13.34    0.42
   1   3   1   14.16    0.33
  -1   3  -1   13.04    0.39
   1   3   1   12.31    0.42
   2  -3   1    9.38    0.24
   2  -3   1    9.47    0.39
   2   3   1    9.79    0.28
   2   3   1    9.04    0.44
   2   3   1    9.22    0.42
   3  -3   1    1.39    0.24
   3  -3   1    1.14    0.16
   3  -3   1    0.92    0.13
   3   3   1    1.25    0.28
   3   3   1    1.17    0.29
   4  -3   1    3.08    0.51
   4  -3   1    2.54    0.39
   4  -3   1    2.79    0.28
   4   3   1    2.08    0.39
   4  -4  -1    0.57    0.24
   4  -4  -1   -0.10    0.15
   4   4  -1   -0.11    0.23
   4   4  -1   -0.01    0.31
   3  -4  -1    4.24    0.25
   3   4  -1    4.23    0.34
   3   4  -1    3.90    0.42
  -2  -4   1    7.11    0.33
  -2  -4   1    7.02    0.28
   2  -4  -1    7.15    0.25
   2  -4  -1    7.05    0.31
   2  -4  -1    7.21    0.39
   2   4  -1    6.44    0.30
   2   4  -1    6.84    0.44
  -1  -4   1    4.67    0.27
   1  -4  -1    4.73    0.21
   1  -4  -1    4.61    0.19
  -1  -4   1    4.85    0.25
  -1   4   1    4.72    0.21
  -1   4   1    4.98    0.19
   1   4  -1    4.90    0.27
   1   4  -1    4.46    0.29
   1   4  -1    4.39    0.21
   0  -4  -1    8.02    0.30
   0  -4  -1    7.91    0.30
   0  -4   1    7.82    0.32
   0  -4   1    8.03    0.33
   0  -4  -1    8.31    0.42
   0  -4  -1    8.00    0.28
   0  -4   1    7.94    0.37
   0   4   1    8.00    0.28
   0   4  -1    8.06    0.26
   0   4  -1    8.04    0.32
   0   4   1    7.75    0.33
   0   4   1    8.29    0.30
   0   4   1    7.61    0.29
  -1  -4  -1    4.48    0.23
  -1  -4  -1    4.73    0.32
   1  -4   1    4.25    0.27
  -1   4  -1    4.59    0.14
   1   4   1    4.26    0.29
  -1   4  -1    4.36    0.24
   1   4   1    4.29    0.20
   1   4   1    4.18    0.29
   2  -4   1    4.18    0.33
   2   4   1    3.73    0.24
   2   4   1    4.01    0.35
   2   4   1    3.46    0.36
   3  -4   1    0.50    0.21
   3   4   1    0.53    0.26
   3   4   1    0.42    0.24
   4  -4   1    0.13    0.23
   4   4   1    0.12    0.36
   4   4   1    0.12    0.33
   4  -5  -1    0.09    0.24
   3  -5  -1    3.68    0.23
   3  -5  -1    3.08    0.37
   3   5  -1    3.62    0.50
   3   5  -1    3.73    0.36
   2  -5  -1   72.65    1.79
  -2  -5   1   75.71    1.50
   2  -5  -1   72.12    1.45
  -2  -5   1   71.53    1.55
   2   5  -1   71.57    1.49
   2   5  -1   74.71    1.71
   1  -5  -1    2.40    0.26
   1  -5  -1    2.66    0.18
   1  -5  -1    2.63    0.22
  -1  -5   1    2.75    0.26
  -1  -5   1    2.30    0.28
  -1   5   1    2.44    0.19
   1   5  -1    2.56    0.29
  -1   5   1    2.29    0.19
   0  -5  -1   11.67    0.41
   0  -5   1   11.22    0.43
   0  -5  -1   11.56    0.37
   0   5  -1   12.07    0.37
   0   5   1   11.75    0.40
   0   5  -1   11.14    0.42
   0   5   1   11.34    0.44
   1  -5   1   87.06    1.89
  -1  -5  -1   89.85    1.81
  -1   5  -1   88.77    1.84
  -1   5  -1   90.76    1.71
   1   5   1   88.40    1.86
   1   5   1   88.52    1.79
   1   5   1   91.96    1.92
  -2  -5  -1    3.36    0.24
   2   5   1    3.22    0.39
   2   5   1    3.37    0.24
   2   5   1    3.44    0.38
   3  -5   1    0.13    0.18
   3   5   1    0.37    0.24
   3   5   1    0.44    0.25
   4  -5   1    1.65    0.29
   4   5   1    1.36    0.38
   4   5   1    1.83    0.39
   4  -6  -1    0.72    0.35
   4   6  -1    0.46    0.38
   3  -6  -1    3.79    0.31
   3  -6  -1    5.08    0.45
   3   6  -1    3.65    0.49
   3   6  -1    4.75    0.31
  -2  -6   1    2.87    0.34
   2  -6  -1    2.90    0.21
   2  -6  -1    2.74    0.37
  -2  -6   1    2.69    0.34
  -2   6   1    2.74    0.22
   2   6  -1    2.89    0.27
   2   6  -1    2.68    0.35
   1  -6  -1  129.06    2.63
   1  -6  -1  129.79    2.47
  -1  -6   1  125.94    2.57
  -1   6   1  123.55    2.50
   1   6  -1  123.57    2.63
   0  -6  -1    5.88    0.28
   0  -6   1    5.55    0.36
   0  -6  -1    5.72    0.33
   0   6   1    5.48    0.32
   0   6  -1    5.60    0.34
   1  -6   1    6.10    0.41
  -1  -6  -1    5.90    0.34
  -1   6  -1    6.30    0.23
   1   6   1    5.52    0.40
  -1   6  -1    5.51    0.34
   1   6   1    5.51    0.38
   2  -6   1    1.24    0.25
  -2  -6  -1    1.20    0.19
   2   6   1    1.54    0.28
   2   6   1    1.32    0.27
   3  -6   1   36.36    1.10
   3   6   1   35.90    0.99
   3   6   1   35.40    1.14
   4  -6   1    2.57    0.41
   4   6   1    2.97    0.52
   4  -7  -1    0.57    0.33
   4   7  -1    0.08    0.46
   3  -7  -1    0.09    0.13
   3  -7  -1    0.20    0.35
   3   7  -1    0.07    0.29
   3   7  -1    0.60    0.19
   2  -7  -1    2.58    0.39
  -2  -7   1    2.51    0.36
   2  -7  -1    2.99    0.23
   2   7  -1    2.77    0.30
  -2   7   1    2.65    0.26
  -1  -7   1    1.72    0.26
   1  -7  -1    1.51    0.18
   1  -7  -1    1.25    0.25
   1   7  -1    1.46    0.30
  -1   7   1    1.63    0.26
   0  -7  -1   57.33    1.35
   0  -7  -1   57.81    1.28
   0  -7   1   58.29    1.39
   0   7  -1   57.76    1.37
   0   7   1   57.20    1.33
   1  -7   1   17.74    0.67
  -1  -7  -1   16.77    0.65
  -1   7  -1   17.15    0.47
   1   7   1   16.95    0.63
  -1   7  -1   17.08    0.59
   1   7   1   17.33    0.68
  -2  -7  -1   16.16    0.54
   2  -7   1   15.58    0.68
   2   7   1   16.05    0.96
  -2   7  -1   16.71    0.61
   2   7   1   17.53    0.62
   3  -7   1   -0.25    0.24
   3   7   1    0.22    0.30
   3   7   1    0.62    0.28
   4  -7   1    0.08    0.32
   4   7   1   -0.34    0.44
   3   8  -1    0.94    0.35
   2  -8  -1    7.53    0.32
  -2   8   1    7.43    0.39
  -1  -8   1   76.71    1.75
   1  -8  -1   78.05    1.60
   1  -8  -1   74.11    1.77
   1   8  -1   74.15    1.78
  -1   8   1   73.09    1.64
   0  -8  -1   10.11    0.54
   0  -8   1    9.44    0.54
   0   8  -1    9.17    0.53
   0   8   1    9.75    0.51
  -1  -8  -1    0.05    0.23
   1  -8   1    0.15    0.20
   1   8   1    0.23    0.23
   1   8   1   -0.03    0.24
   2  -8   1    8.49    0.55
  -2  -8  -1    8.36    0.44
  -2   8  -1    8.02    0.49
   2   8   1    9.21    0.56
   3  -8   1   26.11    1.19
   3   8   1   26.64    1.08
   3  -9  -1   -0.06    0.26
   3   9  -1   -0.43    0.32
   2  -9  -1    0.72    0.16
  -2  -9   1    0.32    0.24
  -2   9   1    0.52    0.25
  -1  -9   1    0.09    0.24
   1  -9  -1    0.29    0.22
  -1   9   1    0.40    0.26
   1   9  -1    0.79    0.28
   0  -9  -1   37.69    1.08
   0  -9   1   38.01    1.10
   0   9  -1   38.06    1.08
   0   9   1   38.38    1.06
  -1  -9  -1  103.23    2.22
  -1   9  -1  100.05    2.21
   1   9   1   99.18    2.28
   2  -9   1   14.39    0.73
  -2  -9  -1   13.57    0.71
   2   9   1   14.61    0.63
   2   9   1   14.40    0.73
  -2   9  -1   13.49    0.59
   3  -9   1   -0.22    0.27
   3   9   1    0.51    0.29
   3   9   1   -0.04    0.34
   3 -10  -1    0.40    0.39
  -3 -10   1    1.18    0.31
   3  10  -1    0.62    0.44
  -2 -10   1   14.80    0.67
   2 -10  -1   15.71    0.80
  -2  10   1   15.81    0.63
   2  10  -1   15.32    0.83
   1 -10  -1    4.76    0.49
  -1 -10   1    5.56    0.52
  -1  10   1    6.07    0.43
   0 -10  -1   32.39    1.01
   0  10  -1   31.83    1.00
   0  10   1   31.18    0.96
  -1 -10  -1    3.17    0.45
  -1  10  -1    3.18    0.40
   2 -10   1    2.13    0.38
  -2 -10  -1    2.06    0.31
  -2  10  -1    2.22    0.33
   2  10   1    2.65    0.47
   3 -10   1   -0.14    0.33
   3  10   1    0.83    0.45
   2 -11  -1    3.13    0.42
  -2  11   1    3.92    0.42
   2  11  -1    4.37    0.54
   1 -11  -1    1.12    0.38
  -1 -11   1    0.95    0.40
  -1  11   1    1.14    0.26
   1  11  -1    0.86    0.39
   0 -11  -1    0.35    0.27
   0 -11   1    0.00    0.27
   0  11   1    1.16    0.46
   1 -11   1    6.35    0.61
   1  11   1    6.23    0.58
  -2 -11  -1    0.58    0.43
   2 -11   1    1.25    0.33
   2  11   1    0.98    0.41
  -2 -12   1    0.13    0.32
   2  12  -1    0.56    0.48
  -2  12   1   -0.09    0.37
   1 -12  -1   -0.22    0.30
   1  12  -1    0.51    0.42
   0 -12  -1    4.58    0.61
   0 -12   1    4.75    0.66
   0  12   1    4.18    0.51
   1 -12   1    1.27    0.35
  -1 -12  -1    0.92    0.35
  -1  12  -1    1.76    0.37
   1  12   1    1.05    0.36
   2  12   1   -0.31    0.43
  -2  12  -1    0.39    0.35
   1 -13  -1    1.82    0.58
  -1 -13   1    2.50    0.44
   1  13  -1    3.61    0.57
  -1  13   1    2.39    0.42
   0 -13  -1    1.98    0.45
   0 -13   1    1.98    0.46
   0  13   1    1.87    0.41
   0  13  -1    1.63    0.47
  -1 -13  -1    4.62    0.55
   1 -13   1    2.63    0.76
   4   0  -2    2.80    0.57
   4   0  -2    2.72    0.39
   3   0  -2    0.03    0.16
   2   0  -2    0.11    0.11
   0   0   2  192.12    3.58
   0   0   2  192.66    3.57
   0   0  -2  189.69    3.59
   0   0  -2  190.11    3.58
   0   0   2  187.10    3.58
   0   0  -2  199.01    3.58
   1   0   2    4.30    0.16
   1   0   2    4.35    0.17
  -1   0  -2    4.29    0.14
   1   0   2    3.82    0.26
  -1   0  -2    4.08    0.16
   2   0   2 1000.00   18.48
   3   0   2   20.49    0.55
   3   0   2   19.49    0.87
   4   0   2    3.20    0.51
   4   0   2    3.45    0.31
   4  -1  -2    0.39    0.18
   4  -1  -2    0.78    0.24
   4  -1  -2    0.08    0.21
   4   1  -2    0.20    0.23
   4   1  -2    0.08    0.23
   3   1  -2    0.18    0.18
   3   1  -2    0.03    0.21
   2  -1  -2    0.24    0.10
   2   1  -2    0.30    0.14
   1  -1  -2    0.78    0.09
   1  -1  -2    0.81    0.13
  -1  -1   2    0.83    0.12
   1  -1  -2    0.64    0.09
   1   1  -2    0.90    0.13
   1   1  -2    0.83    0.13
   0  -1   2    4.13    0.18
   0  -1  -2    4.39    0.21
   0  -1   2    3.67    0.16
   0  -1   2    4.08    0.17
   0   1   2    4.38    0.15
   0   1   2    3.86    0.21
   0   1  -2    3.92    0.13
  -1  -1  -2  126.80    2.48
   1  -1   2  127.91    2.37
  -1  -1  -2  124.71    2.43
   1  -1   2  123.43    2.43
   1  -1   2  126.85    2.47
   1   1   2  124.29    2.49
  -1   1  -2  129.11    2.42
   1   1   2  132.34    2.43
   2  -1   2    7.37    0.41
   2  -1   2    8.00    0.30
   2  -1   2    8.59    0.27
   2   1   2    7.71    0.41
   3  -1   2    2.16    0.34
   3  -1   2    2.01    0.27
   3   1   2    1.85    0.36
   3   1   2    1.97    0.20
   4  -1   2    3.75    0.53
   4  -1   2    2.99    0.34
   4   1   2    4.02    0.51
   4  -2  -2    1.07    0.22
   4  -2  -2    1.01    0.26
   4  -2  -2    1.40    0.24
   4   2  -2    1.25    0.32
   4   2  -2    0.58    0.25
   3  -2  -2    0.24    0.14
   3   2  -2    0.04    0.17
   2  -2  -2   23.81    0.58
   2   2  -2   23.36    0.66
   2   2  -2   23.83    0.53
   1  -2  -2    1.78    0.22
   1  -2  -2    1.56    0.13
  -1  -2   2    1.52    0.19
  -1  -2   2    1.63    0.20
  -1   2   2    1.77    0.14
   1   2  -2    1.77    0.19
   1   2  -2    1.66    0.21
   0  -2   2  109.73    2.16
   0  -2  -2  119.43    2.20
   0  -2   2  112.99    2.16
   0  -2  -2  109.14    2.13
   0   2   2  113.81    2.13
   0   2  -2  106.40    2.16
   0   2   2  107.82    2.18
  -1  -2  -2   10.61    0.33
   1  -2   2   10.71    0.36
  -1  -2  -2   10.95    0.37
   1  -2   2   11.00    0.34
   1   2   2   10.65    0.39
   1   2   2   10.86    0.34
  -1   2  -2   10.64    0.33
   2  -2   2  243.43    4.43
   2  -2   2  233.35    4.55
   2   2   2  236.22    4.62
   3  -2   2   14.19    0.67
   3  -2   2   15.17    0.54
   3   2   2   16.25    0.70
   4  -2   2    0.56    0.28
   4  -2   2    0.49    0.29
   4   2   2    0.58    0.31
   4  -3  -2    1.16    0.23
   4  -3  -2    0.88    0.22
   4   3  -2    1.20    0.34
   4   3  -2    1.24    0.45
   3  -3  -2    3.23    0.26
   3  -3  -2    3.31    0.40
   3   3  -2    2.83    0.40
   3   3  -2    3.20    0.29
   2  -3  -2    9.21    0.29
   2  -3  -2    8.70    0.30
   2   3  -2    8.40    0.42
  -1  -3   2    8.63    0.33
   1  -3  -2    8.75    0.22
   1  -3  -2    8.56    0.27
  -1   3   2    8.63    0.27
  -1   3   2    8.43    0.22
   1   3  -2    8.83    0.34
   0  -3  -2    0.21    0.16
   0  -3   2    0.27    0.12
   0  -3   2    0.21    0.12
   0  -3  -2    0.14    0.08
   0  -3  -2    0.09    0.09
   0   3   2    0.10    0.09
   0   3  -2    0.20    0.11
   0   3   2   -0.02    0.13
   0   3   2    0.23    0.09
   0   3  -2   -0.03    0.11
  -1  -3  -2   55.70    1.07
   1  -3   2   54.20    1.19
  -1  -3  -2   56.44    1.22
  -1   3  -2   54.26    1.19
   1   3   2   54.72    1.21
   2  -3   2    2.07    0.25
   2   3   2    1.67    0.26
   3  -3   2    3.78    0.39
   3  -3   2    3.57    0.20
   3  -3   2    3.57    0.21
   3   3   2    3.29    0.39
   4  -3   2    4.65    0.43
   4   3   2    4.07    0.54
   4  -4  -2    0.51    0.23
   4  -4  -2   -0.12    0.19
   4   4  -2   -0.22    0.30
   3  -4  -2    0.49    0.18
   3  -4  -2    0.51    0.14
   3   4  -2    0.77    0.27
   3   4  -2    0.77    0.17
   2  -4  -2   38.61    0.80
  -2  -4   2   36.58    0.90
   2  -4  -2   38.06    0.83
   2  -4  -2   35.33    0.96
   2   4  -2   36.39    0.99
  -1  -4   2  301.41    5.31
   1  -4  -2  292.22    5.29
   1  -4  -2  268.98    5.42
   1  -4  -2  279.60    5.32
  -1  -4   2  286.34    5.41
   1   4  -2  279.04    5.44
  -1   4   2  279.40    5.29
  -1   4   2  283.61    5.32
   0  -4   2   33.51    0.82
   0  -4  -2   33.41    0.76
   0  -4  -2   34.39    0.78
   0   4  -2   34.38    0.82
   0   4   2   33.14    0.83
   0   4   2   35.09    0.77
  -1  -4  -2    0.50    0.10
  -1  -4  -2    0.22    0.12
   1  -4   2    0.41    0.14
   1   4   2    0.41    0.08
   1   4   2    0.24    0.18
   1   4   2    0.31    0.14
  -1   4  -2    0.09    0.12
   2  -4   2    8.72    0.41
   2   4   2    6.26    0.50
   2   4   2    7.30    0.46
   3  -4   2    6.52    0.45
   3   4   2    7.20    0.49
   3   4   2    6.50    0.55
   4  -4   2    0.34    0.26
   4   4   2    0.06    0.31
   4   4   2    0.89    0.33
   4  -5  -2    0.30    0.26
   4  -5  -2   -0.11    0.18
   4   5  -2    0.31    0.63
   3  -5  -2   -0.15    0.17
   3  -5  -2    0.00    0.12
   3   5  -2   -0.23    0.22
  -2  -5   2   19.17    0.61
   2  -5  -2   20.11    0.51
   2  -5  -2   20.09    0.69
   2  -5  -2   19.01    0.51
   2   5  -2   19.90    0.72
   1  -5  -2    4.55    0.23
   1  -5  -2    4.65    0.30
   1  -5  -2    4.49    0.23
  -1  -5   2    4.87    0.27
  -1  -5   2    4.39    0.33
   1   5  -2    4.11    0.33
  -1   5   2    4.43    0.21
   0  -5   2   72.13    1.55
   0  -5  -2   71.22    1.48
   0  -5  -2   69.84    1.50
   0   5  -2   72.62    1.44
   0   5   2   70.28    1.49
   0   5   2   70.90    1.57
   0   5  -2   70.81    1.54
   1  -5   2    8.42    0.42
  -1  -5  -2    8.75    0.32
  -1   5  -2    8.44    0.22
   1   5   2    8.31    0.30
   1   5   2    7.86    0.40
  -1   5  -2    8.10    0.36
   1   5   2    8.34    0.42
  -2  -5  -2    8.00    0.28
   2   5   2    8.24    0.27
   2   5   2    7.75    0.48
   2   5   2    8.41    0.50
   3  -5   2    0.17    0.20
   3   5   2    0.55    0.26
   3   5   2    0.06    0.30
   4  -5   2    3.66    0.48
   4   5   2    3.32    0.54
   4   5   2    4.85    0.66
   3  -6  -2    0.28    0.21
   3  -6  -2    0.46    0.14
   3   6  -2    0.20    0.26
  -2  -6   2    1.11    0.24
  -2  -6   2    1.52    0.19
   2  -6  -2    1.36    0.18
   2  -6  -2    1.08    0.23
   2  -6  -2    1.74    0.21
   2   6  -2    1.15    0.27
   1  -6  -2   96.85    1.93
  -1  -6   2   93.09    2.02
   1  -6  -2   95.11    2.06
  -1  -6   2  101.80    2.05
   1  -6  -2   93.55    1.92
   1   6  -2   94.75    2.07
  -1   6   2   92.49    1.91
   0  -6   2    0.95    0.19
   0  -6  -2    0.83    0.17
   0  -6  -2    0.80    0.16
   0   6   2    1.11    0.18
   0   6  -2    1.12    0.21
   0   6   2    0.88    0.20
   1  -6   2   30.42    0.90
  -1  -6  -2   30.96    0.77
  -1   6  -2   31.96    0.66
   1   6   2   30.39    0.87
  -1   6  -2   30.99    0.84
   1   6   2   31.15    0.89
  -2  -6  -2   -0.10    0.14
   2  -6   2    0.16    0.19
   2   6   2    0.33    0.13
   2   6   2   -0.06    0.24
   2   6   2    0.05    0.22
   3  -6   2    5.30    0.48
   3   6   2    4.69    0.61
   4  -6   2   -0.19    0.27
   4   6   2   -0.08    0.40
   4   6   2    0.12    0.32
   4  -7  -2   -0.07    0.32
   4   7  -2   -0.21    0.39
   3  -7  -2    9.49    0.61
   3  -7  -2    9.99    0.46
   3   7  -2    7.92    0.63
  -2  -7   2    4.13    0.44
   2  -7  -2    4.71    0.29
   2  -7  -2    4.16    0.42
  -2  -7   2    3.54    0.37
   2   7  -2    4.47    0.47
   1  -7  -2   11.66    0.54
  -1  -7   2   10.78    0.55
   1  -7  -2   11.37    0.41
   1   7  -2   10.99    0.55
  -1   7   2   11.12    0.41
   0  -7  -2   78.39    1.65
   0  -7  -2   75.38    1.69
   0   7  -2   75.16    1.74
   0   7   2   76.39    1.77
   0   7   2   77.17    1.68
  -1  -7  -2    1.52    0.22
   1  -7   2    1.96    0.28
  -1   7  -2    1.58    0.28
  -1   7  -2    1.67    0.19
   1   7   2    1.99    0.31
   1   7   2    1.72    0.31
  -2  -7  -2    4.70    0.32
   2  -7   2    4.92    0.46
   2   7   2    4.25    0.47
  -2   7  -2    4.88    0.41
   2   7   2    4.57    0.44
   3  -7   2    5.07    0.50
   3   7   2    4.39    0.49
   4  -7   2   12.67    0.83
   4   7   2   14.20    1.44
   3  -8  -2    2.04    0.27
   3  -8  -2    1.90    0.40
   3   8  -2    3.21    0.48
  -2  -8   2    2.77    0.41
   2  -8  -2    2.03    0.26
  -2   8   2    2.71    0.28
   1  -8  -2    0.76    0.22
  -1  -8   2    0.51    0.25
   1  -8  -2    0.61    0.17
   1   8  -2   -0.01    0.22
  -1   8   2    0.50    0.19
   0  -8  -2    0.34    0.18
   0  -8  -2    0.34    0.21
   0  -8   2    0.73    0.26
   0   8  -2    0.54    0.25
   0   8   2    0.64    0.25
   1  -8   2   42.39    1.20
  -1  -8  -2   42.12    1.07
   1   8   2   41.64    1.17
   1   8   2   41.36    1.14
  -1   8  -2   41.37    1.12
   2  -8   2   43.48    1.26
  -2  -8  -2   43.06    1.05
  -2   8  -2   43.67    1.15
   2   8   2   44.09    1.20
   3   8   2    6.32    0.67
   3   8   2    6.21    0.51
  -3  -9   2   10.70    0.54
   3  -9  -2   10.47    0.74
   3   9  -2   11.16    0.78
  -2  -9   2    0.37    0.23
   2  -9  -2    0.34    0.22
  -2   9   2   -0.06    0.20
   1  -9  -2   32.28    0.99
  -1  -9   2   31.80    0.98
   1  -9  -2   28.78    1.06
   1   9  -2   31.49    1.00
  -1   9   2   31.82    0.86
   0  -9   2   25.19    1.09
   0  -9  -2   24.86    0.82
   0   9   2   25.33    0.81
   0   9  -2   24.93    0.85
  -1  -9  -2   24.69    0.81
   1   9   2   24.63    0.84
  -1   9  -2   24.38    0.81
   1   9   2   24.92    0.87
   2  -9   2    1.68    0.34
  -2  -9  -2    1.66    0.27
   2   9   2    2.66    0.41
   2   9   2    1.94    0.38
  -2   9  -2    2.53    0.38
   3  -9   2    1.25    0.34
   3   9   2    2.30    0.47
   3   9   2    3.49    0.48
  -3 -10   2    1.06    0.27
   3 -10  -2    0.61    0.35
   3  10  -2   -0.08    0.41
   2 -10  -2    0.40    0.27
  -2 -10   2    0.12    0.24
   2 -10  -2    0.00    0.21
  -2  10   2    0.62    0.27
   2  10  -2    0.76    0.33
   1 -10  -2    0.36    0.25
  -1 -10   2   -0.09    0.20
   1 -10  -2   -0.22    0.17
   1  10  -2    0.23    0.27
  -1  10   2    0.45    0.25
   0 -10  -2    0.03    0.22
   0  10  -2    0.28    0.24
   0  10   2   -0.03    0.21
  -1 -10  -2    5.79    0.49
  -1  10  -2    5.87    0.47
   2 -10   2   18.44    0.90
  -2 -10  -2   18.99    0.73
  -2  10  -2   19.15    0.77
   2  10   2   19.62    0.90
   2  10   2   20.40    0.77
   3 -10   2    1.71    0.43
   3  10   2    2.19    0.37
   3  10   2    0.78    0.75
   2 -11  -2    0.52    0.30
  -2 -11   2    0.73    0.29
   2  11  -2    0.80    0.37
  -2  11   2    1.21    0.30
   1 -11  -2    8.92    1.00
  -1 -11   2    7.47    0.62
  -1  11   2    7.51    0.46
   0 -11  -2    2.28    0.40
   0 -11   2    1.82    0.37
   0  11   2    3.01    0.40
   0  11  -2    3.05    0.46
  -1 -11  -2   24.48    0.90
   1 -11   2   26.56    1.04
   1  11   2   25.34    0.97
  -2 -11  -2    5.15    0.50
   2 -11   2    4.92    0.65
   2  11   2    5.38    0.71
  -2  11  -2    6.20    0.57
  -2 -12   2    1.52    0.39
  -1 -12   2    7.31    0.69
   1 -12  -2    8.17    0.75
   1  12  -2    7.09    0.70
  -1  12   2    8.14    0.52
   0 -12  -2    2.66    0.49
   0 -12   2    3.31    0.45
   0  12   2    3.12    0.43
   0  12  -2    3.34    0.48
  -1 -12  -2    0.84    0.33
   1 -12   2    1.30    0.36
   1  12   2    1.30    0.39
   0 -13  -2   -0.28    0.33
   0 -13   2    0.35    0.41
   0  13  -2    0.20    0.36
   0  13   2    0.55    0.37
   4   0  -3    0.13    0.22
   4   0  -3    0.04    0.24
   4   0  -3    0.12    0.19
   3   0  -3   -0.12    0.16
   2   0  -3    0.02    0.11
   2   0  -3   -0.09    0.11
   1   0  -3    0.09    0.08
   1   0  -3    0.00    0.11
  -1   0   3    0.06    0.08
  -1   0   3   -0.03    0.08
   1   0  -3    0.01    0.07
   0   0  -3    0.08    0.10
   0   0   3    0.02    0.10
   0   0  -3    0.21    0.11
   0   0  -3    0.22    0.08
   0   0   3    0.23    0.10
   0   0  -3    0.11    0.09
   0   0   3    0.41    0.13
   0   0   3    0.21    0.07
   1   0   3    0.10    0.08
   1   0   3    0.19    0.14
   1   0   3    0.11    0.08
  -1   0  -3   -0.02    0.07
  -1   0  -3    0.04    0.07
   2   0   3    0.12    0.20
   3   0   3    0.04    0.13
   3   0   3    0.29    0.31
   4   0   3    0.06    0.31
   4  -1  -3    8.45    0.51
   4  -1  -3    8.49    0.44
   4   1  -3    9.17    0.53
   4   1  -3    8.16    0.46
   3  -1  -3   16.15    0.55
   3  -1  -3   15.94    0.52
   3   1  -3   15.58    0.49
   3   1  -3   15.65    0.57
   2  -1  -3    0.68    0.12
   2  -1  -3    0.91    0.20
   2  -1  -3    0.53    0.12
   2   1  -3    0.65    0.15
   2   1  -3    0.73    0.11
   1  -1  -3    8.92    0.31
   1  -1  -3    7.95    0.27
  -1  -1   3    8.37    0.21
  -1  -1   3    8.88    0.29
  -1   1   3    8.07    0.30
   1   1  -3    8.67    0.22
   1   1  -3    7.88    0.28
  -1   1   3    8.70    0.28
   1   1  -3    8.57    0.33
   0  -1  -3  314.91    5.81
   0  -1   3  301.91    5.78
   0  -1   3  326.30    5.75
   0  -1  -3  286.52    5.76
   0  -1   3  324.52    5.78
   0  -1   3  305.06    5.78
   0   1  -3  308.77    5.74
   0   1  -3  307.56    5.77
   0   1   3  298.33    5.80
   0   1  -3  315.50    5.78
   0   1  -3  303.20    5.78
   0   1   3  316.03    5.76
   1  -1   3   53.48    1.20
   1  -1   3   54.63    1.11
   1  -1   3   56.15    1.06
  -1  -1  -3   52.68    1.11
   1   1   3   53.20    1.20
  -1   1  -3   53.73    1.06
   1   1   3   54.17    1.11
  -1   1  -3   55.96    1.10
   2  -1   3    3.59    0.35
   2  -1   3    3.80    0.24
   2  -1   3    3.65    0.21
   2   1   3    3.49    0.37
   3  -1   3   98.94    2.05
   3  -1   3  100.34    2.29
   3   1   3  104.14    2.28
   4  -1   3    3.16    0.34
   4  -1   3    4.43    0.60
   4   1   3    3.77    0.58
   4  -2  -3    2.55    0.32
   4  -2  -3    2.53    0.38
   4   2  -3    2.59    0.36
   4   2  -3    2.05    0.28
   3  -2  -3    5.60    0.31
   3  -2  -3    6.91    0.37
   3   2  -3    5.81    0.53
   3   2  -3    5.76    0.30
   2  -2  -3    4.64    0.19
   2  -2  -3    4.71    0.25
   2   2  -3    4.60    0.31
  -1  -2   3    1.52    0.20
   1  -2  -3    1.87    0.15
   1  -2  -3    2.00    0.24
  -1  -2   3    1.47    0.20
  -1   2   3    1.52    0.20
   1   2  -3    1.34    0.19
   1   2  -3    1.59    0.19
  -1   2   3    1.76    0.16
   0  -2   3    3.77    0.25
   0  -2   3    3.67    0.23
   0   2   3    3.60    0.20
   0   2  -3    3.42    0.22
   0   2  -3    4.05    0.25
   0   2   3    3.23    0.29
  -1  -2  -3   18.01    0.48
   1  -2   3   19.17    0.38
   1  -2   3   18.39    0.49
  -1   2  -3   18.16    0.50
   1   2   3   18.37    0.56
  -1   2  -3   18.58    0.38
   2  -2   3   98.42    2.03
   2  -2   3  103.43    1.92
   2   2   3  100.04    2.16
   3  -2   3    5.14    0.29
   3  -2   3    5.16    0.35
   3  -2   3    4.87    0.48
   3   2   3    5.04    0.56
   4  -2   3    1.63    0.39
   4  -2   3    1.04    0.26
   4   2   3    1.67    0.39
   4  -3  -3   12.78    0.62
   4  -3  -3   10.22    0.47
   4  -3  -3   10.66    0.47
   4   3  -3   11.47    0.66
   3  -3  -3    0.10    0.14
   3  -3  -3    0.23    0.21
   3   3  -3    0.20    0.27
   2  -3  -3    7.92    0.31
   2   3  -3    8.19    0.40
   1  -3  -3   96.43    1.91
  -1  -3   3   96.64    1.97
  -1   3   3   96.62    1.99
   1   3  -3   97.23    1.98
   0  -3   3  148.82    2.89
   0  -3  -3  143.05    2.85
   0   3   3  149.52    2.92
   0   3  -3  150.84    2.89
  -1  -3  -3   26.08    0.53
   1  -3   3   25.60    0.66
  -1  -3  -3   25.10    0.64
   1   3   3   24.72    0.71
  -1   3  -3   24.53    0.66
   2  -3   3    1.29    0.19
   2   3   3    1.51    0.28
   3  -3   3    8.49    0.46
   3   3   3    7.82    0.59
   4  -3   3    4.89    0.47
   4  -3   3    6.84    1.05
   4   3   3    5.80    0.62
   4  -4  -3    0.39    0.21
   4  -4  -3    0.14    0.19
   4  -4  -3   -0.11    0.22
   4   4  -3    0.27    0.33
   3  -4  -3    3.62    0.27
   3  -4  -3    2.65    0.37
   3  -4  -3    3.21    0.26
   3   4  -3    3.33    0.42
  -2  -4   3   11.83    0.48
   2  -4  -3   11.76    0.40
   2   4  -3   11.99    0.53
  -1  -4   3   49.97    1.15
  -1  -4   3   52.37    1.02
   1  -4  -3   49.32    1.07
   1   4  -3   49.77    1.16
  -1   4   3   50.07    0.99
   0  -4  -3    7.11    0.29
   0  -4  -3    7.67    0.30
   0  -4   3    7.51    0.36
   0   4   3    7.39    0.38
   0   4   3    8.04    0.29
  -1  -4  -3   20.05    0.49
   1  -4   3   19.69    0.59
  -1  -4  -3   18.69    0.55
   1   4   3   19.02    0.63
  -1   4  -3   19.60    0.58
   2  -4   3    6.11    0.40
   2   4   3    6.05    0.48
   3  -4   3   -0.09    0.19
   3   4   3    0.00    0.29
   4   4   3   -0.06    0.33
   4   4   3    0.37    0.35
   4  -5  -3    2.87    0.56
   4  -5  -3    2.81    0.29
   3  -5  -3    1.90    0.27
   3  -5  -3    2.25    0.25
   3   5  -3    2.31    0.34
   2  -5  -3    1.45    0.24
  -2  -5   3    1.24    0.22
   2  -5  -3    1.18    0.16
   2   5  -3    1.60    0.31
  -1  -5   3   34.97    0.76
   1  -5  -3   33.46    0.79
  -1  -5   3   32.47    0.88
   1  -5  -3   34.23    0.72
  -1   5   3   33.18    0.72
   1   5  -3   32.77    0.89
   0  -5  -3  324.01    6.08
   0  -5   3  326.70    6.14
   0  -5  -3  308.92    6.05
   0   5   3  331.28    6.06
   0   5   3  325.79    6.16
   0   5  -3  304.26    6.11
  -1  -5  -3   10.38    0.42
  -1  -5  -3   11.50    0.36
   1  -5   3   10.92    0.47
   1   5   3   10.30    0.51
   1   5   3   10.70    0.45
  -1   5  -3   10.76    0.44
   2  -5   3    4.58    0.50
   2   5   3    4.88    0.40
   2   5   3    4.98    0.50
   3  -5   3    0.12    0.20
   3   5   3    0.05    0.29
   4  -5   3    4.41    0.53
   4  -5   3    5.59    0.64
   4   5   3    4.00    0.59
   4  -6  -3    1.07    0.33
   4   6  -3    1.53    0.41
   3  -6  -3    0.14    0.19
   3  -6  -3   -0.01    0.14
   3   6  -3   -0.23    0.25
  -2  -6   3    8.93    0.51
   2  -6  -3    8.59    0.36
   2  -6  -3    8.39    0.49
   2  -6  -3    8.49    0.30
   2   6  -3    8.75    0.55
  -1  -6   3   21.59    0.59
  -1  -6   3   21.26    0.70
   1  -6  -3   19.93    0.57
   1  -6  -3   20.85    0.53
   1  -6  -3   20.28    0.68
  -1   6   3   20.58    0.53
   0  -6   3   12.60    0.54
   0  -6  -3   12.47    0.46
   0  -6  -3   12.71    0.45
   0   6   3   12.87    0.46
   0   6  -3   12.48    0.51
   0   6   3   12.58    0.55
  -1  -6  -3   23.60    0.61
   1  -6   3   21.60    0.86
  -1  -6  -3   21.98    0.68
  -1   6  -3   21.88    0.71
   1   6   3   22.06    0.76
   1   6   3   23.46    0.74
  -1   6  -3   23.34    0.49
   2  -6   3    8.45    0.51
   2   6   3    8.27    0.53
   2   6   3    7.59    0.77
   3  -6   3    5.01    0.47
   3   6   3    5.61    0.53
   4   6   3    2.17    0.41
   4   6   3    1.78    0.50
   4  -7  -3   -0.48    0.30
   3  -7  -3    0.01    0.16
   3  -7  -3    0.06    0.22
   3   7  -3   -0.11    0.28
   2  -7  -3    1.61    0.25
  -2  -7   3    1.55    0.29
   2  -7  -3    1.62    0.19
   2   7  -3    1.58    0.33
   1  -7  -3    1.91    0.26
  -1  -7   3    1.82    0.30
   1  -7  -3    2.12    0.25
   1   7  -3    2.36    0.33
  -1   7   3    2.08    0.24
   0  -7   3   20.13    0.73
   0  -7  -3   19.03    0.62
   0  -7  -3   19.82    0.65
   0   7  -3   18.96    0.69
   0   7   3   19.06    0.73
   0   7   3   18.38    0.61
  -1  -7  -3    0.96    0.20
   1  -7   3    1.02    0.26
  -1  -7  -3    1.08    0.20
  -1   7  -3    1.08    0.13
   1   7   3    0.60    0.27
  -1   7  -3    1.08    0.28
  -2  -7  -3   17.95    0.51
   2  -7   3   18.68    0.73
  -2   7  -3   17.96    0.65
   2   7   3   16.83    0.72
   2   7   3   16.96    0.73
   3  -7   3    8.45    0.58
   3   7   3    7.14    0.53
   3   7   3    8.43    0.75
   3  -8  -3    2.49    0.32
   3  -8  -3    1.91    0.36
   3   8  -3    2.96    0.50
   2  -8  -3   36.35    0.90
  -2  -8   3   35.69    1.03
   1  -8  -3    0.22    0.19
   1  -8  -3    0.06    0.17
  -1  -8   3    0.06    0.24
   1   8  -3   -0.29    0.22
  -1   8   3    0.18    0.16
   0  -8   3   39.87    1.15
   0  -8  -3   41.71    1.04
   0  -8  -3   41.05    1.09
   0   8   3   41.45    1.07
   0   8   3   40.23    1.16
   0   8  -3   41.76    1.14
  -1  -8  -3   14.56    0.56
   1  -8   3   14.84    0.68
   1   8   3   14.61    0.63
  -1   8  -3   14.66    0.61
  -1   8  -3   14.57    0.43
  -2  -8  -3    0.75    0.20
   2  -8   3    1.15    0.27
   2   8   3    1.37    0.31
  -2   8  -3    1.07    0.24
   3   8   3    0.48    0.29
   3   8   3   -0.60    0.30
   3  -9  -3    4.79    0.62
  -3  -9   3    6.06    0.49
   3   9  -3    6.12    0.68
  -2  -9   3    3.02    0.38
  -2   9   3    3.47    0.32
   1  -9  -3    3.28    0.40
   1  -9  -3    3.36    0.33
  -1  -9   3    3.44    0.51
  -1   9   3    3.29    0.30
   0  -9  -3    3.93    0.39
   0  -9   3    3.62    0.47
   0  -9  -3    4.04    0.33
   0   9  -3    4.22    0.42
   0   9   3    4.01    0.40
  -1  -9  -3   -0.03    0.22
   1   9   3    0.13    0.22
   1   9   3    0.20    0.23
  -1   9  -3   -0.04    0.21
   2  -9   3    8.25    0.62
  -2  -9  -3    7.57    0.47
   2   9   3    8.59    0.65
   2   9   3    9.33    0.58
  -2   9  -3    7.81    0.51
   3  -9   3   10.06    0.77
   3   9   3   12.60    0.90
   3   9   3   12.57    0.69
   3 -10  -3   -0.17    0.31
   3  10  -3   -0.06    0.41
   2 -10  -3   13.72    0.55
   2 -10  -3   13.86    0.75
  -2  10   3   13.11    0.53
   2  10  -3   13.24    0.76
   1 -10  -3    0.57    0.24
   1 -10  -3    0.46    0.19
   1  10  -3    0.54    0.29
   0 -10  -3   20.64    0.68
   0 -10   3   17.65    1.17
   0 -10  -3   20.21    0.76
   0  10   3   18.42    0.70
  -1 -10  -3    9.13    0.54
   1  10   3    9.60    0.60
   2 -10   3   26.02    1.04
   2  10   3   25.78    1.05
   2  10   3   26.99    0.95
   3  10   3    5.61    1.21
   3  10   3    7.26    0.68
   2 -11  -3    0.70    0.32
   2 -11  -3    0.41    0.21
  -2 -11   3    0.66    0.31
   2  11  -3    0.41    0.37
   1 -11  -3    0.88    0.34
  -1 -11   3    1.28    0.35
   1 -11  -3    1.55    0.23
  -1  11   3    2.10    0.32
   1  11  -3    1.70    0.40
   0 -11  -3    0.07    0.27
   0  11  -3    0.16    0.30
   0  11   3    0.75    0.28
  -1 -11  -3    0.34    0.26
   1 -11   3    0.48    0.30
  -1  11  -3    0.91    0.32
   1  11   3    0.17    0.31
   2 -11   3   -0.40    0.30
   2  11   3    0.76    0.31
   2  11   3   -0.29    0.37
  -2  11  -3    0.43    0.32
   2 -12  -3    0.64    0.53
  -2 -12   3    1.28    0.39
   2  12  -3    1.72    0.62
   1 -12  -3    3.20    0.47
  -1 -12   3    2.69    0.43
  -1  12   3    4.48    0.42
   1  12  -3    4.04    0.52
   0 -12   3    0.44    0.35
   0 -12  -3   -0.06    0.37
   0  12  -3   -0.15    0.33
   0  12   3    0.49    0.29
   1 -12   3    1.72    0.41
  -1 -12  -3    1.67    0.39
  -1  12  -3    2.16    0.42
   1  12   3    1.60    0.38
   0 -13   3    5.71    0.64
   0 -13  -3    5.39    0.57
   0  13   3    5.68    0.64
   0  13  -3    6.75    0.75
   4   0  -4    7.01    0.45
   4   0  -4    9.05    0.43
   4   0  -4    7.14    0.50
   3   0  -4   31.97    0.87
   3   0  -4   30.91    0.82
   2   0  -4  141.08    2.79
   2   0  -4  142.11    2.71
   2   0  -4  136.74    2.71
  -1   0   4    6.16    0.22
   1   0  -4    5.59    0.24
   1   0  -4    6.18    0.26
  -1   0   4    5.63    0.24
   1   0  -4    5.93    0.27
   0   0  -4    4.72    0.24
   0   0   4    4.24    0.21
   0   0  -4    4.55    0.20
   0   0   4    4.80    0.20
   0   0   4    4.62    0.27
   1   0   4  189.04    3.44
   1   0   4  181.74    3.43
  -1   0  -4  177.90    3.44
   1   0   4  175.95    3.57
  -1   0  -4  184.38    3.43
   2   0   4   14.40    0.38
   2   0   4   13.87    0.60
   3   0   4    2.84    0.38
   4   0   4   17.25    0.88
   4  -1  -4    4.50    0.37
   4  -1  -4    4.06    0.42
   4   1  -4    4.53    0.42
   4   1  -4    3.17    0.36
   3  -1  -4    3.07    0.28
   3  -1  -4    3.72    0.33
   3   1  -4    4.17    0.29
   3   1  -4    3.86    0.34
   2  -1  -4   15.91    0.41
   2  -1  -4   15.92    0.49
   2   1  -4   15.48    0.48
   2   1  -4   16.68    0.42
   1  -1  -4   -0.05    0.08
  -1  -1   4    0.05    0.09
   1  -1  -4    0.20    0.15
   1  -1  -4    0.10    0.06
  -1  -1   4    0.08    0.10
   1   1  -4    0.04    0.08
   1   1  -4    0.16    0.10
   1   1  -4    0.04    0.08
  -1   1   4   -0.13    0.10
  -1   1   4    0.00    0.06
   0  -1   4    0.39    0.13
   0  -1   4    0.49    0.13
   0  -1   4    0.38    0.08
   0  -1  -4    0.42    0.16
   0  -1  -4    0.40    0.09
   0  -1   4    0.20    0.11
   0   1   4    0.46    0.11
   0   1  -4    0.44    0.13
   0   1  -4    0.31    0.11
   0   1  -4    0.28    0.11
   0   1   4    0.37    0.16
   0   1  -4    0.30    0.08
  -1  -1  -4    0.25    0.08
   1  -1   4    0.22    0.07
   1  -1   4    0.09    0.10
  -1  -1  -4    0.23    0.09
   1  -1   4    0.27    0.16
  -1   1  -4    0.23    0.07
   1   1   4    0.38    0.18
  -1   1  -4    0.15    0.10
   2  -1   4    7.30    0.28
   2  -1   4    7.14    0.48
   2  -1   4    7.58    0.32
   2   1   4    7.82    0.49
   3  -1   4   15.28    0.71
   3  -1   4   14.03    0.48
   4  -1   4    0.81    0.38
   4   1   4    0.22    0.34
   4  -2  -4    1.08    0.23
   4  -2  -4    1.06    0.24
   4   2  -4    0.93    0.30
   3  -2  -4   33.52    0.79
   3   2  -4   33.36    0.94
   2  -2  -4   16.44    0.49
   2   2  -4   16.01    0.52
  -1  -2   4   18.65    0.55
   1  -2  -4   18.82    0.50
  -1  -2   4   19.18    0.42
  -1   2   4   19.09    0.55
   1   2  -4   19.66    0.53
   0  -2   4   51.79    1.12
   0  -2   4   51.02    1.10
   0   2  -4   51.67    1.05
   0   2  -4   51.00    1.12
   0   2   4   51.21    1.27
   1  -2   4    1.32    0.11
  -1  -2  -4    1.49    0.18
   1  -2   4    1.76    0.22
   1  -2   4    1.04    0.17
  -1   2  -4    1.23    0.11
   1   2   4    1.10    0.21
   2  -2   4    7.40    0.35
   2  -2   4    6.49    0.73
   2  -2   4    7.01    0.23
   2   2   4    7.44    0.52
   3  -2   4    0.82    0.28
   3  -2   4    0.61    0.18
   3   2   4    1.11    0.33
   4  -2   4    5.93    0.45
   4  -3  -4    3.29    0.34
   4  -3  -4    3.48    0.33
   4   3  -4    3.48    0.43
   3  -3  -4    5.12    0.27
   3  -3  -4    4.89    0.25
   3  -3  -4    5.01    0.36
   3   3  -4    5.16    0.44
   2  -3  -4   25.85    0.66
   2   3  -4   25.09    0.74
   1  -3  -4   33.85    0.79
  -1  -3   4   33.86    0.85
   1   3  -4   33.26    0.83
  -1   3   4   34.19    0.87
   0  -3  -4   22.04    0.56
   0  -3   4   22.26    0.61
   0   3  -4   21.40    0.60
   0   3   4   22.40    0.65
  -1  -3  -4    3.46    0.24
   1  -3   4    3.38    0.29
  -1  -3  -4    3.45    0.15
  -1   3  -4    2.92    0.27
   1   3   4    3.80    0.37
   2  -3   4   14.49    0.52
   2   3   4   14.39    0.66
   3  -3   4   22.35    0.85
   3  -3   4   23.27    0.73
   3   3   4   23.75    0.88
   4  -3   4    1.08    0.43
   4   3   4    0.81    0.38
   4  -4  -4    1.61    0.24
   4   4  -4    1.09    0.34
   3  -4  -4   15.84    0.54
   3   4  -4   15.73    0.76
  -2  -4   4    7.40    0.42
   2  -4  -4    7.36    0.34
   2   4  -4    7.47    0.47
   1  -4  -4   25.13    0.64
  -1  -4   4   24.65    0.71
  -1   4   4   25.47    0.74
   1   4  -4   24.92    0.71
   0  -4  -4   67.27    1.43
   0  -4   4   66.52    1.48
   0   4  -4   68.15    1.48
   0   4   4   67.25    1.52
   0   4   4   69.68    1.40
  -1  -4  -4  191.27    3.55
  -1  -4  -4  187.34    3.67
   1  -4   4  186.24    3.70
  -1   4  -4  189.55    3.72
   1   4   4  185.68    3.76
   2  -4   4    5.04    0.40
   2   4   4    5.19    0.54
   3  -4   4    1.14    0.25
   3   4   4    1.16    0.33
   4  -4   4    2.77    0.44
   4   4   4    2.08    0.43
   4   4   4    3.02    0.45
   4  -5  -4    4.73    0.58
   4  -5  -4    4.00    0.38
   4   5  -4    3.95    0.97
   3  -5  -4    0.57    0.20
   3  -5  -4    0.44    0.19
   3   5  -4    0.50    0.25
   2  -5  -4    1.91    0.24
  -2  -5   4    1.64    0.27
   2   5  -4    2.04    0.31
  -1  -5   4    0.71    0.14
  -1  -5   4    0.48    0.19
   1  -5  -4    0.43    0.14
  -1   5   4    0.45    0.10
   1   5  -4    0.61    0.21
  -1   5   4    0.32    0.19
   0  -5  -4   38.12    0.91
   0  -5   4   36.41    0.97
   0  -5  -4   37.57    1.01
   0   5   4   39.61    0.89
   0   5  -4   38.49    0.96
   0   5   4   36.92    1.00
  -1  -5  -4    3.65    0.23
   1  -5   4    3.47    0.39
  -1  -5  -4    3.47    0.31
   1   5   4    3.54    0.43
  -1   5  -4    3.44    0.34
   1   5   4    3.93    0.32
   2  -5   4    3.01    0.42
   3  -5   4    0.41    0.21
   3   5   4    0.06    0.28
   4  -5   4    0.77    0.28
   4  -5   4    0.91    0.37
   4   5   4    0.30    0.52
   4   5   4    0.51    0.39
   4  -6  -4    1.68    0.26
   4  -6  -4    1.85    0.36
   4   6  -4    2.12    0.46
   3  -6  -4    0.62    0.33
   3  -6  -4    1.23    0.25
   3   6  -4    1.63    0.35
  -2  -6   4    1.69    0.29
   2  -6  -4    1.57    0.26
   2  -6  -4    1.92    0.26
   2   6  -4    2.05    0.31
   1  -6  -4    0.42    0.20
  -1  -6   4    0.29    0.26
  -1  -6   4    0.71    0.18
   1  -6  -4    0.35    0.15
  -1   6   4    0.52    0.13
   1   6  -4    0.36    0.24
   0  -6   4    1.02    0.40
   0  -6  -4    1.18    0.19
   0  -6  -4    0.95    0.18
   0   6  -4    0.91    0.25
   0   6   4    1.08    0.20
   0   6   4    0.99    0.27
  -1  -6  -4   84.15    1.81
   1  -6   4   83.05    1.88
  -1  -6  -4   85.84    1.71
  -1   6  -4   77.16    1.98
   1   6   4   80.01    1.98
  -1   6  -4   86.61    1.59
   2  -6   4    3.89    0.44
   2   6   4    3.36    0.41
   2   6   4    4.48    0.52
   3  -6   4    4.28    0.49
   3   6   4    3.79    0.52
   4  -6   4    2.28    0.40
   4   6   4    2.24    0.45
   4   7  -4    7.12    0.77
   3  -7  -4    4.22    0.37
   3  -7  -4    3.52    0.46
   3   7  -4    4.06    0.54
   2  -7  -4    5.16    0.36
  -2  -7   4    5.18    0.45
   2   7  -4    5.82    0.49
   1  -7  -4   40.61    1.01
   1  -7  -4   41.88    1.10
  -1  -7   4   41.06    1.14
   1   7  -4   41.36    1.15
  -1   7   4   40.08    0.92
   0  -7   4    1.81    0.30
   0  -7  -4    2.05    0.25
   0  -7  -4    2.01    0.28
   0   7  -4    2.78    0.38
   0   7   4    2.16    0.29
   0   7   4    1.92    0.32
  -1  -7  -4   29.71    0.78
  -1  -7  -4   28.66    0.85
   1  -7   4   30.00    0.95
  -1   7  -4   29.04    0.89
  -1   7  -4   30.02    0.64
   1   7   4   27.36    0.94
   1   7   4   30.12    0.90
  -2  -7  -4    1.01    0.16
   2  -7   4    1.28    0.26
  -2   7  -4    1.10    0.25
   2   7   4    1.32    0.30
   2   7   4    1.40    0.31
   3   7   4    2.35    0.36
   3   7   4    1.92    0.39
   3  -8  -4    0.77    0.27
   3  -8  -4    0.20    0.21
   3   8  -4    0.27    0.32
   2  -8  -4    7.15    0.41
  -2  -8   4    7.15    0.49
   2   8  -4    6.26    0.52
  -1  -8   4    4.55    0.48
   1  -8  -4    4.09    0.34
   1  -8  -4    3.63    0.39
  -1   8   4    4.56    0.30
   0  -8   4    9.05    0.57
   0  -8  -4    8.94    0.49
   0  -8  -4    8.10    0.44
   0   8   4    8.42    0.46
   0   8   4    8.25    0.55
   0   8  -4    8.71    0.52
   1  -8   4    0.11    0.24
  -1  -8  -4   -0.01    0.15
  -1  -8  -4   -0.18    0.16
  -1   8  -4   -0.07    0.20
   1   8   4    0.24    0.23
   1   8   4    0.10    0.22
   2  -8   4    1.67    0.32
  -2  -8  -4    1.48    0.21
  -2   8  -4    1.67    0.30
   2   8   4    2.07    0.34
   2   8   4    1.60    0.39
   3  -8   4    2.31    0.39
   3   8   4    3.99    0.54
   3   8   4    3.10    0.52
   3  -9  -4    0.70    0.24
   3  -9  -4    0.00    0.28
   3   9  -4   -0.05    0.35
   2  -9  -4    6.52    0.54
  -2  -9   4    6.92    0.53
   2  -9  -4    6.56    0.38
   2   9  -4    5.72    0.55
   1  -9  -4   47.27    1.14
   1  -9  -4   44.73    1.41
  -1  -9   4   45.12    1.28
  -1   9   4   43.86    1.07
   0  -9   4    4.17    0.48
   0  -9  -4    5.28    0.42
   0  -9  -4    6.02    0.38
   0   9   4    5.79    0.45
   0   9   4    6.17    0.49
   0   9  -4    5.45    0.48
  -1  -9  -4   21.22    0.87
  -1   9  -4   20.66    0.77
   1   9   4   19.56    0.77
   1   9   4   19.14    0.95
  -2  -9  -4    4.23    0.38
   2  -9   4    3.82    0.53
   2   9   4    4.11    0.61
   2   9   4    4.20    0.51
   3  -9   4    6.22    0.70
   3   9   4    6.78    0.77
   3   9   4    5.25    0.82
  -3 -10   4    0.86    0.29
   3 -10  -4    1.02    0.48
   3  10  -4    0.10    0.49
   2 -10  -4   10.33    0.69
  -2 -10   4   10.83    0.66
   2 -10  -4   10.59    0.49
   2  10  -4   11.03    0.70
   1 -10  -4    4.04    0.36
  -1 -10   4    3.84    0.52
   1 -10  -4    3.62    0.50
  -1  10   4    3.90    0.38
   1  10  -4    3.96    0.54
   0 -10   4    0.09    0.26
   0 -10  -4   -0.06    0.22
   0 -10  -4    0.00    0.18
   0  10  -4    0.26    0.30
   0  10   4    0.09    0.23
  -1 -10  -4    1.21    0.26
   1  10   4    1.71    0.34
  -1  10  -4    1.46    0.35
   2 -10   4   -0.04    0.29
   2  10   4    0.42    0.36
  -2  10  -4    0.12    0.28
   2  10   4    0.79    0.34
   2 -11  -4   -0.09    0.29
   2 -11  -4   -0.01    0.23
  -2 -11   4    0.19    0.34
   2  11  -4    0.17    0.36
   1 -11  -4    2.75    0.37
   1 -11  -4    2.56    0.37
  -1 -11   4    2.50    0.53
   1  11  -4    2.63    0.45
  -1  11   4    3.26    0.39
   0 -11   4   -0.27    0.30
   0 -11  -4   -0.38    0.23
   0 -11  -4   -0.05    0.19
   0  11   4   -0.02    0.24
   1 -11   4    1.39    0.36
  -1 -11  -4    2.06    0.32
   1  11   4    2.42    0.39
   1  11   4    2.22    0.39
   2 -11   4    4.21    0.54
   2  11   4    5.69    0.71
  -2  11  -4    4.71    0.63
   1 -12  -4    0.51    0.25
   1 -12  -4    0.38    0.34
  -1 -12   4    0.73    0.37
  -1  12   4    0.66    0.26
   1  12  -4    1.29    0.43
   0 -12   4    2.01    0.42
   0 -12  -4    2.28    0.39
   0  12  -4    2.99    0.49
   0  12   4    2.21    0.44
   1 -12   4    0.38    0.35
  -1 -12  -4    0.72    0.32
  -1  12  -4    1.71    0.41
   1  12   4    0.88    0.36
   4   0  -5   -0.04    0.18
   3   0  -5   -0.20    0.14
   3   0  -5    0.40    0.18
   2   0  -5    0.14    0.16
   2   0  -5    0.02    0.12
   2   0  -5   -0.15    0.12
   1   0  -5    0.02    0.09
   1   0  -5    0.19    0.14
   1   0  -5    0.25    0.10
  -1   0   5    0.17    0.10
  -1   0   5    0.04    0.12
   0   0   5   -0.02    0.11
   0   0   5    0.25    0.15
   0   0  -5    0.05    0.12
   0   0  -5    0.06    0.08
  -1   0  -5   -0.08    0.10
  -1   0  -5    0.04    0.09
   1   0   5    0.02    0.10
   1   0   5    0.13    0.17
   1   0   5   -0.09    0.13
   2   0   5    0.26    0.29
  -2   0  -5    0.08    0.11
   2   0   5   -0.05    0.12
  -2   0  -5    0.11    0.09
   3   0   5   -0.06    0.25
   4  -1  -5    1.05    0.24
   4  -1  -5    1.76    0.25
   4   1  -5    1.52    0.26
   4   1  -5    1.24    0.28
   3  -1  -5   17.51    0.52
   3  -1  -5   18.96    0.63
   3   1  -5   17.34    0.62
   3   1  -5   18.18    0.52
   3   1  -5   17.73    0.60
   2  -1  -5   90.23    1.89
   2  -1  -5   90.30    1.76
   2   1  -5   89.32    1.91
   2   1  -5   93.83    1.77
   2   1  -5   88.23    1.84
   1  -1  -5  230.82    4.56
   1  -1  -5  242.24    4.47
  -1  -1   5  234.46    4.50
   1  -1  -5  255.09    4.58
  -1  -1   5  245.70    4.54
  -1   1   5  231.62    4.56
   1   1  -5  243.35    4.50
   1   1  -5  233.05    4.53
  -1   1   5  243.04    4.47
   1   1  -5  230.19    4.56
   0  -1   5    1.39    0.16
   0  -1   5    1.15    0.16
   0  -1  -5    1.18    0.21
   0  -1   5    1.48    0.22
   0  -1  -5    1.26    0.14
   0   1  -5    1.50    0.21
   0   1   5    1.20    0.19
   0   1  -5    1.15    0.16
   0   1   5    1.25    0.17
   0   1  -5    1.29    0.15
   1  -1   5    8.18    0.41
   1  -1   5    8.42    0.27
  -1  -1  -5    8.31    0.31
  -1  -1  -5    8.49    0.30
   1  -1   5    8.81    0.34
  -1   1  -5    8.49    0.27
  -1   1  -5    8.29    0.33
   1   1   5    8.44    0.45
   2  -1   5   10.63    0.58
  -2  -1  -5   10.20    0.38
   2  -1   5   11.00    0.36
   2  -1   5   10.74    0.39
   2   1   5    8.84    0.93
  -2   1  -5   10.46    0.38
   3  -1   5    3.80    0.48
   3  -1   5    3.49    0.29
   3   1   5    3.32    0.47
   4  -1   5    0.35    0.39
   4   1   5    0.85    0.41
   4  -2  -5    2.09    0.31
   4  -2  -5    2.64    0.35
   4   2  -5    3.16    0.43
   3  -2  -5   14.39    0.42
   3  -2  -5   15.56    0.55
   3   2  -5   14.54    0.60
   2  -2  -5    7.98    0.35
   2   2  -5    7.50    0.37
  -1  -2   5   74.18    1.45
   1  -2  -5   73.84    1.53
  -1  -2   5   72.60    1.57
  -1   2   5   71.62    1.56
   1   2  -5   72.66    1.53
   1   2  -5   73.66    1.53
   0  -2  -5    4.09    0.23
   0  -2   5    4.39    0.29
   0  -2   5    4.23    0.26
   0   2  -5    4.05    0.20
   0   2   5    4.09    0.34
   0   2  -5    3.80    0.25
   1  -2   5    2.87    0.16
   1  -2   5    2.82    0.32
  -1  -2  -5    3.53    0.19
  -1  -2  -5    3.22    0.23
   1  -2   5    3.18    0.27
  -1   2  -5    3.31    0.16
   1   2   5    3.50    0.37
   2  -2   5    0.22    0.10
   2  -2   5    0.08    0.24
   2  -2   5    0.32    0.17
  -2  -2  -5    0.15    0.14
   2   2   5    0.52    0.34
   3  -2   5    5.97    0.38
   3  -2   5    6.25    0.56
   3   2   5    6.97    0.72
   4  -2   5    8.31    0.77
   4   2   5    7.68    0.75
   4  -3  -5   11.86    0.53
   4   3  -5   13.33    0.68
   3  -3  -5    1.14    0.21
   3   3  -5    1.36    0.29
   2  -3  -5   54.86    1.23
   2   3  -5   54.74    1.28
   1  -3  -5    2.54    0.22
  -1  -3   5    2.63    0.19
  -1  -3   5    2.33    0.29
   1   3  -5    2.51    0.26
  -1   3   5    2.16    0.30
   0  -3  -5   52.67    1.15
   0  -3   5   51.49    1.15
   0  -3   5   52.12    1.19
   0   3  -5   52.07    1.19
   0   3  -5   52.30    1.09
   0   3   5   51.89    1.23
  -1  -3  -5   27.01    0.70
   1  -3   5   26.73    0.74
  -1   3  -5   27.76    0.58
   1   3   5   27.20    0.83
   2  -3   5   20.11    0.65
   2   3   5   20.84    0.81
   3  -3   5    0.95    0.29
   3  -3   5    0.91    0.24
   3   3   5    0.86    0.32
   4  -3   5   -0.05    0.27
   4   3   5    0.13    0.41
   4  -4  -5    0.67    0.22
   4   4  -5    1.08    0.33
   3  -4  -5    1.10    0.20
   3   4  -5    0.76    0.26
   2  -4  -5    0.33    0.17
   2   4  -5    0.42    0.28
  -1  -4   5   27.17    0.78
  -1  -4   5   27.12    0.61
   1  -4  -5   27.24    0.70
  -1   4   5   26.36    0.80
   1   4  -5   25.98    0.75
   0  -4   5    9.63    0.45
   0  -4  -5    9.20    0.37
   0   4  -5    9.71    0.42
   0   4   5    9.24    0.47
   0   4  -5    9.57    0.36
  -1  -4  -5   11.08    0.45
  -1  -4  -5   11.81    0.34
   1  -4   5   12.10    0.51
  -1   4  -5   11.72    0.51
  -1   4  -5   12.36    0.30
   1   4   5   11.86    0.60
   2  -4   5    0.24    0.23
  -2  -4  -5    0.12    0.16
   2   4   5    0.56    0.34
   3  -4   5    1.78    0.39
   3  -4   5    1.50    0.27
   3   4   5    2.41    0.41
   4  -4   5    1.11    0.30
   4  -4   5    1.69    0.47
   4   4   5    1.97    0.49
   4  -5  -5   12.99    0.56
   4  -5  -5   15.54    0.92
   3  -5  -5    1.36    0.22
   3   5  -5    1.79    0.36
  -2  -5   5   12.32    0.59
   2  -5  -5   12.63    0.49
   2   5  -5   12.69    0.59
   1  -5  -5    7.43    0.36
  -1  -5   5    7.47    0.47
  -1  -5   5    7.25    0.28
  -1   5   5    6.69    0.48
  -1   5   5    7.44    0.23
   1   5  -5    6.77    0.44
   0  -5  -5   12.71    0.47
   0  -5   5   12.80    0.56
   0  -5  -5   12.46    0.44
   0   5   5   12.98    0.43
   0   5   5   12.38    0.59
   0   5  -5   13.17    0.53
   1  -5   5    6.13    0.55
  -1  -5  -5    6.21    0.38
  -1  -5  -5    6.13    0.28
  -1   5  -5    6.02    0.19
  -1   5  -5    5.38    0.44
   2  -5   5   53.80    1.34
   2   5   5   52.97    1.44
   3  -5   5    1.22    0.34
   3  -5   5    1.12    0.26
   3   5   5    1.37    0.37
   4  -5   5    0.32    0.29
   4  -5   5    0.86    0.44
   4   5   5    2.30    0.53
   4   5   5    0.64    0.53
   4  -6  -5   12.83    0.75
   4  -6  -5   12.06    0.53
   4   6  -5   11.66    0.79
   3  -6  -5   19.77    0.63
   3  -6  -5   19.47    0.80
   3   6  -5   20.19    0.82
   2  -6  -5    1.81    0.27
  -2  -6   5    1.83    0.29
   2   6  -5    2.39    0.34
  -1  -6   5    1.17    0.19
   1  -6  -5    0.78    0.20
   1  -6  -5    0.40    0.24
  -1  -6   5    0.81    0.25
  -1   6   5    1.04    0.14
   1   6  -5    0.96    0.27
  -1   6   5    0.72    0.26
   0  -6  -5    7.69    0.40
   0  -6   5    7.86    0.51
   0  -6  -5    7.53    0.38
   0   6   5    7.85    0.37
   0   6  -5    7.24    0.47
   0   6   5    7.25    0.52
   1  -6   5    6.70    0.50
  -1  -6  -5    6.82    0.40
  -1  -6  -5    6.98    0.33
  -1   6  -5    6.76    0.22
  -1   6  -5    6.66    0.44
   1   6   5    6.29    0.44
   1   6   5    6.52    0.56
   2  -6   5    9.89    0.60
   2   6   5    9.26    0.65
   2   6   5    8.76    0.53
   3  -6   5   -0.08    0.22
   3   6   5    0.76    0.31
   3   6   5    0.17    0.30
   4  -7  -5    2.23    0.43
   4   7  -5    3.68    0.53
   3  -7  -5    1.90    0.23
   3  -7  -5    2.40    0.44
   3   7  -5    1.66    0.37
   2  -7  -5    1.49    0.23
  -2  -7   5    0.95    0.25
   2   7  -5    1.89    0.44
   1  -7  -5    2.36    0.34
   1  -7  -5    2.18    0.25
  -1  -7   5    1.65    0.29
  -1   7   5    2.15    0.23
  -1   7   5    1.76    0.32
   1   7  -5    2.06    0.33
   0  -7   5    0.89    0.25
   0  -7  -5    0.75    0.22
   0  -7  -5    0.94    0.21
   0   7  -5    0.76    0.27
   0   7   5    1.07    0.23
   0   7   5    0.67    0.29
  -1  -7  -5    2.85    0.29
  -1  -7  -5    2.80    0.33
   1  -7   5    3.87    0.47
  -1   7  -5    2.83    0.21
   1   7   5    2.85    0.39
   1   7   5    2.70    0.37
  -1   7  -5    3.24    0.36
  -1   7  -5    2.81    0.18
   2  -7   5    7.34    0.54
   2   7   5    7.55    0.59
   3  -7   5    2.00    0.35
   3   7   5    3.42    0.56
   3   7   5    3.23    0.49
   3  -8  -5    1.32    0.24
   3  -8  -5    1.21    0.30
   3   8  -5    1.53    0.38
   2  -8  -5    0.88    0.20
  -2  -8   5    0.83    0.26
   2   8  -5    1.06    0.44
   1  -8  -5   21.42    0.66
   1  -8  -5   20.90    0.75
  -1  -8   5   20.90    0.81
  -1   8   5   19.72    0.57
   0  -8  -5   40.95    1.07
   0  -8  -5   41.69    1.09
   0   8   5   40.64    1.05
   0   8   5   40.17    1.20
   0   8  -5   39.39    1.35
  -1  -8  -5    3.06    0.36
   1  -8   5    3.56    0.47
  -1  -8  -5    3.18    0.33
   1   8   5    2.46    0.38
  -1   8  -5    3.84    0.39
   1   8   5    3.72    0.45
  -1   8  -5    3.67    0.20
   2  -8   5   11.13    0.68
   2   8   5   11.19    0.68
   2   8   5   10.96    0.68
   3  -8   5    0.36    0.32
   3   8   5    0.31    0.33
   3   8   5    1.16    0.41
   3  -9  -5    0.29    0.26
   3  -9  -5   -0.29    0.21
   3   9  -5   -0.68    0.32
   2  -9  -5    1.47    0.23
   1  -9  -5   18.51    0.64
  -1   9   5   18.02    0.57
   0  -9  -5    7.58    0.47
   0  -9  -5    7.98    0.45
   0   9   5    8.01    0.56
   0   9   5    7.55    0.48
  -1  -9  -5    1.67    0.27
   1  -9   5    1.31    0.33
   1   9   5    1.41    0.34
   1   9   5    1.72    0.32
   2  -9   5    0.11    0.31
   2   9   5    0.47    0.30
  -2   9  -5    0.82    0.30
   3   9   5    1.43    0.64
   3 -10  -5    1.87    0.45
   3 -10  -5    2.22    0.47
  -3 -10   5    2.29    0.40
   2 -10  -5    0.05    0.20
   2 -10  -5    0.37    0.27
  -2 -10   5    0.28    0.30
   2  10  -5    0.17    0.32
  -1 -10   5    5.82    0.59
   1 -10  -5    5.03    0.53
   1 -10  -5    4.85    0.40
  -1  10   5    5.45    0.38
   0 -10   5   17.94    0.83
   0 -10  -5   18.96    0.69
   0 -10  -5   18.45    0.73
   0  10   5   18.32    0.69
   0  10  -5   17.99    0.81
   0  10   5   19.18    0.84
   1 -10   5    4.72    0.59
  -1 -10  -5    3.61    0.42
  -1  10  -5    4.31    0.51
   1  10   5    5.12    0.54
  -2  10  -5    3.83    0.58
   2  10   5    3.83    0.56
   2  10   5    2.79    0.63
   2 -11  -5    0.46    0.24
  -2 -11   5    0.27    0.33
   2 -11  -5    0.57    0.34
   2  11  -5   -0.38    0.37
   1 -11  -5    2.93    0.43
  -1 -11   5    3.73    0.48
   1 -11  -5    4.14    0.40
   1  11  -5    3.66    0.49
  -1  11   5    3.97    0.42
   0 -11  -5    2.09    0.33
   0 -11   5    1.58    0.37
   0  11  -5    2.23    0.42
   0  11   5    2.89    0.43
   1 -11   5    0.52    0.34
  -1 -11  -5    0.79    0.27
   1  11   5    1.01    0.56
  -1  11  -5    2.01    0.41
   2 -11   5    0.05    0.42
   2  11   5    0.12    0.40
  -2  11  -5    0.83    0.38
   2  11   5    0.75    0.36
  -1 -12   5    1.27    0.41
   1 -12  -5    1.49    0.40
   1 -12  -5    1.92    0.32
   1  12  -5    1.76    0.46
   0 -12  -5    1.11    0.37
   0 -12   5    1.04    0.36
   0  12   5    0.93    0.38
   0  12  -5    1.67    0.42
   1 -12   5    1.81    0.81
  -1 -12  -5    1.50    0.35
   1  12   5    2.90    0.54
  -1  12  -5    3.06    0.50
   1  12   5    2.05    0.42
   4   0  -6    2.91    0.42
   4   0  -6    2.52    0.31
   3   0  -6    5.47    0.33
   3   0  -6    5.32    0.36
   2   0  -6   45.75    1.03
   2   0  -6   44.63    0.98
   2   0  -6   41.56    1.22
  -2   0   6   47.22    0.99
  -1   0   6  162.06    3.19
   1   0  -6  163.68    3.15
   1   0  -6  158.12    3.20
  -1   0   6  167.22    3.15
   1   0  -6  166.71    3.19
   0   0   6  363.79    7.11
   0   0  -6  385.89    7.05
   1   0   6    5.69    0.42
   1   0   6    5.79    0.29
  -1   0  -6    5.49    0.30
  -1   0  -6    5.82    0.26
   2   0   6    2.04    0.33
  -2   0  -6    2.32    0.22
  -2   0  -6    1.99    0.23
   2   0   6    1.97    0.24
   3   0   6    1.30    0.35
   4   0   6    1.67    0.47
   4  -1  -6    1.16    0.24
   4  -1  -6    1.29    0.24
   4   1  -6    1.34    0.26
   4   1  -6    1.18    0.30
   3  -1  -6    4.81    0.31
   3  -1  -6    4.91    0.35
   3   1  -6    5.32    0.37
   3   1  -6    5.40    0.36
   2  -1  -6    7.50    0.40
   2  -1  -6    8.24    0.28
   2   1  -6    8.30    0.36
   2   1  -6    8.26    0.32
   2   1  -6    8.53    0.43
   1  -1  -6    0.03    0.09
   1  -1  -6    0.25    0.11
  -1  -1   6    0.23    0.15
   1   1  -6    0.04    0.10
   1   1  -6    0.11    0.13
   1   1  -6    0.06    0.13
  -1   1   6    0.18    0.16
  -1   1   6    0.25    0.11
   0  -1   6   16.15    0.54
   0  -1   6   16.11    0.51
   0  -1  -6   15.78    0.47
   0   1  -6   16.08    0.50
   0   1  -6   16.46    0.45
   0   1   6   16.11    0.58
  -1  -1  -6   -0.05    0.11
   1  -1   6   -0.05    0.14
   1  -1   6    0.32    0.19
  -1  -1  -6   -0.03    0.12
   1   1   6    0.28    0.21
  -1   1  -6    0.31    0.10
   2  -1   6   -0.02    0.16
  -2  -1  -6    0.11    0.14
   2  -1   6    0.17    0.25
  -2   1  -6    0.30    0.12
   2   1   6    0.05    0.28
   3  -1   6   -0.03    0.16
   3  -1   6   -0.19    0.25
   3   1   6    0.07    0.28
   4  -1   6    0.29    0.41
   4   1   6    0.54    0.43
   4  -2  -6    4.48    0.40
   4   2  -6    3.84    0.55
   4   2  -6    4.14    0.45
   3   2  -6    7.82    0.47
   2  -2  -6   20.78    0.68
   2   2  -6   21.97    0.65
   2   2  -6   21.88    0.67
   1  -2  -6   90.83    1.90
  -1  -2   6   92.58    1.83
  -1  -2   6   89.69    1.95
  -1   2   6   91.22    1.94
   1   2  -6   92.10    1.89
  -1   2   6   95.22    1.77
   1   2  -6   88.39    1.89
   1   2  -6   94.29    1.82
   0  -2  -6   33.90    0.82
   0  -2   6   34.77    0.87
   0  -2   6   34.41    0.86
   0   2  -6   34.14    0.78
   0   2   6   33.69    0.92
   0   2  -6   34.86    0.87
   1  -2   6    4.98    0.34
   1  -2   6    4.78    0.39
   1  -2   6    5.00    0.23
  -1  -2  -6    5.24    0.26
  -1  -2  -6    5.01    0.30
   1   2   6    4.85    0.45
  -1   2  -6    5.30    0.24
   2  -2   6    4.76    0.24
  -2  -2  -6    4.88    0.36
   2  -2   6    4.97    0.36
   2  -2   6    4.88    0.48
   2   2   6    5.37    0.55
   3  -2   6    0.60    0.19
   3  -2   6    0.64    0.31
   3   2   6    0.40    0.34
   4  -2   6    0.58    0.51
   4   2   6   -0.49    0.40
   4  -3  -6    2.61    0.36
   4   3  -6    2.30    0.35
   3  -3  -6    2.54    0.29
   3   3  -6    2.88    0.38
   2   3  -6    0.41    0.22
  -1  -3   6    0.23    0.17
   1  -3  -6    0.01    0.12
  -1  -3   6    0.19    0.13
   1   3  -6   -0.12    0.10
   1   3  -6   -0.12    0.15
  -1   3   6   -0.03    0.08
  -1   3   6   -0.02    0.18
   0  -3   6   48.16    1.15
   0  -3  -6   48.27    1.10
   0  -3   6   47.03    1.12
   0   3  -6   48.69    1.04
   0   3   6   46.69    1.19
   0   3  -6   48.64    1.14
   1  -3   6    0.53    0.24
  -1  -3  -6    0.92    0.18
   1  -3   6    0.78    0.21
  -1  -3  -6    0.79    0.14
  -1   3  -6    0.67    0.21
  -1   3  -6    0.76    0.11
   1   3   6    0.84    0.30
  -2  -3  -6    0.95    0.21
   2  -3   6    0.74    0.28
   2  -3   6    0.97    0.23
   2   3   6    0.98    0.34
   3  -3   6    0.19    0.23
   3  -3   6   -0.07    0.27
   3   3   6   -0.48    0.30
   4  -3   6    0.83    0.45
   4   3   6    0.80    0.45
   4  -4  -6    5.25    0.41
   4   4  -6    4.57    0.54
   3  -4  -6   71.21    1.62
   3   4  -6   72.55    1.72
   2  -4  -6    2.81    0.32
   2   4  -6    2.95    0.35
  -1  -4   6   39.63    0.88
  -1  -4   6   39.82    1.08
   1  -4  -6   40.41    0.98
  -1   4   6   39.54    1.08
   1   4  -6   40.59    1.03
   0  -4  -6    5.13    0.32
   0  -4   6    4.69    0.32
   0  -4   6    4.87    0.40
   0   4   6    4.83    0.46
   0   4  -6    5.05    0.24
   0   4  -6    4.66    0.37
   1  -4   6   19.17    0.68
  -1  -4  -6   19.08    0.48
  -1  -4  -6   18.22    0.63
  -1   4  -6   20.35    0.69
  -1   4  -6   19.89    0.46
   1   4   6   19.25    0.80
  -2  -4  -6    3.58    0.32
   2   4   6    3.80    0.56
   3  -4   6    8.87    0.52
   3  -4   6    9.75    0.66
   3   4   6    9.62    0.74
   4  -4   6    0.78    0.45
   4   4   6   -0.30    0.41
   4  -5  -6    0.21    0.27
   4  -5  -6   -0.04    0.22
   3  -5  -6   16.13    0.59
   3   5  -6   16.62    0.71
  -2  -5   6   29.33    0.91
   2   5  -6   30.94    0.94
  -1  -5   6    0.06    0.23
  -1  -5   6   -0.01    0.13
  -1   5   6   -0.08    0.24
   1   5  -6    0.04    0.22
   0  -5  -6    5.78    0.36
   0  -5   6    5.54    0.47
   0   5  -6    5.35    0.42
   0   5   6    5.10    0.49
   0   5   6    5.32    0.31
   0   5  -6    5.32    0.27
  -1  -5  -6    0.29    0.17
   1  -5   6    0.07    0.23
  -1  -5  -6    0.04    0.11
  -1   5  -6   -0.14    0.08
   1   5   6   -0.18    0.29
  -1   5  -6   -0.06    0.20
   2  -5   6    2.30    0.29
  -2  -5  -6    2.44    0.30
   2   5   6    2.78    0.42
   3  -5   6    1.13    0.35
   3  -5   6    1.25    0.27
   3   5   6    0.61    0.35
   4  -6  -6    4.53    0.46
   4   6  -6    5.40    0.65
   3  -6  -6   30.14    1.04
   3  -6  -6   29.89    0.85
   3   6  -6   31.24    1.11
  -2  -6   6    1.13    0.26
   2  -6  -6    0.95    0.19
   2   6  -6    1.52    0.31
   1  -6  -6    8.00    0.42
  -1  -6   6    7.70    0.34
  -1  -6   6    7.91    0.53
   1   6  -6    7.17    0.47
  -1   6   6    8.42    0.29
  -1   6   6    7.29    0.53
   0  -6   6    0.58    0.26
   0  -6  -6    0.50    0.19
   0  -6  -6    0.34    0.16
   0   6   6    0.48    0.19
   0   6  -6    0.37    0.22
   0   6   6    0.71    0.28
  -1  -6  -6    0.35    0.15
  -1  -6  -6    0.31    0.18
   1  -6   6    0.34    0.26
  -1   6  -6    0.23    0.20
   1   6   6    0.32    0.30
  -1   6  -6    0.43    0.10
   1   6   6    0.47    0.23
   2  -6   6   -0.07    0.23
   2   6   6    0.28    0.29
   3  -6   6    7.27    0.60
   3  -6   6    6.58    0.55
   3   6   6    7.24    0.68
   3   6   6    5.99    0.66
   3  -7  -6   25.15    0.77
   3  -7  -6   24.88    0.96
   3   7  -6   26.32    1.12
  -2  -7   6   13.18    0.63
   2  -7  -6   12.72    0.52
   2   7  -6   12.41    0.64
   1  -7  -6    0.27    0.17
   1  -7  -6   -0.02    0.17
  -1  -7   6    0.29    0.24
  -1   7   6    0.01    0.14
   1   7  -6    0.52    0.26
  -1   7   6    0.30    0.27
   0  -7   6   10.55    0.63
   0  -7  -6   10.69    0.48
   0   7   6    9.83    0.60
   0   7   6   10.26    0.46
   0   7  -6   10.68    0.56
  -1  -7  -6    7.75    0.38
   1  -7   6    8.63    0.56
  -1   7  -6    7.74    0.49
   1   7   6    8.00    0.60
   1   7   6    8.07    0.48
  -1   7  -6    8.53    0.28
   2   7   6    0.18    0.29
   3  -7   6    2.77    0.40
   3  -7   6    2.73    0.42
   3   7   6    4.11    0.62
   3   7   6    4.29    0.54
   3  -8  -6    0.37    0.21
   3  -8  -6    0.54    0.25
   3   8  -6    0.46    0.33
   2  -8  -6    3.04    0.44
   2  -8  -6    3.90    0.34
   2   8  -6    2.85    0.40
   1  -8  -6    3.49    0.38
  -1  -8   6    3.98    0.52
  -1   8   6    3.01    0.27
   0  -8  -6   18.00    0.65
   0  -8  -6   17.29    0.63
   0   8   6   17.44    0.63
   0   8   6   16.85    0.77
  -1  -8  -6    5.46    0.38
   1  -8   6    6.19    0.55
   1   8   6    5.79    0.45
  -1   8  -6    6.47    0.26
   1   8   6    6.01    0.54
   2  -8   6    0.94    0.31
   2   8   6    0.82    0.33
   2   8   6    0.76    0.33
   3  -8   6    0.67    0.33
   3   8   6    0.96    0.37
   3   8   6    1.38    0.48
   3  -9  -6    1.24    0.27
   3  -9  -6    1.24    0.35
   3   9  -6    0.82    0.40
   2  -9  -6    2.07    0.27
  -2  -9   6    1.55    0.33
   2  -9  -6    1.95    0.33
   2   9  -6    1.72    0.40
   1  -9  -6   -0.02    0.17
  -1  -9   6    0.18    0.25
  -1   9   6    0.25    0.19
   0  -9  -6   17.61    0.67
   0  -9  -6   17.36    0.68
   0   9   6   17.84    0.66
   0   9  -6   17.59    0.86
   0   9   6   16.29    0.95
  -1  -9  -6   16.18    0.67
   1  -9   6   16.13    0.82
  -1  -9  -6   15.68    0.74
   1   9   6   15.66    0.78
   1   9   6   16.76    0.80
  -1   9  -6   15.69    0.74
  -1   9  -6   15.97    0.52
   2  -9   6    2.98    0.44
  -2   9  -6    4.38    0.64
   2   9   6    5.25    0.60
   2   9   6    4.39    0.65
   2 -10  -6   -0.29    0.26
   2 -10  -6   -0.04    0.21
  -2 -10   6   -0.05    0.31
   2  10  -6    0.39    0.32
   1 -10  -6    1.45    0.26
  -1 -10   6    1.01    0.43
   1 -10  -6    1.52    0.34
  -1  10   6    1.35    0.25
   1  10  -6    1.08    0.36
   0 -10   6    7.20    0.67
   0 -10  -6    4.60    0.53
   0 -10  -6    6.90    0.46
   0  10   6    6.33    0.45
  -1 -10  -6    3.57    0.41
  -1 -10  -6    2.95    0.37
   1 -10   6    2.96    0.43
   1  10   6    4.56    0.52
  -1  10  -6    4.94    0.56
   2 -10   6    0.16    0.35
  -2  10  -6    0.55    0.35
   2  10   6   -0.52    0.39
   2  10   6   -0.03    0.35
  -2 -11   6    0.57    0.34
   2 -11  -6    0.27    0.36
   2 -11  -6    0.13    0.26
   2  11  -6   -0.06    0.52
   1 -11  -6    0.13    0.29
   1 -11  -6   -0.01    0.28
  -1 -11   6    0.16    0.31
   1  11  -6   -0.16    0.33
   0 -11   6    0.16    0.31
   0 -11  -6    0.30    0.29
   0 -11  -6    0.89    0.28
   0  11   6    1.08    0.29
   0  11   6    0.26    0.31
   0  11  -6    1.15    0.37
   1 -11   6    0.53    0.33
  -1 -11  -6    0.60    0.29
   1  11   6    1.57    0.37
  -1  11  -6    1.40    0.36
   1 -12  -6    1.44    0.29
  -1 -12   6    1.33    0.43
   1 -12  -6    1.38    0.43
   0 -12  -6    0.60    0.27
   0 -12   6    0.00    0.39
   0 -12  -6   -0.50    0.35
   0  12   6   -0.26    0.34
   0  12  -6    0.57    0.43
   4   0  -7   -0.22    0.24
   4   0  -7    0.35    0.36
   3   0  -7   -0.04    0.18
   3   0  -7   -0.21    0.14
   2   0  -7    0.08    0.14
  -2   0   7   -0.27    0.15
   2   0  -7    0.11    0.15
   1   0  -7   -0.03    0.11
   1   0  -7   -0.02    0.11
  -1   0   7   -0.12    0.17
   0   0  -7    0.00    0.11
   0   0   7    0.09    0.20
   1   0   7   -0.04    0.13
   1   0   7    0.39    0.26
  -1   0  -7   -0.01    0.12
  -2   0  -7   -0.17    0.13
  -2   0  -7   -0.02    0.15
   2   0   7    0.35    0.29
   2   0   7   -0.02    0.14
   3   0   7   -0.33    0.31
   4   0   7   -0.54    0.44
   4  -1  -7   11.29    0.59
   4   1  -7   13.27    0.74
   4   1  -7   12.35    0.60
   3  -1  -7    1.04    0.20
   3  -1  -7    1.52    0.21
   3   1  -7    0.96    0.20
   3   1  -7    1.42    0.23
   2  -1  -7   20.59    0.50
   2  -1  -7   20.12    0.65
  -2   1   7   21.30    0.50
   2   1  -7   19.87    0.59
   2   1  -7   20.20    0.56
  -2   1   7   19.54    0.62
   2   1  -7   20.13    0.65
   1  -1  -7   41.07    0.99
  -1  -1   7   41.58    0.97
  -1   1   7   40.06    1.02
   1   1  -7   41.98    0.99
   1   1  -7   41.12    0.97
  -1   1   7   41.74    0.91
   0  -1  -7   87.94    1.85
   0  -1   7   89.38    1.93
   0  -1   7   90.63    1.89
   0   1   7   88.94    1.96
   0   1  -7   89.97    1.90
   0   1  -7   90.80    1.84
  -1  -1  -7   81.90    1.78
  -1  -1  -7   89.48    1.77
   1  -1   7   86.83    1.81
  -1   1  -7   86.83    1.75
   2  -1   7    0.27    0.38
   2  -1   7    0.34    0.19
  -2  -1  -7    0.19    0.17
   2   1   7    0.23    0.32
  -2   1  -7    0.36    0.14
   3  -1   7    1.22    0.19
   3  -1   7    1.01    0.35
   3   1   7    0.91    0.56
   4   1   7   -0.70    0.42
   4  -2  -7   18.82    0.72
   4   2  -7   19.02    0.75
   4   2  -7   19.29    0.72
   3  -2  -7    6.73    0.46
   3   2  -7    6.19    0.41
   3   2  -7    6.08    0.49
   2  -2  -7   16.71    0.58
  -2   2   7   16.04    0.59
   2   2  -7   15.68    0.56
   2   2  -7   16.32    0.57
   1  -2  -7    0.16    0.15
  -1  -2   7    0.43    0.17
  -1   2   7    0.42    0.13
  -1   2   7    0.19    0.21
   1   2  -7    0.42    0.14
   1   2  -7    0.21    0.12
   1   2  -7    0.24    0.17
   0  -2   7   21.02    0.67
   0  -2  -7   21.11    0.61
   0  -2   7   21.34    0.67
   0   2  -7   21.70    0.57
   0   2   7   21.93    0.74
   0   2  -7   21.06    0.65
   1  -2   7    3.77    0.61
   1  -2   7    4.89    0.37
  -1  -2  -7    4.79    0.33
  -1  -2  -7    5.60    0.32
   1   2   7    4.90    0.51
  -1   2  -7    5.05    0.25
   2  -2   7   -0.21    0.27
  -2  -2  -7    0.05    0.18
   2  -2   7   -0.01    0.20
  -2   2  -7   -0.02    0.11
   2   2   7   -0.10    0.30
   3  -2   7    0.19    0.29
   3  -2   7   -0.11    0.19
   3   2   7   -0.66    0.29
   4   2   7   -0.31    0.42
   4  -3  -7   -0.04    0.21
   4   3  -7    0.16    0.28
   4   3  -7    0.19    0.22
   3  -3  -7   16.85    0.64
   3   3  -7   15.69    0.64
   3   3  -7   15.98    0.63
   2  -3  -7  100.58    2.13
   2   3  -7   97.99    2.14
   2   3  -7  101.16    2.16
   1  -3  -7   28.93    1.04
  -1  -3   7   32.08    0.77
  -1   3   7   32.36    0.69
  -1   3   7   30.54    0.91
   1   3  -7   31.25    0.85
   1   3  -7   32.60    0.82
   0  -3  -7   30.59    0.82
   0  -3   7   31.64    0.86
   0  -3   7   32.63    0.90
   0   3  -7   31.87    0.76
   0   3  -7   31.27    0.87
   0   3   7   30.92    0.95
  -1  -3  -7    0.72    0.18
   1  -3   7    0.90    0.23
  -1  -3  -7    0.82    0.23
   1  -3   7    0.66    0.26
  -1   3  -7    0.79    0.13
   1   3   7    1.01    0.35
   2  -3   7    3.01    0.41
  -2  -3  -7    2.64    0.31
   2  -3   7    3.08    0.21
  -2   3  -7    3.09    0.19
   2   3   7    3.63    0.56
   3  -3   7    1.27    0.41
   3  -3   7    0.58    0.30
   3   3   7    0.64    0.41
   4  -3   7    0.20    0.51
   4   3   7    0.61    0.47
   4  -4  -7    5.89    0.46
   4   4  -7    6.17    0.56
   3  -4  -7    7.42    0.43
   3   4  -7    6.96    0.48
   2  -4  -7    1.45    0.23
  -1  -4   7   27.05    0.68
  -1  -4   7   25.80    0.83
   1  -4  -7   25.37    0.75
   1   4  -7   24.92    0.75
  -1   4   7   22.45    0.95
  -1   4   7   27.19    0.67
  -1   4   7   26.92    0.57
   0  -4   7    1.94    0.32
   0  -4  -7    2.83    0.31
   0   4  -7    2.53    0.22
   0   4  -7    2.49    0.34
   0   4   7    2.57    0.37
   1  -4   7    9.49    0.56
  -1  -4  -7    9.17    0.43
  -1  -4  -7   10.49    0.40
  -1   4  -7    8.78    0.49
  -1   4  -7    9.81    0.31
   1   4   7    8.87    0.65
  -2  -4  -7    0.11    0.16
   2  -4   7    0.51    0.24
   2   4   7   -0.18    0.27
   3  -4   7    0.37    0.22
   3  -4   7    0.50    0.34
   3   4   7    0.35    0.36
   4  -5  -7    2.16    0.32
   4   5  -7    1.99    0.48
   3  -5  -7   18.85    0.66
   3   5  -7   18.61    0.76
  -2  -5   7  161.46    3.46
   2  -5  -7  170.33    3.37
   2   5  -7  166.32    3.44
   1  -5  -7    7.52    0.42
  -1  -5   7    7.30    0.52
  -1  -5   7    8.12    0.37
  -1   5   7    6.69    0.51
   1   5  -7    7.33    0.47
  -1   5   7    7.58    0.27
   0  -5   7   13.09    0.62
   0  -5   7   13.30    0.53
   0  -5  -7   13.60    0.52
   0   5  -7   13.32    0.44
   0   5  -7   12.75    0.58
   0   5   7   12.43    0.65
   1  -5   7    0.14    0.23
  -1  -5  -7    0.04    0.16
  -1  -5  -7    0.03    0.12
   1  -5   7    0.12    0.24
  -1   5  -7    0.18    0.11
   1   5   7    0.13    0.32
  -1   5  -7    0.31    0.21
   2  -5   7    0.95    0.24
  -2  -5  -7    1.07    0.21
   2   5   7    1.49    0.38
   3  -5   7    0.15    0.24
   3  -5   7    0.14    0.31
   3   5   7   -0.19    0.35
   4  -6  -7    0.72    0.27
   4  -6  -7    1.87    0.40
   4   6  -7    1.00    0.38
   3  -6  -7    0.52    0.19
   3   6  -7    0.71    0.29
   2  -6  -7   40.00    1.04
  -2  -6   7   39.23    1.14
   2   6  -7   38.95    1.13
  -1  -6   7   31.99    0.80
   1  -6  -7   31.73    0.89
  -1  -6   7   30.96    0.99
   1   6  -7   31.43    0.97
  -1   6   7   31.99    0.71
  -1   6   7   30.45    1.01
   0  -6   7    2.51    0.32
   0  -6  -7    2.41    0.32
   0  -6   7    2.29    0.34
   0  -6  -7    2.22    0.34
   0   6   7    2.56    0.30
   0   6  -7    2.49    0.36
   0   6  -7    2.15    0.24
   0   6   7    2.10    0.36
   1  -6   7   -0.07    0.21
  -1  -6  -7    0.04    0.14
   1  -6   7   -0.15    0.22
   1   6   7   -0.50    0.26
  -1   6  -7    0.09    0.10
  -1   6  -7   -0.10    0.18
   2  -6   7    0.80    0.31
   2  -6   7    0.10    0.23
  -2  -6  -7    0.32    0.21
   2   6   7    0.23    0.32
   3  -6   7    0.50    0.31
   3  -6   7   -0.40    0.29
   3   6   7    1.15    0.37
   3  -7  -7    4.86    0.39
   3  -7  -7    5.88    0.55
   3   7  -7    4.92    0.62
   2  -7  -7   11.67    0.52
   2  -7  -7   10.37    0.63
   2   7  -7   11.66    0.63
   1  -7  -7    2.25    0.29
  -1  -7   7    2.47    0.30
   1  -7  -7    2.31    0.35
  -1  -7   7    3.25    0.42
  -1   7   7    2.59    0.23
  -1   7   7    3.13    0.48
   1   7  -7    2.69    0.36
   0  -7  -7    4.96    0.37
   0  -7  -7    5.63    0.41
   0   7  -7    4.69    0.30
   0   7   7    4.96    0.36
  -1  -7  -7   10.78    0.45
   1  -7   7   11.70    0.62
  -1   7  -7   10.66    0.33
   1   7   7   10.62    0.54
   1   7   7   11.25    0.67
   2  -7   7    1.67    0.33
  -2  -7  -7    1.95    0.28
   2   7   7    2.70    0.40
   3  -7   7    0.43    0.31
   3   7   7    0.56    0.37
   3   7   7   -0.46    0.41
   3  -8  -7    0.49    0.26
   3  -8  -7   -0.02    0.29
   3   8  -7    0.55    0.33
   2  -8  -7   18.00    0.66
   2  -8  -7   18.19    0.92
  -2  -8   7   17.35    0.78
   2   8  -7   17.52    0.82
   1  -8  -7    0.01    0.20
   1  -8  -7    0.25    0.19
  -1  -8   7    0.49    0.20
   1   8  -7    0.20    0.35
  -1   8   7    0.12    0.19
   0  -8  -7    4.06    0.39
   0  -8  -7    3.90    0.36
   0   8   7    3.58    0.49
  -1  -8  -7    7.92    0.44
   1  -8   7    7.66    0.59
  -1   8  -7    8.33    0.34
   1   8   7    7.76    0.52
   1   8   7    8.91    0.72
  -1   8  -7    8.20    0.56
   2  -8   7    3.99    0.57
   2   8   7    3.96    0.59
   3  -8   7    0.64    0.43
   3  -8   7   -0.16    0.33
   3   8   7    1.65    0.45
   3  -9  -7    1.29    0.28
   3   9  -7    1.20    0.44
  -2  -9   7    2.83    0.45
   2  -9  -7    2.91    0.39
   2  -9  -7    3.32    0.38
   2   9  -7    2.98    0.45
   1  -9  -7    3.01    0.45
  -1  -9   7    3.19    0.49
   1  -9  -7    2.58    0.34
   1   9  -7    2.05    0.50
  -1   9   7    2.96    0.32
  -1   9   7    2.14    0.58
   0  -9  -7    3.20    0.37
   0  -9  -7    2.83    0.40
   0   9   7    3.86    0.53
   0   9  -7    3.95    0.51
   0   9   7    3.25    0.59
  -1  -9  -7    8.54    0.54
  -1  -9  -7    8.83    0.52
   1  -9   7    9.10    0.77
   1   9   7    9.30    0.68
   2   9   7    3.23    0.54
   2   9   7    2.64    0.46
   2 -10  -7    0.37    0.23
  -2 -10   7    0.16    0.43
   2 -10  -7    0.41    0.30
   2  10  -7    0.42    0.36
  -1 -10   7    1.58    0.36
   1 -10  -7    2.01    0.30
   1  10  -7    1.86    0.40
   0 -10  -7   -0.27    0.21
   0 -10   7    0.32    0.29
   0  10  -7    0.25    0.31
   0  10   7    0.01    0.24
   0  10   7    0.27    0.31
   1 -10   7    6.82    0.64
  -1 -10  -7    5.54    0.48
  -1 -10  -7    5.68    0.47
  -1  10  -7    5.75    0.61
   1  10   7    6.73    0.64
   1  10   7    5.46    0.60
   2 -10   7    1.58    0.44
  -2  10  -7    2.63    0.46
   2  10   7    2.23    0.54
   2  10   7    2.38    0.45
   1 -11  -7    1.19    0.35
  -1 -11   7    1.19    0.37
   1 -11  -7    1.21    0.27
   1  11  -7    1.62    0.43
   0 -11   7    0.35    0.32
   0 -11  -7    0.28    0.22
   0 -11  -7   -0.33    0.27
   0  11  -7    0.13    0.37
   0  11   7    0.43    0.30
   0  11   7   -0.05    0.31
  -1 -11  -7    0.36    0.27
  -1 -11  -7   -0.22    0.28
   1 -11   7   -0.15    0.34
  -1  11  -7   -0.37    0.35
   1  11   7    0.39    0.36
   1  11   7    0.33    0.39
   4   0  -8   10.51    0.59
   3   0  -8   34.21    0.82
   3   0  -8   31.26    0.95
  -2   0   8    0.74    0.20
   2   0  -8    0.53    0.17
   2   0  -8    0.79    0.18
   1   0  -8  117.46    2.61
   1   0  -8  124.82    2.44
  -1   0   8  120.89    2.50
   0   0   8   19.21    0.71
   0   0  -8   19.95    0.59
  -1   0  -8   33.36    0.84
   1   0   8   34.29    1.07
  -2   0  -8   29.28    0.77
   3   0   8    0.79    0.48
   4  -1  -8    1.18    0.28
   4   1  -8    0.95    0.27
   4   1  -8    1.46    0.34
   3  -1  -8   14.40    0.41
   3  -1  -8   13.51    0.57
   3   1  -8   13.10    0.50
   3   1  -8   13.81    0.59
   2  -1  -8    1.15    0.20
   2  -1  -8    1.17    0.16
  -2  -1   8    1.22    0.19
   2   1  -8    0.87    0.18
  -2   1   8    1.04    0.18
   2   1  -8    1.10    0.20
  -2   1   8    1.08    0.23
   2   1  -8    0.59    0.22
   1  -1  -8    9.21    0.42
  -1  -1   8    9.50    0.46
   1   1  -8    8.58    0.57
   1   1  -8    9.16    0.40
  -1   1   8    8.92    0.50
   0  -1  -8    0.71    0.18
   0  -1   8    1.05    0.26
   0   1  -8    0.98    0.16
   0   1   8    1.06    0.31
   1  -1   8   16.26    0.57
   1  -1   8   16.10    0.72
  -1  -1  -8   15.95    0.54
  -1   1  -8   15.79    0.50
   1   1   8   15.90    0.74
  -2  -1  -8    0.29    0.19
   2  -1   8    0.05    0.17
   2   1   8    0.27    0.31
  -2   1  -8    0.16    0.14
   3   1   8   -0.10    0.39
   4  -2  -8    5.19    0.47
   4   2  -8    4.35    0.46
   4   2  -8    4.63    0.46
   3  -2  -8    8.82    0.47
   3   2  -8    8.09    0.49
  -2  -2   8   10.91    0.36
   2  -2  -8   10.60    0.48
  -2   2   8   10.51    0.51
   2   2  -8   10.67    0.36
   2   2  -8   10.14    0.46
   2   2  -8   10.74    0.48
  -1  -2   8    3.96    0.36
   1  -2  -8    4.40    0.35
   1   2  -8    3.44    0.35
  -1   2   8    3.80    0.43
   1   2  -8    4.07    0.32
  -1   2   8    3.91    0.26
   0  -2   8   30.71    0.89
   0  -2   8   29.79    0.88
   0   2  -8   30.35    0.76
   0   2  -8   30.77    0.86
   0   2   8   28.05    1.09
   1  -2   8   16.78    0.71
  -1  -2  -8   15.34    0.57
   1  -2   8   16.12    0.61
  -1   2  -8   16.16    0.48
   1   2   8   15.97    0.75
  -2  -2  -8    8.87    0.43
   2  -2   8    8.47    0.44
  -2   2  -8    8.65    0.35
   2   2   8    9.22    0.66
   3  -2   8    0.18    0.34
   3  -2   8    0.44    0.20
   3   2   8    0.27    0.45
   4  -3  -8    0.18    0.24
   4   3  -8    0.47    0.24
   4   3  -8    0.66    0.34
   2  -3  -8   13.98    0.55
   2   3  -8   13.78    0.54
  -2   3   8   12.78    0.61
  -1  -3   8    6.25    0.38
   1  -3  -8    6.65    0.38
  -1  -3   8    5.84    0.46
   1   3  -8    6.50    0.37
   1   3  -8    5.75    0.42
  -1   3   8    6.69    0.29
   0  -3   8   13.92    0.72
   0  -3   8   14.63    0.67
   0  -3  -8   15.22    0.56
   0   3  -8   14.89    0.48
   0   3  -8   15.10    0.61
   0   3   8   15.16    0.71
  -1  -3  -8   21.83    0.68
   1  -3   8   20.61    0.75
   1  -3   8   21.66    0.81
   1   3   8   21.47    0.88
  -1   3  -8   21.80    0.57
  -2  -3  -8    0.12    0.16
  -2   3  -8    0.19    0.11
   2   3   8    0.30    0.31
   3  -3   8    0.30    0.27
   3  -3   8   -0.07    0.28
   4  -4  -8    0.13    0.25
   4   4  -8    0.27    0.26
   4   4  -8    0.91    0.32
   3  -4  -8    1.89    0.27
   3   4  -8    1.74    0.31
   2  -4  -8   46.27    1.20
   2   4  -8   47.23    1.21
   2   4  -8   47.20    1.21
  -2   4   8   46.22    1.25
  -1  -4   8  272.40    5.46
  -1  -4   8  276.08    5.28
   1  -4  -8  274.17    5.38
  -1   4   8  285.38    5.18
  -1   4   8  267.78    5.46
   1   4  -8  283.57    5.36
   1   4  -8  272.34    5.42
   0  -4   8   36.88    1.05
   0  -4  -8   38.17    0.99
   0  -4   8   36.87    1.01
   0   4  -8   36.95    0.89
   0   4   8   36.55    1.12
   0   4  -8   35.93    1.02
   1  -4   8    4.91    0.48
  -1  -4  -8    4.45    0.35
   1  -4   8    4.90    0.47
  -1   4  -8    4.84    0.26
  -1   4  -8    4.44    0.39
   1   4   8    5.46    0.61
   2  -4   8    0.35    0.23
  -2  -4  -8    0.84    0.20
   2   4   8    1.02    0.36
   3  -4   8    0.25    0.34
   3  -4   8    0.11    0.24
   4  -5  -8    4.72    0.52
   4   5  -8    5.05    0.59
   3  -5  -8   -0.20    0.18
   3   5  -8   -0.13    0.24
   2  -5  -8   13.18    0.54
  -1  -5   8   12.17    0.71
   1  -5  -8   11.74    0.52
  -1  -5   8   12.49    0.49
  -1   5   8   11.81    0.64
   1   5  -8   11.38    0.57
   1   5  -8   12.25    0.49
  -1   5   8   13.03    0.38
  -1   5   8   12.35    0.37
   0  -5  -8   30.64    0.87
   0  -5   8   31.24    0.92
   0  -5   8   30.15    0.96
   0   5  -8   29.84    0.93
   0   5   8   28.95    1.01
   0   5  -8   30.88    0.77
   1  -5   8   -0.19    0.23
  -1  -5  -8    0.10    0.16
  -1  -5  -8    0.09    0.13
   1  -5   8    0.08    0.22
   1   5   8    0.24    0.32
  -1   5  -8    0.21    0.12
   2  -5   8    1.29    0.33
   2  -5   8    0.84    0.26
   2   5   8    1.50    0.42
   3  -5   8   -0.42    0.25
   3  -5   8    0.44    0.35
   3   5   8   -0.06    0.40
   3  -6  -8    3.73    0.39
   3   6  -8    3.97    0.48
   2  -6  -8   15.18    0.74
   2   6  -8   17.44    0.71
   1  -6  -8  109.81    2.36
  -1  -6   8  109.82    2.24
   1   6  -8  108.65    2.31
  -1   6   8  109.84    2.13
   1   6  -8  107.59    2.43
  -1   6   8  108.19    2.49
   0  -6  -8    3.00    0.40
   0  -6   8    3.41    0.51
   0  -6   8    3.04    0.45
   0   6   8    2.77    0.29
   0   6  -8    3.10    0.37
   0   6  -8    3.10    0.28
   1  -6   8    2.32    0.33
  -1  -6  -8    2.60    0.28
   1  -6   8    2.90    0.46
   1   6   8    3.17    0.52
  -1   6  -8    2.86    0.23
   2  -6   8    3.91    0.49
  -2  -6  -8    3.96    0.41
   2  -6   8    4.24    0.53
   2   6   8    4.42    0.62
   3  -6   8    0.55    0.36
   3   6   8    0.75    0.41
   3  -7  -8    4.70    0.42
   3  -7  -8    4.18    0.55
   3   7  -8    4.01    0.56
   2  -7  -8    3.00    0.36
  -2  -7   8    3.21    0.47
   2   7  -8    3.48    0.46
   1  -7  -8   28.59    0.86
  -1  -7   8   27.87    0.79
   1   7  -8   27.33    0.94
  -1   7   8   28.53    0.67
   0  -7  -8    4.08    0.37
   0  -7  -8    4.83    0.41
   0  -7   8    3.52    0.48
   0  -7   8    3.48    0.43
   0   7   8    4.25    0.38
   0   7  -8    4.17    0.33
   1  -7   8    9.63    0.62
   1  -7   8    9.54    0.65
  -1  -7  -8    9.68    0.46
   1   7   8    9.92    0.70
  -1   7  -8    9.69    0.34
  -1   7  -8    8.92    0.53
   1   7   8    9.21    0.60
  -2  -7  -8    0.27    0.23
   2  -7   8   -0.27    0.26
   2  -7   8    0.31    0.32
   3  -7   8    0.58    0.36
   3  -7   8   -0.39    0.70
   3   7   8   -0.20    0.39
   3   7   8    1.20    0.69
   3  -8  -8    0.31    0.31
   3  -8  -8   -0.41    0.30
   3   8  -8    0.06    0.33
   2  -8  -8    0.15    0.25
   2  -8  -8    0.61    0.21
   2   8  -8    0.38    0.30
  -1  -8   8    1.30    0.26
  -1  -8   8    1.04    0.30
   1  -8  -8    1.23    0.25
  -1   8   8    0.65    0.26
  -1   8   8    1.53    0.20
   1   8  -8    1.36    0.32
   0  -8  -8    3.56    0.37
   0  -8  -8    3.97    0.39
   0  -8   8    3.60    0.41
   0   8   8    2.80    0.42
   0   8   8    2.05    0.42
   0   8  -8    2.85    0.35
  -1  -8  -8    2.49    0.30
   1  -8   8    2.08    0.35
  -1   8  -8    3.75    0.59
   1   8   8    2.53    0.40
   1   8   8    2.55    0.43
  -2  -8  -8    7.47    0.52
   2  -8   8    8.23    0.67
   2  -8   8    6.84    0.65
   2   8   8    8.84    0.74
   2   8   8    8.04    0.76
   2  -9  -8    2.33    0.37
  -2  -9   8    1.77    0.53
   2  -9  -8    2.24    0.31
   2   9  -8    3.77    0.58
   1  -9  -8    5.57    0.53
  -1  -9   8    5.55    0.49
  -1  -9   8    5.76    0.59
   1   9  -8    5.04    0.57
  -1   9   8    6.31    0.59
   0  -9   8    0.69    0.27
   0  -9   8    0.52    0.30
   0  -9  -8    0.48    0.24
   0  -9  -8    0.48    0.29
   0   9   8    0.52    0.25
   0   9  -8    0.73    0.20
   0   9   8    0.45    0.32
   0   9  -8    0.25    0.27
   1  -9   8   -0.42    0.26
  -1  -9  -8    0.14    0.25
  -1  -9  -8    0.30    0.23
  -1   9  -8    0.02    0.31
   1   9   8    0.65    0.32
   1   9   8    0.40    0.37
   2  -9   8    4.68    0.69
   2   9   8    4.38    0.69
   2   9   8    3.32    0.54
   2 -10  -8    0.40    0.34
   2 -10  -8    0.11    0.25
  -2 -10   8    0.71    0.35
   2  10  -8    0.78    0.39
   1 -10  -8    1.04    0.35
  -1 -10   8    1.92    0.36
  -1 -10   8    1.77    0.39
   1 -10  -8    1.49    0.28
   1  10  -8    1.69    0.40
   0 -10  -8   -0.21    0.42
   0 -10   8    0.57    0.30
   0  10   8    0.76    0.32
   0  10  -8    0.50    0.33
   0  10   8    0.31    0.25
   0  10  -8    0.57    0.21
   1 -10   8   -0.13    0.32
  -1 -10  -8    0.49    0.26
  -1 -10  -8    0.19    0.24
   1  10   8    0.12    0.35
  -1  10  -8   -0.06    0.34
   1  10   8    1.07    0.35
  -1 -11   8   -0.05    0.35
   1 -11  -8    0.47    0.26
   1 -11  -8   -0.27    0.32
   0 -11  -8    1.75    0.59
   0 -11   8    1.54    0.40
   0 -11  -8    1.62    0.33
   0  11   8    1.95    0.45
   0  11   8    1.04    0.31
   0  11  -8    1.50    0.27
   0  11  -8    2.51    0.49
   4   0  -9   -0.42    0.21
   3   0  -9    0.10    0.18
   3   0  -9    0.49    0.26
  -2   0   9    0.19    0.18
   1   0  -9    0.22    0.14
   1   0  -9   -0.11    0.14
  -1   0   9   -0.25    0.24
   0   0  -9    0.34    0.20
   0   0   9    0.29    0.50
  -1   0  -9    0.06    0.18
   1   0   9    0.04    0.29
  -2   0  -9    0.06    0.25
   3   0   9    0.23    0.38
   4  -1  -9    2.81    0.35
   4   1  -9    2.07    0.33
   3  -1  -9   35.95    1.06
   3  -1  -9   38.56    0.84
   3   1  -9   34.93    1.06
   3   1  -9   37.16    1.02
  -2  -1   9   30.51    0.80
   2  -1  -9   31.95    0.92
   2  -1  -9   32.43    0.87
  -2   1   9   30.92    0.88
  -2   1   9   31.54    0.77
   2   1  -9   32.88    0.84
   1  -1  -9    0.65    0.18
  -1  -1   9    0.63    0.25
   1   1  -9    0.41    0.17
  -1   1   9    0.48    0.27
   1   1  -9    0.66    0.19
   0  -1  -9   41.00    1.03
   0  -1   9   39.48    1.16
   0   1  -9   40.26    1.03
   0   1   9   42.10    1.19
   1  -1   9    8.26    0.61
  -1  -1  -9    8.29    0.43
   1  -1   9    8.84    0.46
  -1   1  -9    8.82    0.40
   1   1   9    9.09    0.64
   2  -1   9    4.64    0.36
  -2  -1  -9    5.09    0.36
  -2   1  -9    4.82    0.33
   3  -1   9    4.84    0.69
   3   1   9    5.13    0.71
   4  -2  -9    0.28    0.25
   4   2  -9    0.47    0.26
   4   2  -9    0.88    0.30
   3  -2  -9    2.09    0.30
   3   2  -9    1.46    0.26
   3   2  -9    2.24    0.32
  -2  -2   9   28.58    0.70
   2  -2  -9   28.55    0.85
   2   2  -9   28.30    0.83
  -2   2   9   27.06    0.98
   2   2  -9   29.18    0.70
   1  -2  -9    1.05    0.20
  -1  -2   9    0.68    0.25
   1   2  -9    0.96    0.24
   1   2  -9    1.13    0.19
   0  -2   9    6.21    0.51
   0  -2   9    6.26    0.47
   0  -2  -9    6.63    0.39
   0   2  -9    5.91    0.43
   0   2  -9    6.18    0.37
   0   2   9    6.36    0.58
   1  -2   9    9.29    0.62
   1  -2   9    8.81    0.53
  -1  -2  -9    8.90    0.44
   1   2   9    8.87    0.59
  -1   2  -9    9.18    0.38
  -2  -2  -9   19.29    0.64
   2  -2   9   20.01    0.70
  -2   2  -9   19.08    0.57
   2   2   9   19.78    0.91
   3  -2   9    0.36    0.36
   3   2   9   -0.34    0.35
   4   3  -9    0.28    0.25
   4   3  -9    0.05    0.34
   3  -3  -9    2.25    0.29
   3   3  -9    2.59    0.31
   3   3  -9    1.72    0.41
   2  -3  -9    0.41    0.17
   2   3  -9    0.79    0.24
  -2   3   9    0.93    0.25
   2   3  -9    0.56    0.17
  -1  -3   9   45.32    1.11
   1  -3  -9   45.03    1.15
   1   3  -9   44.97    1.18
   1   3  -9   45.25    1.12
  -1   3   9   44.81    1.25
  -1   3   9   48.13    1.15
   0  -3   9  102.93    2.28
   0  -3   9  103.29    2.32
   0  -3  -9  105.99    2.23
   0   3  -9  103.18    2.29
   0   3  -9  105.22    2.16
   0   3   9  104.49    2.38
   1  -3   9   24.36    0.89
   1  -3   9   24.03    0.81
  -1  -3  -9   23.70    0.74
  -1   3  -9   24.53    0.65
   2  -3   9    1.53    0.28
  -2  -3  -9    2.01    0.27
   2   3   9    2.03    0.47
  -2   3  -9    2.34    0.24
   3  -3   9    1.29    0.29
   3  -3   9    1.21    0.40
   3   3   9    0.77    0.43
   4  -4  -9   -0.29    0.25
   4   4  -9    0.22    0.34
   3  -4  -9    1.89    0.30
   3   4  -9    2.91    0.39
   3   4  -9    2.76    0.40
   2  -4  -9   11.22    0.52
   2   4  -9   11.28    0.53
  -2   4   9   11.51    0.56
  -1  -4   9   17.52    0.61
   1  -4  -9   18.69    0.66
  -1  -4   9   18.26    0.75
   1   4  -9   19.10    0.62
  -1   4   9   17.46    0.74
  -1   4   9   18.70    0.52
   1   4  -9   18.54    0.68
   0  -4   9    0.02    0.22
   0  -4  -9    0.43    0.18
   0   4  -9   -0.22    0.16
   0   4   9   -0.20    0.30
   0   4  -9   -0.02    0.21
   1  -4   9   16.71    0.74
   1  -4   9   16.87    0.67
  -1  -4  -9   16.20    0.60
  -1   4  -9   16.09    0.49
   2  -4   9    3.58    0.42
   2  -4   9    4.32    0.55
  -2   4  -9    3.32    0.28
   2   4   9    2.97    0.48
   3  -4   9    0.25    0.26
   3  -4   9   -0.34    0.32
   3   4   9   -0.12    0.40
   3  -5  -9    0.09    0.21
   3   5  -9    0.67    0.29
   3   5  -9    0.73    0.22
   2  -5  -9    6.13    0.40
   2   5  -9    5.02    0.43
  -2   5   9    4.72    0.47
  -1  -5   9   46.99    1.12
   1  -5  -9   45.68    1.19
  -1   5   9   47.09    0.99
   1   5  -9   45.41    1.26
  -1   5   9   44.52    1.28
   1   5  -9   45.29    1.14
   0  -5   9  209.05    4.13
   0  -5   9  197.35    4.16
   0   5  -9  204.20    3.97
   0   5  -9  200.84    4.16
   1  -5   9   14.89    0.71
  -1   5  -9   14.92    0.46
  -2  -5  -9    0.45    0.22
   2  -5   9    0.45    0.39
   2  -5   9    0.69    0.26
   2   5   9    0.52    0.38
   3  -5   9    0.65    0.43
   3  -5   9    1.27    0.44
   3   5   9    1.15    0.46
   3  -6  -9   10.55    0.86
   3   6  -9   12.93    1.01
   3   6  -9   11.01    0.62
  -2  -6   9    4.64    0.49
   2  -6  -9    3.29    0.37
   2   6  -9    4.50    0.41
  -1  -6   9   21.38    0.68
   1  -6  -9   21.49    0.74
   1   6  -9   21.56    0.69
  -1   6   9   21.77    0.56
   1   6  -9   20.84    0.79
   0  -6   9    6.33    0.52
   0  -6   9    6.18    0.50
   0   6  -9    6.51    0.49
  -1  -6  -9    4.77    0.36
   1  -6   9    5.32    0.50
  -1  -6  -9    4.44    0.43
   1   6   9    5.24    0.60
  -1   6  -9    4.92    0.30
   2  -6   9    3.70    0.50
   2  -6   9    4.66    0.66
  -2  -6  -9    4.48    0.47
   2   6   9    4.06    0.55
   3  -6   9    0.31    0.32
   3  -6   9    0.46    0.74
   3   6   9    0.87    0.47
   3  -7  -9    2.35    0.34
   3   7  -9    1.92    0.38
  -2  -7   9    5.49    0.83
   2  -7  -9    4.06    0.40
   2   7  -9    5.16    0.45
   2   7  -9    4.03    0.51
   1  -7  -9    0.69    0.22
  -1  -7   9    0.84    0.26
  -1   7   9    1.23    0.32
  -1   7   9    0.81    0.27
   1   7  -9    0.99    0.20
   1   7  -9    0.31    0.26
   0  -7   9   10.34    0.65
   0  -7  -9    8.41    0.49
   0  -7   9   10.18    0.57
   0  -7  -9    9.91    0.50
   0   7  -9   10.24    0.46
   1  -7   9    0.35    0.27
  -1  -7  -9   -0.35    0.19
   1   7   9    0.18    0.33
  -1   7  -9   -0.11    0.15
   1   7   9    0.39    0.23
  -1   7  -9    0.25    0.31
   2  -7   9    0.69    0.50
   2  -7   9    1.22    0.38
  -2  -7  -9    0.92    0.26
   2   7   9    1.19    0.40
   2   7   9    1.12    0.40
   3  -8  -9    0.67    0.43
   3  -8  -9    0.19    0.27
   3   8  -9   -0.13    0.35
   2  -8  -9    0.79    0.40
  -2  -8   9    0.88    0.30
   2  -8  -9    1.21    0.29
   2   8  -9    0.68    0.32
  -1  -8   9    6.26    0.59
  -1  -8   9    4.93    0.46
   1  -8  -9    6.51    0.53
   1  -8  -9    6.15    0.45
   1   8  -9    7.46    0.96
  -1   8   9    6.37    0.66
   0  -8  -9    8.11    0.51
   0  -8   9    9.02    0.57
   0   8  -9    8.30    0.75
   0   8   9    8.68    0.50
   0   8  -9    9.13    0.44
   1  -8   9   -0.08    0.30
  -1  -8  -9   -0.20    0.28
   1  -8   9   -0.37    0.27
  -1  -8  -9    0.54    0.23
   1   8   9    0.64    0.35
  -1   8  -9    0.14    0.28
   2  -8   9    1.81    0.38
   2  -8   9    3.07    0.51
  -2  -8  -9    3.68    0.49
   2   8   9    2.91    0.53
   2   8   9    2.64    0.46
   2  -9  -9   -0.58    0.23
  -2  -9   9    0.36    0.32
   2  -9  -9    0.20    0.28
   2   9  -9    0.10    0.34
  -1  -9   9    0.64    0.32
   1  -9  -9    1.17    0.26
  -1  -9   9    0.57    0.39
  -1   9   9    0.78    0.31
   1   9  -9    1.14    0.34
   1   9  -9    0.95    0.24
   0  -9   9    6.10    0.50
   0  -9   9    4.44    0.56
   0  -9  -9    4.82    0.46
   0   9  -9    5.01    0.56
   0   9  -9    5.00    0.38
   0   9   9    4.29    0.43
   0   9   9    4.99    0.59
  -1  -9  -9    0.73    0.26
   1  -9   9    0.96    0.35
   1  -9   9    1.21    0.41
  -1  -9  -9    1.30    0.28
   1   9   9    0.89    0.38
   1   9   9    0.46    0.33
  -1   9  -9    1.17    0.34
   1 -10  -9    2.13    0.40
   1 -10  -9    1.69    0.29
  -1 -10   9    1.91    0.42
   1  10  -9    1.96    0.43
  -1  10   9    2.69    0.48
   1  10  -9    1.99    0.32
   0 -10  -9    2.79    0.36
   0 -10   9    2.01    0.40
   0 -10  -9    2.63    0.38
   0 -10   9    3.71    0.62
   0  10  -9    2.62    0.46
   0  10   9    2.19    0.34
   0  10  -9    2.34    0.28
   0  10   9    3.92    0.63
   1 -10   9    1.08    0.40
  -1 -10  -9    1.16    0.43
   1 -10   9    1.99    0.43
   1  10   9    1.81    0.45
  -1  10  -9    1.97    0.50
   1  10   9    0.93    0.50
   4   0 -10    2.96    0.40
   3   0 -10   10.36    0.42
  -2   0  10  107.51    2.31
   2   0 -10  113.61    2.27
   1   0 -10   29.29    0.85
  -1   0  10   30.03    0.95
   0   0  10    0.57    0.32
   0   0 -10    0.07    0.16
  -1   0 -10   27.32    0.78
   1   0  10   28.09    1.01
  -2   0 -10    3.94    0.35
   3   0  10    0.54    0.43
   4  -1 -10    0.55    0.27
   4   1 -10    0.74    0.31
   3  -1 -10    0.42    0.34
   3   1 -10    0.23    0.25
   3   1 -10   -0.01    0.23
  -2  -1  10    1.21    0.22
   2   1 -10    1.17    0.23
  -2   1  10    0.89    0.27
  -1  -1  10    2.64    0.35
   1  -1 -10    2.57    0.32
   1   1 -10    2.22    0.29
  -1   1  10    2.77    0.38
   1   1 -10    2.64    0.34
   0  -1  10    1.19    0.33
   0  -1 -10    1.20    0.21
   0   1 -10    1.47    0.22
   0   1  10    1.14    0.35
   1  -1  10   -0.26    0.29
  -1  -1 -10    0.27    0.16
   1   1  10    0.05    0.27
  -1   1 -10    0.46    0.18
  -2  -1 -10    2.51    0.32
  -2   1 -10    2.13    0.31
   3  -1  10    2.82    0.54
   3   1  10    2.61    0.53
   4  -2 -10    0.51    0.28
   4   2 -10    0.84    0.37
   3  -2 -10    0.01    0.35
   3   2 -10    0.46    0.22
   3   2 -10    0.74    0.26
   2  -2 -10   33.72    0.99
  -2  -2  10   33.93    0.84
   2   2 -10   33.46    0.96
  -2   2  10   34.25    1.01
  -1  -2  10    5.93    0.45
  -1   2  10    5.22    0.50
   1   2 -10    6.34    0.43
   1   2 -10    5.09    0.36
   0  -2 -10   14.94    0.57
   0  -2  10   14.30    0.69
   0   2 -10   14.72    0.54
   0   2  10   14.96    0.74
   1  -2  10    3.34    0.49
  -1  -2 -10    3.53    0.33
   1  -2  10    3.39    0.42
  -1   2 -10    3.09    0.32
   2  -2  10    6.87    0.54
  -2  -2 -10    5.73    0.41
   2  -2  10    6.26    0.64
  -2   2 -10    6.67    0.37
   2   2  10    6.77    0.69
   3  -2  10   -0.04    0.39
   3   2  10    0.00    0.40
   3  -3 -10    0.01    0.34
   3   3 -10   -0.07    0.21
   3   3 -10    0.04    0.23
  -2  -3  10    0.24    0.16
   2  -3 -10   -0.04    0.17
  -2   3  10   -0.18    0.20
   2   3 -10   -0.19    0.20
  -1  -3  10   10.27    0.52
  -1   3  10   10.90    0.60
   1   3 -10   10.50    0.50
   1   3 -10    9.83    0.46
   0  -3  10    0.14    0.21
   0  -3  10   -0.02    0.28
   0  -3 -10    0.10    0.16
   0   3 -10    0.01    0.17
   0   3  10    0.24    0.34
   0   3 -10    0.16    0.18
  -1  -3 -10    0.22    0.18
   1  -3  10    0.38    0.21
   1  -3  10   -0.08    0.27
  -1   3 -10    0.26    0.17
   2  -3  10    8.72    0.50
   2  -3  10    8.65    0.83
  -2   3 -10    7.99    0.38
   3  -3  10    5.28    0.75
   3   3  10    5.28    0.87
   3   4 -10    1.42    0.26
   3   4 -10    2.19    0.32
   2  -4 -10    1.46    0.25
   2   4 -10    2.23    0.35
   2   4 -10    1.68    0.27
  -2   4  10    2.16    0.32
  -1  -4  10    1.07    0.26
  -1  -4  10    0.81    0.26
  -1   4  10    0.87    0.29
   1   4 -10    1.44    0.21
   1   4 -10    1.08    0.24
   0  -4  10   48.45    1.28
   0  -4 -10   43.10    1.21
   0  -4  10   46.55    1.28
   0   4  10   46.40    1.36
   0   4 -10   46.62    1.48
   0   4 -10   47.02    1.13
   1  -4  10  102.75    2.64
   1  -4  10  105.50    2.35
  -1   4 -10  105.47    2.13
   2  -4  10   10.21    0.55
  -2  -4 -10    9.19    0.53
   2  -4  10   10.08    0.73
   2   4  10    9.48    0.83
   3  -4  10    0.12    0.54
   3  -4  10    0.58    0.30
   3   4  10    0.37    0.49
   3  -5 -10    0.39    0.24
   3   5 -10    0.68    0.25
   3   5 -10    0.94    0.29
   2  -5 -10   11.76    0.56
   2   5 -10   12.07    0.60
   2   5 -10   11.47    0.57
  -1  -5  10   -0.05    0.22
   1  -5 -10    0.26    0.18
   1   5 -10    0.27    0.21
   1   5 -10   -0.20    0.15
   0  -5  10   24.68    0.86
   0  -5  10   25.07    0.90
   0   5 -10   25.20    0.88
   0   5 -10   25.37    0.74
   1  -5  10   -0.02    0.23
  -1  -5 -10   -0.07    0.19
  -1   5 -10   -0.40    0.15
   2  -5  10    1.73    0.41
   2  -5  10    3.19    0.44
  -2  -5 -10    2.83    0.43
   2   5  10    2.92    0.50
   3  -6 -10    0.45    0.24
   3   6 -10    0.46    0.33
   3   6 -10    0.63    0.26
   2  -6 -10    0.28    0.23
   2   6 -10    1.02    0.29
  -2   6  10    0.43    0.29
   2   6 -10    0.62    0.26
   1  -6 -10    5.87    0.44
  -1  -6  10    5.96    0.47
   1   6 -10    5.94    0.60
  -1   6  10    5.83    0.49
   1   6 -10    5.97    0.41
  -1   6  10    6.57    0.55
   0  -6  10    8.17    0.58
   0  -6  10    9.14    0.57
   0   6 -10    8.98    0.44
   0   6 -10    7.83    0.55
  -1  -6 -10   40.81    1.25
   1  -6  10   41.24    1.45
  -1  -6 -10   39.89    1.00
   1  -6  10   41.32    1.44
  -1   6 -10   38.06    0.94
   2  -6  10    2.37    0.37
   2  -6  10    2.83    0.51
  -2  -6 -10    2.16    0.44
   2   6  10    2.16    0.46
   3  -7 -10    0.14    0.26
   3   7 -10    0.41    0.33
   3   7 -10    1.26    0.41
   2  -7 -10    3.97    0.53
  -2  -7  10    5.59    0.56
   2   7 -10    5.60    0.50
   1  -7 -10    2.22    0.43
  -1  -7  10    1.58    0.31
  -1  -7  10    1.41    0.36
   1   7 -10    1.50    0.37
   0  -7  10   24.13    1.07
   0  -7  10   23.77    0.87
   0  -7 -10   24.00    0.79
   0   7  10   24.54    0.78
   0   7 -10   24.56    0.72
  -1  -7 -10    0.21    0.25
   1  -7  10    0.31    0.34
  -1  -7 -10    0.52    0.22
  -1   7 -10    0.86    0.30
   1   7  10   -0.11    0.31
   2  -7  10   -0.33    0.30
  -2  -7 -10    0.37    0.28
   2  -7  10    0.06    0.41
   2   7  10    0.26    0.39
   2  -8 -10    8.75    0.70
   2  -8 -10    6.79    0.52
  -2  -8  10    6.82    0.63
   2   8 -10    6.08    0.62
   2   8 -10    6.94    0.59
  -1  -8  10    3.46    0.40
  -1  -8  10    4.12    0.53
   1  -8 -10    3.49    0.40
   1  -8 -10    3.59    0.41
   1   8 -10    3.41    0.46
  -1   8  10    3.29    0.48
   1   8 -10    3.95    0.55
   0  -8  10    1.83    0.36
   0  -8 -10    1.73    0.28
   0  -8 -10    1.33    0.27
   0  -8  10    2.23    0.38
   0   8  10    2.29    0.41
   0   8 -10    2.27    0.26
   0   8 -10    3.07    0.47
   0   8  10    2.23    0.31
   1  -8  10    0.67    0.45
  -1  -8 -10    0.42    0.33
  -1  -8 -10    0.34    0.24
   1  -8  10    0.51    0.31
   1   8  10    0.53    0.37
  -1   8 -10    0.43    0.32
   1   8  10    0.30    0.30
  -2  -9  10    3.24    0.47
   2  -9 -10    3.19    0.39
   2  -9 -10    3.16    0.47
   2   9 -10    3.48    0.52
   2   9 -10    3.33    0.43
   1  -9 -10    1.19    0.28
  -1  -9  10    1.03    0.35
   1  -9 -10    0.96    0.31
   1   9 -10    1.17    0.36
   1   9 -10    1.26    0.26
  -1   9  10    0.73    0.35
   0  -9 -10    1.89    0.32
   0  -9  10    2.38    0.41
   0   9  10    3.67    0.61
   0   9 -10    2.96    0.46
   0   9 -10    2.74    0.36
   0   9  10    2.37    0.34
   1  -9  10    2.10    0.42
  -1  -9 -10    4.02    0.51
   1  -9  10    3.19    0.52
  -1   9 -10    3.00    0.50
   1   9  10    4.43    0.72
   1 -10 -10   -0.07    0.31
  -1 -10  10    0.13    0.42
   1  10 -10    0.02    0.26
   1  10 -10    0.24    0.58
  -1  10  10    0.82    0.46
   0 -10 -10    0.23    0.33
   0 -10  10    0.33    0.38
   0 -10 -10   -0.16    0.31
   3   0 -11    0.06    0.22
   2   0 -11   -0.19    0.17
  -2   0  11    0.26    0.25
   1   0 -11    0.18    0.17
  -1   0  11   -0.15    0.27
   0   0  11    0.35    0.29
   0   0 -11    0.00    0.15
  -1   0 -11    0.39    0.19
   2   0  11   -0.36    0.34
  -2   0 -11    0.00    0.19
   3   0  11    0.08    0.55
   3  -1 -11    6.18    0.48
   3   1 -11    6.58    0.52
   3   1 -11    6.46    0.49
  -2  -1  11    5.85    0.41
  -2   1  11    5.71    0.48
   2   1 -11    5.11    0.46
  -1  -1  11  115.14    2.47
   1  -1 -11  108.86    2.50
   1   1 -11  115.50    2.41
  -1   1  11  113.13    2.50
   1   1 -11  109.85    2.42
   0  -1  11    4.06    0.51
   0  -1 -11    4.07    0.35
   0   1  11    3.86    0.53
   0   1 -11    4.65    0.34
  -1  -1 -11    2.67    0.32
  -1   1 -11    2.87    0.32
  -2  -1 -11    0.00    0.20
   2  -1  11   -0.37    0.35
  -2   1 -11    0.11    0.18
   2   1  11   -0.20    0.33
   3  -1  11    1.28    0.97
   3   1  11    3.27    0.85
   3  -2 -11    2.20    0.33
   3   2 -11    2.64    0.33
   3   2 -11    2.51    0.33
   2  -2 -11    0.26    0.18
  -2  -2  11    0.53    0.21
   2   2 -11    0.14    0.18
   2   2 -11    0.10    0.20
  -2   2  11    0.32    0.23
  -1  -2  11    0.05    0.34
  -1   2  11   -0.40    0.23
   1   2 -11    0.12    0.19
   1   2 -11    0.32    0.16
   0  -2 -11    0.25    0.18
   0  -2  11    0.44    0.28
   0   2 -11    0.13    0.16
   0   2  11   -0.11    0.29
  -1  -2 -11    5.49    0.40
   1  -2  11    5.50    0.43
   1   2  11    4.80    0.58
  -1   2 -11    5.89    0.39
   2  -2  11    0.44    0.23
   2  -2  11    0.06    0.35
   2   2  11    0.30    0.36
  -2   2 -11    0.38    0.23
   3  -2  11    2.67    0.78
   3  -3 -11    0.09    0.22
   3   3 -11   -0.14    0.20
   3   3 -11   -0.23    0.25
   2  -3 -11    2.76    0.34
  -2  -3  11    3.84    0.33
   2   3 -11    3.13    0.37
   2   3 -11    4.20    0.38
  -2   3  11    3.85    0.44
  -1  -3  11    3.04    0.37
  -1   3  11    2.97    0.40
   1   3 -11    3.04    0.36
   1   3 -11    3.29    0.33
   0  -3  11    0.08    0.20
   0  -3  11   -0.28    0.24
   0   3 -11    0.09    0.15
   0   3 -11    0.16    0.20
   1  -3  11   19.55    0.74
  -1   3 -11   19.12    0.63
   2  -3  11   18.35    0.96
   2  -3  11   20.09    0.73
  -2  -3 -11   18.91    0.73
  -2   3 -11   19.00    0.59
   2   3  11   18.78    1.00
   3  -4 -11    2.49    0.36
   3   4 -11    3.50    0.46
   3   4 -11    3.02    0.46
   2  -4 -11    0.71    0.27
   2   4 -11    1.35    0.28
   2   4 -11    0.36    0.22
  -1  -4  11    3.14    0.48
   1   4 -11    3.44    0.39
   1   4 -11    3.10    0.35
   0  -4  11    0.17    0.28
   0  -4 -11    0.18    0.19
   0  -4  11    0.32    0.23
   0   4 -11   -0.16    0.15
   0   4 -11    0.29    0.21
  -1  -4 -11    1.96    0.28
   1  -4  11    1.49    0.39
   1  -4  11    1.77    0.31
   2  -4  11    0.54    0.27
   2  -4  11    0.57    0.36
  -2  -4 -11    0.26    0.30
   2   4  11   -0.45    0.38
   3  -5 -11    1.09    0.28
   3   5 -11    1.02    0.38
   3   5 -11    1.63    0.33
   2  -5 -11    2.93    0.39
   2   5 -11    2.31    0.33
  -2   5  11    2.88    0.40
   2   5 -11    2.90    0.38
   1  -5 -11    9.01    0.53
  -1  -5  11    8.35    0.57
  -1  -5  11    8.79    0.59
  -1   5  11    9.17    0.62
   1   5 -11    8.79    0.55
   0  -5 -11    1.59    0.26
   0  -5  11    1.86    0.35
   0  -5  11    1.35    0.29
   0   5 -11    1.93    0.31
   0   5 -11    2.01    0.24
   0   5  11    1.54    0.38
   1  -5  11   11.18    0.74
   1  -5  11   11.71    0.66
  -1  -5 -11   12.81    0.93
   1   5  11   14.02    0.86
  -1   5 -11   12.58    0.50
   2  -5  11   26.73    1.17
   2  -5  11   27.14    0.98
  -2  -5 -11   27.10    0.96
   2   5  11   26.71    1.21
   3  -6 -11    0.63    0.27
   3   6 -11    0.85    0.35
   2  -6 -11    1.48    0.25
  -2   6  11    1.77    0.43
   2   6 -11    1.87    0.32
   1  -6 -11    6.30    0.50
  -1  -6  11    6.30    0.57
  -1  -6  11    5.95    0.54
  -1   6  11    6.40    0.70
   1   6 -11    6.54    0.53
   0  -6 -11    0.18    0.22
   0  -6  11    0.21    0.29
   0   6  11    0.16    0.39
   0   6 -11   -0.12    0.18
  -1  -6 -11   27.38    0.82
  -1  -6 -11   25.56    0.91
   1  -6  11   25.69    1.07
   1  -6  11   25.50    1.03
   1   6  11   26.38    1.13
  -1   6 -11   25.51    0.71
   2  -6  11    0.74    0.33
  -2  -6 -11    0.76    0.30
   2  -6  11    0.80    0.43
   2   6  11    0.47    0.47
   2  -7 -11    4.72    0.46
  -2   7  11    5.18    0.63
   2   7 -11    4.88    0.56
   2   7 -11    4.58    0.52
  -1  -7  11    0.84    0.27
   1  -7 -11    0.68    0.25
  -1   7  11    1.08    0.34
   1   7 -11    0.80    0.23
   1   7 -11    0.75    0.27
   0  -7  11    3.17    0.48
   0  -7  11    3.76    0.51
   0  -7 -11    3.58    0.42
   0   7 -11    3.66    0.39
   0   7 -11    4.37    0.52
   0   7  11    4.15    0.39
   0   7  11    4.41    0.59
   1  -7  11   -0.12    0.25
  -1  -7 -11    0.43    0.25
   1  -7  11    0.27    0.38
  -1   7 -11   -0.21    0.28
   1   7  11    0.29    0.34
  -2  -8  11    0.69    0.36
   2  -8 -11    0.04    0.26
   2  -8 -11    0.53    0.33
   2   8 -11    0.06    0.33
   2   8 -11   -0.50    0.28
  -1  -8  11   -0.06    0.27
   1  -8 -11    0.42    0.30
   1  -8 -11    0.25    0.24
   1   8 -11    0.32    0.24
   1   8 -11    0.01    0.30
  -1   8  11    0.20    0.36
   0  -8  11    0.11    0.26
   0  -8 -11    0.11    0.22
   0   8  11    1.01    0.35
   0   8 -11    0.17    0.26
   0   8 -11    0.11    0.32
   0   8  11   -0.17    0.25
  -1  -8 -11    9.96    0.64
   1  -8  11    9.26    0.87
  -1   8 -11    9.83    0.79
   1   8  11   10.95    0.97
   1   8  11    8.91    0.86
   1  -9 -11    9.89    0.65
   1  -9 -11   11.29    0.75
   1   9 -11    9.58    0.63
   1   9 -11   10.18    0.91
  -1   9  11   11.31    1.11
   0  -9  11    0.96    0.39
   0  -9  11    1.08    0.39
   0  -9 -11    1.12    0.32
   0  -9 -11    0.56    0.31
   0   9 -11    1.02    0.26
   0   9 -11    1.51    0.49
   0   9  11    1.17    0.52
   3   0 -12    1.88    0.33
  -2   0  12   14.23    0.64
   2   0 -12   14.29    0.91
   1   0 -12    3.66    0.43
  -1   0  12    4.55    0.50
   0   0  12  107.67    2.55
   0   0 -12  107.44    2.43
  -1   0 -12    0.21    0.19
   1   0  12    0.13    0.35
  -2   0 -12    0.90    0.23
   2   0  12    0.92    0.44
   3  -1 -12    0.35    0.25
   3   1 -12    0.46    0.25
  -2  -1  12    0.49    0.28
   2  -1 -12    0.23    0.24
   2   1 -12    0.47    0.26
   2   1 -12    0.95    0.25
  -2   1  12    0.81    0.26
   1  -1 -12   -0.11    0.17
  -1  -1  12   -0.16    0.26
  -1   1  12   -0.02    0.26
   0  -1  12   -0.43    0.28
   0   1 -12    0.11    0.18
   1  -1  12    0.43    0.36
  -1   1 -12    0.54    0.21
   1   1  12    1.12    0.40
   2  -1  12    3.25    0.53
  -2   1 -12    2.21    0.27
   2   1  12    2.55    0.51
   3  -2 -12    3.54    0.48
   3   2 -12    4.03    0.44
   3   2 -12    4.24    0.50
   2  -2 -12    3.03    0.36
  -2  -2  12    3.83    0.39
   2   2 -12    3.29    0.36
   2   2 -12    3.09    0.42
  -2   2  12    3.46    0.45
   1  -2 -12    0.35    0.20
  -1  -2  12    0.34    0.28
  -1   2  12    0.11    0.29
   1   2 -12    0.28    0.21
   0  -2 -12   31.11    1.23
   0  -2  12   33.42    1.10
   0   2 -12   33.23    0.93
   1  -2  12    0.12    0.35
  -1  -2 -12    0.21    0.28
  -1   2 -12    0.09    0.18
   2  -2  12    4.08    0.58
  -2  -2 -12    4.22    0.45
  -2   2 -12    3.62    0.37
   2   2  12    3.55    0.55
   3  -3 -12    1.18    0.30
   3   3 -12    1.51    0.32
   2  -3 -12    3.53    0.42
   2   3 -12    3.45    0.39
   2   3 -12    3.12    0.43
   1  -3 -12   -0.02    0.19
  -1  -3  12    0.06    0.34
   1   3 -12    0.09    0.21
   0  -3  12   -0.07    0.30
   0  -3 -12    0.08    0.20
   0   3 -12    0.19    0.19
   0   3  12    0.05    0.33
   1  -3  12    1.17    0.41
  -1  -3 -12    1.36    0.27
   1  -3  12    1.50    0.27
  -1   3 -12    1.20    0.22
   1   3  12    0.87    0.41
  -2  -3 -12    1.93    0.32
   2  -3  12    2.08    0.32
   2  -3  12    2.49    0.55
   2   3  12    1.51    0.46
   3  -4 -12    6.80    0.59
   3   4 -12    8.03    0.59
   3   4 -12    7.92    0.68
   2  -4 -12    1.68    0.31
   2   4 -12    1.80    0.31
  -2   4  12    3.16    0.48
   2   4 -12    2.22    0.32
   1  -4 -12    7.87    0.66
  -1  -4  12    7.28    0.58
  -1   4  12    7.91    0.62
   1   4 -12    8.83    0.61
   1   4 -12    8.05    0.53
   0  -4  12    3.98    0.46
   0  -4  12    2.98    0.49
   0  -4 -12    3.54    0.43
   0   4  12    2.67    0.45
   0   4 -12    3.26    0.42
   0   4 -12    2.68    0.33
   1  -4  12    0.96    0.46
   1  -4  12    0.42    0.25
  -1  -4 -12    1.42    0.31
  -1   4 -12    0.85    0.20
   1   4  12    0.28    0.37
   2  -4  12    5.79    0.79
  -2  -4 -12    5.77    0.53
   2  -4  12    6.95    0.59
   2   4  12    5.98    0.86
   2  -5 -12    0.42    0.25
   2   5 -12    1.16    0.32
   2   5 -12    1.08    0.29
   1  -5 -12    2.74    0.33
  -1  -5  12    2.77    0.40
  -1   5  12    3.03    0.70
   1   5 -12    2.29    0.36
   1   5 -12    2.70    0.32
   0  -5 -12    1.85    0.31
   0  -5  12    1.24    0.35
   0   5 -12    2.19    0.28
   0   5 -12    1.45    0.50
   0   5  12    2.31    0.47
  -1  -5 -12    0.18    0.22
   1  -5  12    0.36    0.41
   1  -5  12    0.68    0.26
   1   5  12    0.52    0.38
  -1   5 -12    0.30    0.21
   2  -5  12    6.60    0.83
  -2  -5 -12    5.87    0.58
   2   5  12    6.63    1.18
   2  -6 -12    3.49    0.46
  -2   6  12    3.64    0.57
   2   6 -12    2.87    0.42
   2   6 -12    2.41    0.38
  -1  -6  12    0.21    0.31
  -1  -6  12    0.04    0.24
   1  -6 -12    0.01    0.21
   1   6 -12    0.50    0.44
  -1   6  12   -0.40    0.29
   1   6 -12    0.05    0.22
   0  -6  12    2.53    0.36
   0  -6 -12    3.39    0.43
   0   6  12    2.98    0.49
   0   6 -12    2.40    0.38
   0   6 -12    2.40    0.29
   1  -6  12    0.33    0.28
   1  -6  12    0.54    0.39
  -1  -6 -12    0.69    0.28
   1   6  12    1.52    0.45
   2  -7 -12    6.06    0.59
  -2   7  12    7.67    0.72
   2   7 -12    6.38    0.64
   2   7 -12    6.56    0.61
   1  -7 -12    0.35    0.26
  -1  -7  12    0.57    0.26
   1   7 -12    0.25    0.38
   1   7 -12    0.22    0.31
  -1   7  12    0.16    0.34
   0  -7 -12    0.37    0.25
   0  -7  12    0.09    0.28
   0  -7  12   -0.40    0.38
   0   7 -12    0.22    0.30
   0   7 -12    0.00    0.22
   0   7  12    0.71    0.36
   0   7  12    0.66    0.26
   1  -7  12    0.13    0.54
  -1  -7 -12    1.06    0.33
   1  -7  12    0.98    0.34
   1   7  12    1.03    0.48
   1  -8 -12   10.25    0.72
  -1  -8  12    7.85    1.10
   1  -8 -12    7.27    0.62
   1   8 -12    8.31    0.60
   1   8 -12    9.30    0.77
  -1   8  12    9.35    0.82
   0  -8 -12    5.47    0.60
   0  -8  12    4.83    0.64
   0  -8  12    4.47    0.63
   0  -8 -12    4.91    0.62
   0   8  12    4.74    0.65
   0   8  12    4.69    0.71
   0   8 -12    5.56    0.69
   3   0 -13    0.14    0.34
  -2   0  13    0.60    0.25
   2   0 -13    0.19    0.21
   1   0 -13    0.01    0.22
  -1   0  13    0.20    0.29
   0   0 -13    0.19    0.22
   0   0  13    0.10    0.33
   1   0  13   -0.52    0.35
  -1   0 -13    0.33    0.28
   2   0  13   -0.39    0.43
  -2   0 -13   -0.09    0.23
   3  -1 -13    0.75    0.41
   3   1 -13    0.48    0.48
  -2  -1  13    3.71    0.45
   2  -1 -13    3.34    0.38
  -2   1  13    3.52    0.44
   2   1 -13    3.36    0.42
  -1  -1  13    8.60    0.62
   1  -1 -13    8.04    0.84
   1   1 -13    8.69    0.52
   0  -1  13   -0.01    0.37
   0  -1 -13    0.01    0.21
   0   1  13    0.15    0.35
   0   1 -13    0.33    0.21
   1  -1  13   34.44    1.29
  -1  -1 -13   36.14    1.04
   1   1  13   34.68    1.31
  -2  -1 -13    0.42    0.26
   2  -1  13    0.33    0.47
   2   1  13    0.47    0.47
   3   2 -13    2.12    0.46
   2  -2 -13    1.73    0.30
   2   2 -13    2.01    0.31
   2   2 -13    2.74    0.39
  -1  -2  13    0.31    0.30
   1  -2 -13    0.03    0.23
  -1   2  13    0.73    0.38
   1   2 -13    0.52    0.24
   0  -2 -13    0.03    0.22
   0   2  13    0.28    0.35
   1  -2  13    0.17    0.39
  -1  -2 -13    0.01    0.31
   1   2  13    0.23    0.39
  -1   2 -13   -0.23    0.19
   2  -2  13    1.13    0.56
  -2  -2 -13    1.34    0.35
   2   2  13    2.83    0.92
   2  -3 -13   11.91    0.64
   2   3 -13   11.84    0.61
  -2   3  13   12.38    0.69
   2   3 -13   12.34    0.65
   1  -3 -13    0.12    0.21
  -1  -3  13    0.10    0.28
   1   3 -13    0.31    0.23
   1   3 -13    0.28    0.22
  -1   3  13    0.23    0.32
   0  -3 -13    3.77    0.45
   0   3  13    3.79    0.63
   1  -3  13    1.05    0.45
  -1  -3 -13    0.97    0.29
   1   3  13    1.36    0.47
  -1   3 -13    0.93    0.23
  -2  -3 -13    0.95    0.32
   2   3  13    1.08    0.59
   2  -4 -13    0.61    0.25
   2   4 -13    0.89    0.28
   2   4 -13    0.97    0.29
  -1  -4  13    2.09    0.36
   1  -4 -13    1.88    0.31
   1   4 -13    1.89    0.36
   1   4 -13    2.99    0.45
  -1   4  13    2.96    0.72
   0  -4 -13    0.38    0.24
   0  -4  13    0.78    0.45
   0   4  13    0.61    0.37
  -1  -4 -13    0.46    0.27
   1  -4  13   -0.59    0.38
   1  -4  13    0.17    0.28
  -1   4 -13   -0.23    0.20
   1   4  13    0.01    0.38
   2  -5 -13    8.68    0.62
  -2   5  13    9.58    0.72
   2   5 -13    8.65    0.65
   2   5 -13    8.02    0.61
  -1  -5  13    5.41    0.54
   1  -5 -13    5.57    0.51
   1   5 -13    5.88    0.77
   1   5 -13    6.05    0.63
  -1   5  13    5.71    0.66
   0  -5  13    0.89    0.36
   0  -5 -13    1.11    0.27
   0  -5  13    1.59    0.30
   0   5 -13    1.86    0.34
   0   5  13    1.71    0.41
   1  -5  13    1.69    0.51
   1  -5  13    2.39    0.37
  -1  -5 -13    2.69    0.38
   1   5  13    3.23    0.57
  -1   5 -13    2.37    0.36
   1  -6 -13    0.46    0.26
   1   6 -13   -0.01    0.26
   1   6 -13   -0.20    0.29
  -1   6  13    0.45    0.37
   0  -6  13    0.64    0.41
   0  -6 -13    0.71    0.29
   0  -6  13    1.52    0.33
   0   6 -13    1.58    0.38
   0   6  13    0.96    0.41
  -1  -6 -13    0.03    0.31
   1  -6  13    0.36    0.44
   1  -6  13    0.64    0.30
   1   6  13    0.53    0.78
   1  -7 -13    1.53    0.56
  -1  -7  13    0.94    0.63
  -1   7  13    1.12    0.43
   1   7 -13    0.22    0.27
   0  -7  13    3.53    0.56
   0  -7  13    3.60    0.47
   0   7 -13    4.20    0.58
   0   7  13    5.17    0.62
   0   7 -13    3.15    0.48
   2   0 -14    0.00    0.25
  -2   0  14    0.81    0.31
  -1   0  14    2.10    0.47
   1   0 -14    1.84    0.32
   0   0 -14    5.30    0.56
   0   0  14    5.70    0.90
   1   0  14   -0.01    0.41
  -1   0 -14   -0.71    0.35
  -2  -1  14    0.76    0.28
   2  -1 -14    1.00    0.29
   1  -1 -14    0.69    0.25
   1   1 -14    0.15    0.25
  -1   1  14    0.91    0.35
   0  -1  14    0.10    0.47
   0  -1 -14    0.44    0.26
   0   1 -14   -0.18    0.30
   0   1  14   -0.05    0.37
  -1  -1 -14   -0.13    0.27
   1  -1  14    0.38    0.42
  -1   1 -14    0.35    0.25
   1   1  14    0.14    0.43
   2  -2 -14    0.48    0.28
   2   2 -14    0.23    0.42
  -2   2  14    1.27    0.33
   2   2 -14    0.98    0.29
  -1  -2  14    6.06    0.66
   1  -2 -14    6.80    0.54
  -1   2  14    8.36    1.01
   1   2 -14    6.81    0.54
   0  -2 -14    0.65    0.28
   0  -2  14    0.05    0.68
   0   2 -14    0.19    0.24
   0   2  14    0.55    0.40
   1  -2  14    0.23    0.44
  -1  -2 -14    0.33    0.28
   1   2  14    0.51    0.45
  -1   2 -14    0.64    0.25
   2  -3 -14    1.13    0.34
   2   3 -14    0.65    0.32
   2   3 -14    0.44    0.30
   1  -3 -14    1.40    0.31
  -1  -3  14    1.41    0.36
  -1   3  14    1.49    0.42
   1   3 -14    0.61    0.28
   0  -3  14   -0.21    0.38
   0  -3 -14   -0.01    0.26
   0   3  14    0.46    0.40
   0   3 -14   -0.17    0.23
  -1  -3 -14   -0.23    0.27
   1  -3  14   -0.40    0.44
   1   3  14    0.29    0.46
   2  -4 -14    2.18    0.41
  -2   4  14    2.56    0.44
   2   4 -14    1.69    0.36
   2   4 -14    2.15    0.40
  -1  -4  14   13.19    0.74
   1  -4 -14   14.75    0.73
   1   4 -14   13.68    0.81
  -1   4  14   14.10    0.84
   1   4 -14   13.60    0.68
   0  -4 -14    4.25    0.51
   0  -4  14    4.30    0.66
   0   4 -14    3.84    0.45
   0   4  14    4.28    0.60
   1  -4  14    0.86    0.48
  -1  -4 -14    0.92    0.32
   1   4  14    0.50    0.86
   1  -5 -14   -0.09    0.31
  -1  -5  14   -0.27    0.33
   1   5 -14    0.31    0.27
   1   5 -14    0.20    0.31
  -1   5  14    0.36    0.36
   0  -5 -14    0.21    0.29
   0   5  14    0.80    0.43
   0   5 -14    0.51    0.26
   1   0 -15   -0.43    0.26
   0   0 -15   -0.17    0.26
   0   0  15   -0.10    0.41
   1  -1 -15    0.19    0.28
  -1  -1  15    0.46    0.37
  -1   1  15    0.79    0.41
   1   1 -15   -0.26    0.26
   0  -1 -15    1.76    0.36
   0  -1  15    1.55    0.48
   0   1 -15    2.86    0.38
   0   1  15    2.60    0.53
   1  -2 -15    0.01    0.29
  -1  -2  15   -0.46    0.36
  -1   2  15    1.35    0.47
   1   2 -15   -0.62    0.26
   0  -2 -15    0.46    0.30
   0  -2  15    0.12    0.66
   0   2 -15   -0.21    0.26
   0   2  15   -0.07    0.42
  -1  -3  15    1.66    0.41
   1   3 -15    1.65    0.33
  -1   3  15    2.10    0.46
   0  -3 -15    8.10    0.67
   0  -3  15    6.23    0.78
   0   3  15    8.21    0.88
   0   3 -15    8.60    0.59
   0   0   0    0.00    0.00
;
_shelx_hkl_checksum              68226
_shelx_res_file
;
TITL L66 in P2(1)/c
    L66.res
    created by SHELXL-2016/6 at 04:52:59 on 12-Jan-2017
CELL  0.71073    3.8091   10.2616   11.9768    90.000    96.165    90.000
ZERR        2    0.0003    0.0009    0.0011     0.000     0.003     0.000
LATT 1
SYMM             - X ,    0.50000 + Y ,    0.50000 - Z
SFAC C  H  N
UNIT 20  16  12
L.S. 4
ACTA
BOND $H
FMAP 2
PLAN 5
HTAB C1 N3_$2
EQIV $2 -x+1, -y+1, -z+1
SIZE 0.20 0.20 0.20
MPLA N1 N2 N3 C1 C2
MPLA C3 C4 C5
CONF
TEMP    25
WGHT    0.056700    0.133700
FVAR       0.54449
N1    3    0.801736    0.481175    0.218422    11.00000    0.03970    0.02776 =
         0.02571   -0.00034    0.00822   -0.00063
N2    3    0.769108    0.588594    0.283299    11.00000    0.07286    0.03190 =
         0.03426   -0.00431    0.02282   -0.00053
N3    3    0.628763    0.407181    0.375059    11.00000    0.06515    0.04122 =
         0.03458    0.00291    0.01992   -0.00315
C1    1    0.665376    0.537597    0.374911    11.00000    0.06908    0.04010 =
         0.03443   -0.00174    0.02239    0.00046
AFIX  43
H1    2    0.620016    0.588563    0.435947    11.00000   -1.20000
AFIX   0
C2    1    0.716027    0.375574    0.275430    11.00000    0.06227    0.03072 =
         0.03415    0.00242    0.01527   -0.00376
AFIX  43
H2    2    0.718064    0.290825    0.247992    11.00000   -1.20000
AFIX   0
C3    1    0.903758    0.491290    0.107666    11.00000    0.03086    0.03017 =
         0.02391   -0.00035    0.00451   -0.00179
C4    1    0.886891    0.610440    0.053061    11.00000    0.04386    0.02598 =
         0.03062   -0.00252    0.00994    0.00253
AFIX  43
H4    2    0.811019    0.684228    0.088642    11.00000   -1.20000
AFIX   0
C5    1    1.016297    0.381034    0.054810    11.00000    0.04715    0.02613 =
         0.03013    0.00387    0.00954    0.00350
AFIX  43
H5    2    1.026722    0.301276    0.091893    11.00000   -1.20000
AFIX   0
HKLF 4
REM  L66 in P2(1)/c
REM R1 =  0.0431 for     875 Fo > 4sig(Fo)  and  0.0542 for all    1057 data
REM     73 parameters refined using      0 restraints
END
WGHT      0.0559      0.1355
REM Highest difference peak  0.232,  deepest hole -0.169,  1-sigma level  0.037
Q1    1   0.8245  0.4831  0.1601  11.00000  0.05    0.23
Q2    1   0.8713  0.4376  0.0704  11.00000  0.05    0.23
Q3    1   0.8209  0.5414  0.0684  11.00000  0.05    0.21
Q4    1   1.0465  0.3944  0.0039  11.00000  0.05    0.20
Q5    1   1.0470  0.4504  0.0944  11.00000  0.05    0.20
;
_shelx_res_checksum              86630
loop_
_space_group_symop_operation_xyz
'x, y, z'
'-x, y+1/2, -z+1/2'
'-x, -y, -z'
'x, -y-1/2, z-1/2'
loop_
_atom_site_type_symbol
_atom_site_label
_atom_site_fract_x
_atom_site_fract_y
_atom_site_fract_z
_atom_site_U_iso_or_equiv
_atom_site_adp_type
_atom_site_calc_flag
_atom_site_occupancy
N N1 0.8017(3) 0.48118(10) 0.21842(9) 0.0307(3) Uani d 1
N N2 0.7691(4) 0.58859(12) 0.28330(10) 0.0451(4) Uani d 1
N N3 0.6288(4) 0.40718(13) 0.37506(11) 0.0459(4) Uani d 1
C C1 0.6654(5) 0.53760(15) 0.37491(13) 0.0467(4) Uani d 1
H H1 0.620016 0.588563 0.435947 0.056 Uiso calc 1
C C2 0.7160(4) 0.37557(14) 0.27543(12) 0.0417(4) Uani d 1
H H2 0.718064 0.290825 0.247992 0.050 Uiso calc 1
C C3 0.9038(3) 0.49129(12) 0.10767(11) 0.0282(3) Uani d 1
C C4 0.8869(4) 0.61044(13) 0.05306(11) 0.0331(3) Uani d 1
H H4 0.811019 0.684228 0.088642 0.040 Uiso calc 1
C C5 1.0163(4) 0.38103(13) 0.05481(11) 0.0341(4) Uani d 1
H H5 1.026722 0.301276 0.091893 0.041 Uiso calc 1
loop_
_atom_site_aniso_label
_atom_site_aniso_U_11
_atom_site_aniso_U_22
_atom_site_aniso_U_33
_atom_site_aniso_U_12
_atom_site_aniso_U_13
_atom_site_aniso_U_23
N1 0.0397(7) 0.0278(6) 0.0257(6) -0.0006(5) 0.0082(5) -0.0003(4)
N2 0.0729(9) 0.0319(7) 0.0343(7) -0.0005(6) 0.0228(6) -0.0043(5)
N3 0.0651(9) 0.0412(7) 0.0346(7) -0.0032(6) 0.0199(6) 0.0029(5)
C1 0.0691(11) 0.0401(8) 0.0344(8) 0.0005(7) 0.0224(7) -0.0017(6)
C2 0.0623(10) 0.0307(7) 0.0342(7) -0.0038(7) 0.0153(7) 0.0024(6)
C3 0.0309(7) 0.0302(7) 0.0239(6) -0.0018(5) 0.0045(5) -0.0004(5)
C4 0.0439(8) 0.0260(7) 0.0306(7) 0.0025(5) 0.0099(6) -0.0025(5)
C5 0.0471(8) 0.0261(6) 0.0301(7) 0.0035(6) 0.0095(6) 0.0039(5)
loop_
_atom_type_symbol
_atom_type_description
_atom_type_scat_dispersion_real
_atom_type_scat_dispersion_imag
_atom_type_scat_source
C C 0.0033 0.0016 'International Tables Vol C Tables 4.2.6.8 and 6.1.1.4'
H H 0.0000 0.0000 'International Tables Vol C Tables 4.2.6.8 and 6.1.1.4'
N N 0.0061 0.0033 'International Tables Vol C Tables 4.2.6.8 and 6.1.1.4'
loop_
_geom_angle_atom_site_label_1
_geom_angle_atom_site_label_2
_geom_angle_atom_site_label_3
_geom_angle_site_symmetry_1
_geom_angle
C2 N1 N2 . 108.77(11)
C2 N1 C3 . 129.70(11)
N2 N1 C3 . 121.51(10)
C1 N2 N1 . 102.01(12)
C2 N3 C1 . 102.01(12)
N2 C1 N3 . 115.95(13)
N2 C1 H1 . 122.0
N3 C1 H1 . 122.0
N3 C2 N1 . 111.26(13)
N3 C2 H2 . 124.4
N1 C2 H2 . 124.4
C4 C3 C5 . 120.38(12)
C4 C3 N1 . 120.02(11)
C5 C3 N1 . 119.60(11)
C5 C4 C3 3_765 119.55(12)
C5 C4 H4 3_765 120.2
C3 C4 H4 . 120.2
C4 C5 C3 3_765 120.07(12)
C4 C5 H5 3_765 120.0
C3 C5 H5 . 120.0
loop_
_geom_bond_atom_site_label_1
_geom_bond_atom_site_label_2
_geom_bond_site_symmetry_2
_geom_bond_distance
N1 C2 . 1.3397(17)
N1 N2 . 1.3620(15)
N1 C3 . 1.4255(16)
N2 C1 . 1.3141(19)
N3 C2 . 1.3133(18)
N3 C1 . 1.346(2)
C1 H1 . 0.9300
C2 H2 . 0.9300
C3 C4 . 1.3848(18)
C3 C5 . 1.3867(18)
C4 C5 3_765 1.3839(17)
C4 H4 . 0.9300
C5 H5 . 0.9300
loop_
_geom_hbond_atom_site_label_D
_geom_hbond_atom_site_label_H
_geom_hbond_atom_site_label_A
_geom_hbond_site_symmetry_A
_geom_hbond_distance_DH
_geom_hbond_distance_HA
_geom_hbond_distance_DA
_geom_hbond_angle_DHA
_geom_hbond_publ_flag
C1 H1 N3 3_666 0.93 2.55 3.3563(19) 146 y
C5 H5 N2 2_745 0.93 2.71 3.6184(18) 165 y
loop_
_geom_torsion_atom_site_label_1
_geom_torsion_atom_site_label_2
_geom_torsion_atom_site_label_3
_geom_torsion_atom_site_label_4
_geom_torsion_site_symmetry_4
_geom_torsion
C2 N1 N2 C1 . 0.02(17)
C3 N1 N2 C1 . 178.56(13)
N1 N2 C1 N3 . 0.1(2)
C2 N3 C1 N2 . -0.2(2)
C1 N3 C2 N1 . 0.19(19)
N2 N1 C2 N3 . -0.14(19)
C3 N1 C2 N3 . -178.52(13)
C2 N1 C3 C4 . 162.05(15)
N2 N1 C3 C4 . -16.2(2)
C2 N1 C3 C5 . -17.3(2)
N2 N1 C3 C5 . 164.48(13)
C5 C3 C4 C5 3_765 -0.1(2)
N1 C3 C4 C5 3_765 -179.45(12)
C4 C3 C5 C4 3_765 0.1(2)
N1 C3 C5 C4 3_765 179.46(13)

_cod_database_fobs_code 1545308
