#------------------------------------------------------------------------------
#$Date: 2017-03-17 09:50:55 +0200 (Fri, 17 Mar 2017) $
#$Revision: 194326 $
#$URL: file:///home/coder/svn-repositories/cod/cif/1/54/55/1545587.cif $
#------------------------------------------------------------------------------
#
# This file is available in the Crystallography Open Database (COD),
# http://www.crystallography.net/. The original data for this entry
# were provided by IUCr Journals, http://journals.iucr.org/.
#
# The file may be used within the scientific community so long as
# proper attribution is given to the journal article from which the
# data were obtained.
#
data_1545587
loop_
_publ_author_name
'Li, Rui'
'Duan, Xin-E'
'Cao, Wei'
'Wei, Xue-Hong'
_publ_section_title
;
 A pyridyl-substituted cyclodisilazane [(Apy)~2~(\m-SiMe)~2~] (ApyH~2~ =
 2-aminopyridine)
;
_journal_coeditor_code           SJ4098
_journal_issue                   3
_journal_name_full               IUCrData
_journal_page_first              x170400
_journal_paper_doi               10.1107/S241431461700400X
_journal_volume                  2
_journal_year                    2017
_chemical_formula_iupac          'C14 H20 N4 Si2'
_chemical_formula_moiety         'C14 H20 N4 Si2'
_chemical_formula_sum            'C14 H20 N4 Si2'
_chemical_formula_weight         300.52
_chemical_name_systematic
;
2-[2,2,4,4-Tetramethyl-3-(pyridin-2-yl)-1,3,2,4-diazadisiletidin-1-yl]pyridine
;
_space_group_crystal_system      monoclinic
_space_group_IT_number           14
_space_group_name_Hall           '-P 2yn'
_space_group_name_H-M_alt        'P 1 21/n 1'
_symmetry_space_group_name_Hall  '-P 2yn'
_symmetry_space_group_name_H-M   'P 1 21/n 1'
_atom_sites_solution_hydrogens   geom
_audit_creation_method           SHELXL-2014/7
_cell_angle_alpha                90
_cell_angle_beta                 109.6730(10)
_cell_angle_gamma                90
_cell_formula_units_Z            2
_cell_length_a                   9.8504(4)
_cell_length_b                   8.5234(4)
_cell_length_c                   10.3120(4)
_cell_measurement_reflns_used    5990
_cell_measurement_temperature    200(2)
_cell_measurement_theta_max      28.321
_cell_measurement_theta_min      3.246
_cell_volume                     815.25(6)
_computing_cell_refinement
;
SAINT (Bruker, 2012)
;
_computing_data_collection
;
APEX2 (Bruker, 2012)
;
_computing_data_reduction
;
SAINT (Bruker, 2012)
;
_computing_molecular_graphics
;
SHELXTL (Sheldrick, 2008)
;
_computing_publication_material
;
SHELXTL (Sheldrick, 2008)
;
_computing_structure_refinement
;
<i>SHELXL2014/7</i> (Sheldrick, 2015b)
;
_computing_structure_solution
;
SHELXT (Sheldrick, 2015a)
;
_diffrn_ambient_temperature      200(2)
_diffrn_measured_fraction_theta_full 0.981
_diffrn_measured_fraction_theta_max 0.982
_diffrn_measurement_device_type  'Bruker SMART APEX CCD area detector'
_diffrn_measurement_method       '\f and \w scans'
_diffrn_radiation_type           MoK\a
_diffrn_radiation_wavelength     0.71073
_diffrn_reflns_av_R_equivalents  0.0207
_diffrn_reflns_limit_h_max       13
_diffrn_reflns_limit_h_min       -12
_diffrn_reflns_limit_k_max       11
_diffrn_reflns_limit_k_min       -11
_diffrn_reflns_limit_l_max       10
_diffrn_reflns_limit_l_min       -13
_diffrn_reflns_number            7684
_diffrn_reflns_theta_full        25.242
_diffrn_reflns_theta_max         28.320
_diffrn_reflns_theta_min         4.249
_exptl_absorpt_coefficient_mu    0.214
_exptl_absorpt_correction_T_max  0.9585
_exptl_absorpt_correction_T_min  0.9386
_exptl_absorpt_correction_type   multi-scan
_exptl_absorpt_process_details
;
(<i>SADABS</i>; Bruker, 2012)
;
_exptl_crystal_colour            colorless
_exptl_crystal_density_diffrn    1.224
_exptl_crystal_density_method    'not measured'
_exptl_crystal_description       block
_exptl_crystal_F_000             320
_exptl_crystal_size_max          0.300
_exptl_crystal_size_mid          0.300
_exptl_crystal_size_min          0.200
_refine_diff_density_max         0.289
_refine_diff_density_min         -0.232
_refine_ls_extinction_method     none
_refine_ls_goodness_of_fit_ref   0.990
_refine_ls_hydrogen_treatment    constr
_refine_ls_matrix_type           full
_refine_ls_number_parameters     93
_refine_ls_number_reflns         1999
_refine_ls_number_restraints     0
_refine_ls_restrained_S_all      0.990
_refine_ls_R_factor_all          0.0350
_refine_ls_R_factor_gt           0.0321
_refine_ls_shift/su_max          0.001
_refine_ls_shift/su_mean         0.000
_refine_ls_structure_factor_coef Fsqd
_refine_ls_weighting_details
'w=1/[\s^2^(Fo^2^)+(0.0448P)^2^+0.3604P] where P=(Fo^2^+2Fc^2^)/3'
_refine_ls_weighting_scheme      calc
_refine_ls_wR_factor_gt          0.0867
_refine_ls_wR_factor_ref         0.0893
_reflns_number_gt                1850
_reflns_number_total             1999
_reflns_threshold_expression     'I > 2\s(I)'
_cod_data_source_file            sj4098sup1.cif
_cod_data_source_block           I
_cod_database_code               1545587
_shelx_space_group_comment
;
The symmetry employed for this shelxl refinement is uniquely defined
by the following loop, which should always be used as a source of
symmetry information in preference to the above space-group names.
They are only intended as comments.
;
_shelx_estimated_absorpt_t_min   0.939
_shelx_estimated_absorpt_t_max   0.958
_shelx_hkl_file
;
  -2   0   0  440.79    9.23
   3   0   0    0.16    0.08
  -3   0   0    0.31    0.10
   3   0   0    0.14    0.10
  -3   0   0    0.14    0.05
  -3   0   0    0.22    0.08
   4   0   0  829.04   17.37
  -5   0   0    0.05    0.08
  -5   0   0   -0.06    0.10
   5   0   0   -0.06    0.14
  -6   0   0  258.83    5.28
   6   0   0  249.24    5.53
  -6   0   0  240.71    5.41
   7   0   0   -0.12    0.20
  -7   0   0   -0.12    0.13
  -8   0   0    0.19    0.17
  -9   0   0    0.30    0.18
  11   0   0   -0.56    0.30
 -12   0   0   26.20    1.07
  12   0   0   26.18    1.86
  -3  -1   0   24.12    0.65
   3  -1   0   24.87    0.69
   3  -1   0   25.08    0.61
  -3  -1   0   24.50    0.72
   3  -1   0   24.69    0.68
   3  -1   0   25.96    0.62
   3   1   0   24.03    0.69
  -3   1   0   24.75    0.62
  -3   1   0   26.43    0.61
   3   1   0   25.97    0.66
   4  -1   0   95.67    2.10
   4  -1   0   96.70    2.14
  -4  -1   0   94.93    2.18
  -4   1   0  102.73    2.11
   4   1   0   94.85    2.22
  -4   1   0   93.99    2.14
   5  -1   0  343.02    7.46
  -5  -1   0  331.09    7.38
   5   1   0  349.28    7.46
  -5   1   0  367.39    7.30
  -5   1   0  340.71    7.35
  -6  -1   0   47.58    1.08
  -6  -1   0   45.67    1.23
   6  -1   0   46.60    1.33
   6   1   0   47.71    1.33
  -6   1   0   47.98    1.13
  -6   1   0   44.99    1.19
  -7  -1   0   93.39    2.04
   7  -1   0   91.26    2.34
  -7  -1   0   93.47    2.24
   7   1   0   92.45    2.35
  -7   1   0   92.67    2.28
  -8  -1   0  119.93    2.62
  -8  -1   0  120.11    2.85
  -8   1   0  119.91    2.81
   8   1   0  121.09    2.99
  -9  -1   0  145.47    3.40
   9   1   0  135.44    3.51
  -9   1   0  147.13    3.33
 -10  -1   0    4.18    0.49
  10  -1   0    3.88    0.84
 -11  -1   0   15.87    0.82
  11  -1   0   15.12    0.94
 -11   1   0   16.15    0.76
  11   1   0   15.31    0.96
  12  -1   0    4.24    0.80
 -12  -1   0    3.81    0.46
  12   1   0    3.77    0.64
 -12   1   0    4.94    0.61
   0  -2   0  226.49    4.92
   0  -2   0  234.79    4.92
   0   2   0  243.16    4.92
   0   2   0  229.17    4.92
  -1  -2   0  266.54    5.50
  -1  -2   0  262.91    5.48
   1  -2   0  276.64    5.50
  -1  -2   0  262.25    5.48
  -1  -2   0  255.03    5.48
   1  -2   0  255.10    5.49
   1   2   0  264.02    5.48
   1   2   0  268.17    5.50
   1   2   0  243.68    5.49
  -1   2   0  262.06    5.49
   1   2   0  249.87    5.48
  -2  -2   0    1.23    0.11
  -2  -2   0    1.18    0.19
   2  -2   0    1.36    0.18
   2  -2   0    1.31    0.14
  -2  -2   0    1.42    0.14
   2   2   0    1.23    0.16
  -2   2   0    1.14    0.16
   2   2   0    1.54    0.11
  -2   2   0    1.29    0.15
   2   2   0    1.34    0.20
  -2   2   0    1.44    0.11
   2   2   0    1.26    0.16
   3  -2   0   14.63    0.44
  -3  -2   0   16.01    0.58
  -3  -2   0   14.62    0.40
  -3  -2   0   14.41    0.46
   3  -2   0   15.50    0.41
   3   2   0   14.39    0.50
  -3   2   0   15.40    0.41
  -3   2   0   14.76    0.44
  -3   2   0   14.43    0.47
   3   2   0   14.52    0.45
   4  -2   0   77.53    1.86
  -4  -2   0   76.60    1.82
  -4  -2   0   77.79    1.72
   4  -2   0   80.01    1.75
   4  -2   0   78.99    1.77
   4   2   0   75.97    1.86
  -4   2   0   77.90    1.75
  -4   2   0   80.23    1.77
  -5  -2   0   23.85    0.74
  -5  -2   0   25.02    0.62
   5  -2   0   24.66    0.67
   5  -2   0   24.02    0.79
   5   2   0   24.60    0.81
  -5   2   0   24.25    0.67
   6  -2   0   69.06    1.58
  -6  -2   0   68.17    1.52
  -6   2   0   66.76    1.61
   6   2   0   65.75    1.91
   7  -2   0  442.83    9.53
  -7  -2   0  427.67    9.19
  -7  -2   0  444.55    9.43
   7   2   0  448.88    9.54
  -7   2   0  429.76    9.33
  -8  -2   0    2.22    0.38
  -8  -2   0    2.19    0.25
  -8  -2   0    2.33    0.23
   8   2   0    1.77    0.32
  -8   2   0    2.11    0.28
  -9  -2   0   12.67    0.44
   9   2   0   12.35    0.90
  -9   2   0   13.29    0.60
 -10  -2   0   21.78    0.96
  10  -2   0   20.90    1.04
  10   2   0   21.42    1.20
 -10   2   0   19.79    0.79
 -11  -2   0   44.96    1.49
  11  -2   0   42.61    1.60
 -11   2   0   42.98    1.33
  11   2   0   42.80    1.61
  12  -2   0   -0.18    0.38
 -12  -2   0    0.41    0.36
 -12   2   0    0.16    0.29
  12   2   0    0.02    0.36
   0  -3   0    0.14    0.12
   0   3   0    0.14    0.10
   0   3   0    0.07    0.08
   1  -3   0   12.57    0.43
  -1  -3   0   13.05    0.41
  -1  -3   0   12.28    0.41
   1  -3   0   12.08    0.40
  -1  -3   0   12.70    0.39
   1   3   0   12.35    0.44
   1   3   0   12.01    0.38
  -1   3   0   11.73    0.45
   1   3   0   12.38    0.38
   2  -3   0  195.13    4.37
  -2  -3   0  211.24    4.39
  -2  -3   0  203.29    4.37
  -2  -3   0  224.84    4.44
  -2  -3   0  196.66    4.34
  -2   3   0  198.48    4.29
  -2   3   0  193.85    4.38
   2   3   0  208.77    4.34
   2   3   0  202.84    4.36
   2   3   0  199.73    4.38
  -3  -3   0    1.87    0.16
  -3  -3   0    2.06    0.21
   3  -3   0    1.82    0.21
   3  -3   0    2.00    0.24
  -3   3   0    1.99    0.15
   3   3   0    1.73    0.17
   3   3   0    2.13    0.26
  -3   3   0    1.86    0.22
   3   3   0    1.85    0.22
   4  -3   0  118.35    2.67
  -4  -3   0  118.97    2.61
  -4  -3   0  118.60    2.71
   4  -3   0  124.33    2.60
   4  -3   0  120.68    2.75
   4   3   0  120.64    2.75
  -4   3   0  117.79    2.60
  -4   3   0  120.99    2.72
   4   3   0  115.43    2.67
   5  -3   0    3.65    0.36
   5  -3   0    3.68    0.29
  -5  -3   0    4.25    0.23
  -5  -3   0    3.71    0.34
  -5   3   0    4.16    0.25
   5   3   0    3.30    0.31
   5   3   0    3.88    0.39
  -6  -3   0   16.47    0.65
   6  -3   0   17.28    0.59
  -6  -3   0   17.26    0.51
   6  -3   0   17.99    0.74
   6   3   0   17.34    0.76
  -6   3   0   16.43    0.55
  -7  -3   0   11.34    0.58
   7  -3   0   12.25    0.50
   7  -3   0   11.57    0.64
  -7  -3   0   11.60    0.41
  -7   3   0   11.05    0.48
   7   3   0   11.15    0.67
  -8  -3   0   51.73    1.48
  -8  -3   0   53.03    1.22
   8  -3   0   45.96    1.54
   8   3   0   53.69    1.57
   9  -3   0   31.42    1.21
  -9  -3   0   32.90    1.11
  -9  -3   0   31.61    0.90
  -9   3   0   32.77    0.99
   9   3   0   30.57    1.20
  10  -3   0   18.38    1.00
 -10  -3   0   19.73    0.89
 -10   3   0   19.29    0.76
  10   3   0   18.91    0.98
  11  -3   0    8.13    0.86
 -11  -3   0   10.08    0.74
 -11   3   0    9.54    0.70
  11   3   0    9.65    0.84
  -1  -4   0  112.05    2.50
   1  -4   0  112.70    2.51
  -1   4   0  109.70    2.51
   1   4   0  111.07    2.50
   2  -4   0   36.56    0.96
  -2  -4   0   35.99    0.93
   2   4   0   36.03    0.95
   2   4   0   35.86    0.96
  -2   4   0   35.17    0.96
  -3  -4   0    5.44    0.32
  -3  -4   0    5.37    0.28
   3  -4   0    5.46    0.33
   3   4   0    5.27    0.35
  -3   4   0    5.08    0.33
  -3   4   0    5.49    0.24
   3   4   0    5.99    0.35
  -4  -4   0   18.59    0.76
   4  -4   0   18.75    0.62
  -4  -4   0   18.56    0.56
   4  -4   0   17.83    0.66
   4   4   0   17.76    0.67
  -4   4   0   18.15    0.52
   4   4   0   18.34    0.63
   5  -4   0    2.13    0.31
  -5  -4   0    1.93    0.26
  -5  -4   0    2.41    0.23
   5   4   0    2.28    0.42
   5   4   0    2.72    0.35
  -5   4   0    2.08    0.22
  -5   4   0    2.31    0.35
  -6  -4   0   84.80    2.11
   6  -4   0   86.37    2.19
  -6  -4   0   83.06    1.94
   6  -4   0   86.66    2.05
   6   4   0   85.73    2.18
  -6   4   0   84.36    1.96
   6   4   0   85.00    2.08
  -7  -4   0   29.65    0.81
   7  -4   0   31.53    1.09
   7  -4   0   29.26    1.00
   7   4   0   30.68    1.09
  -7   4   0   29.84    0.87
   7   4   0   29.36    0.96
   8  -4   0    0.08    0.16
  -8  -4   0    0.13    0.14
   8   4   0   -0.06    0.24
  -8   4   0    0.03    0.18
   8   4   0    0.11    0.21
  -9  -4   0    1.21    0.19
   9  -4   0    1.39    0.36
  -9  -4   0    1.38    0.40
   9   4   0    1.74    0.36
  10  -4   0   68.88    2.14
 -10  -4   0   69.91    2.00
  10   4   0   70.34    2.12
 -10   4   0   69.96    1.86
  11  -4   0   15.43    1.09
 -11  -4   0   15.91    0.91
  11   4   0   14.97    0.84
  11   4   0   15.19    1.01
   0  -5   0   -0.24    0.11
   0   5   0    0.01    0.17
  -1  -5   0  500.82   10.49
   1  -5   0  505.10   10.51
   1   5   0  484.80   10.49
  -1   5   0  490.49   10.50
   2  -5   0    1.84    0.28
  -2  -5   0    2.35    0.27
  -2   5   0    1.64    0.24
   2   5   0    2.31    0.32
   3  -5   0   32.63    0.94
  -3  -5   0   31.01    0.88
   3   5   0   29.89    0.93
  -3   5   0   30.18    0.95
   3   5   0   31.47    0.93
  -3   5   0   32.10    0.79
  -4  -5   0   55.35    1.40
  -4  -5   0   55.77    1.54
   4  -5   0   57.34    1.55
  -4   5   0   56.87    1.50
   4   5   0   58.15    1.48
   4   5   0   55.53    1.51
  -4   5   0   56.97    1.32
  -5  -5   0  342.84    7.41
   5  -5   0  350.25    7.59
   5  -5   0  350.43    7.51
  -5  -5   0  352.12    7.55
  -5   5   0  340.26    7.34
   5   5   0  351.81    7.51
   5   5   0  346.11    7.58
  -5   5   0  344.40    7.55
   6  -5   0    0.08    0.18
  -6  -5   0   -0.09    0.13
   6  -5   0   -0.17    0.16
  -6  -5   0    0.06    0.17
  -6   5   0   -0.20    0.13
   6   5   0    0.21    0.22
   6   5   0   -0.38    0.20
  -7  -5   0   13.18    0.51
   7  -5   0   12.07    0.70
   7  -5   0   12.47    0.58
   7   5   0   13.26    0.62
  -7   5   0   12.57    0.50
   7   5   0   13.04    0.69
   8  -5   0   12.53    0.78
   8  -5   0   13.21    0.59
  -8  -5   0   12.11    0.52
   8   5   0   11.75    0.73
  -8   5   0   12.33    0.55
   9  -5   0   77.70    1.98
   9  -5   0   79.26    2.28
  -9  -5   0   77.73    2.15
  -9   5   0   76.83    1.91
   9   5   0   77.97    2.09
  10  -5   0    1.38    0.41
 -10  -5   0    1.97    0.36
  10   5   0    2.07    0.42
  10   5   0    1.67    0.37
 -11  -5   0   -0.23    0.31
  11  -5   0   -0.35    0.39
  11   5   0   -0.58    0.35
   0  -6   0  238.59    5.18
   0   6   0  224.00    5.19
   1   6   0   36.16    1.15
  -1   6   0   34.12    1.18
  -2  -6   0    0.56    0.20
   2  -6   0    0.68    0.19
  -2   6   0    0.52    0.23
   3  -6   0   72.03    1.81
  -3  -6   0   69.18    1.82
   3   6   0   72.48    1.81
  -3   6   0   72.12    1.63
  -3   6   0   68.72    1.80
   4  -6   0   50.98    1.42
   4  -6   0   51.12    1.46
  -4  -6   0   51.28    1.39
  -4   6   0   50.44    1.43
   4   6   0   52.16    1.52
  -4   6   0   51.30    1.23
   4   6   0   52.92    1.43
  -5  -6   0   33.22    1.13
   5  -6   0   34.46    1.13
   5  -6   0   34.64    1.09
  -5   6   0   34.97    0.90
   5   6   0   35.34    1.08
  -6  -6   0   75.73    2.03
   6  -6   0   80.73    2.12
   6   6   0   80.16    2.02
  -6   6   0   77.29    1.82
   7  -6   0   96.39    2.30
  -7  -6   0   95.46    2.38
  -7  -6   0   87.21    2.48
  -7   6   0   92.11    2.11
   7   6   0   76.12    2.55
   7   6   0   98.92    2.99
   8  -6   0   23.48    0.86
  -8  -6   0   20.78    0.92
   8  -6   0   21.24    1.17
  -8  -6   0   20.15    0.85
   8   6   0   21.14    0.91
   8   6   0   22.29    0.99
  -8   6   0   20.93    0.71
   9  -6   0    1.83    0.45
  -9  -6   0    1.69    0.34
   9  -6   0    1.35    0.25
   9   6   0    1.67    0.44
   9   6   0    2.06    0.41
  -9   6   0    1.97    0.38
  10  -6   0   13.64    0.76
  10  -6   0   12.30    0.98
  10   6   0   13.61    0.90
  10   6   0   13.45    0.82
   0  -7   0    0.00    0.15
   0   7   0   -0.16    0.21
   1  -7   0    2.17    0.35
  -1  -7   0    2.10    0.35
   1   7   0    1.64    0.31
  -1   7   0    2.06    0.31
  -2  -7   0  245.79    5.42
   2  -7   0  247.31    5.58
   2   7   0  241.05    5.43
  -2   7   0  243.65    5.45
  -3  -7   0   11.86    0.59
   3  -7   0   12.72    0.64
  -3   7   0   12.33    0.62
   3   7   0   11.69    0.63
  -3   7   0   12.60    0.46
   4  -7   0   38.26    1.18
  -4  -7   0   38.45    1.12
   4   7   0   37.17    1.17
  -4   7   0   37.80    0.98
   5  -7   0   14.28    0.69
  -5  -7   0   13.93    0.62
   5  -7   0   14.65    0.73
  -5   7   0   13.76    0.50
   5   7   0   13.46    0.70
   5   7   0   13.43    0.69
  -6  -7   0    8.60    0.52
   6  -7   0    7.96    0.57
  -6   7   0    9.67    0.42
   6   7   0    9.71    0.64
   7  -7   0   18.32    0.80
   7  -7   0   16.52    0.88
  -7  -7   0   17.25    0.68
  -7   7   0   17.17    0.60
   7   7   0   17.71    0.86
   7   7   0   17.41    0.82
   8  -7   0    6.81    0.71
  -8  -7   0    7.37    0.49
   8  -7   0    7.02    0.75
   8   7   0    6.11    0.65
   9  -7   0    7.43    0.64
   9  -7   0    8.31    0.85
   9   7   0    6.04    0.68
   9   7   0    9.30    0.75
   0  -8   0    0.37    0.21
   0   8   0    0.00    0.22
  -1  -8   0   44.05    1.31
   1   8   0   43.33    1.30
  -1   8   0   43.47    1.32
  -2  -8   0   14.09    0.68
   2   8   0   14.70    0.70
   3  -8   0    1.02    0.27
  -3  -8   0    1.30    0.24
  -3   8   0    1.68    0.28
   3   8   0    1.97    0.31
   4  -8   0    2.78    0.44
  -4  -8   0    2.94    0.40
  -4   8   0    2.87    0.31
  -4   8   0    2.94    0.45
   5  -8   0    0.11    0.21
  -5  -8   0   -0.03    0.18
   6  -8   0    0.62    0.30
   6  -8   0    1.00    0.31
  -6  -8   0    0.90    0.24
   6   8   0    1.35    0.34
  -6   8   0    0.85    0.30
   7  -8   0   22.67    1.07
   7  -8   0   23.51    0.98
  -7  -8   0   22.12    0.85
   7   8   0   24.21    1.20
   7   8   0   23.73    1.03
   8  -8   0    5.95    0.63
   8  -8   0    7.02    0.77
  -8  -8   0    4.15    0.52
   8   8   0    5.91    0.67
   8   8   0    5.35    0.66
   0  -9   0    0.44    0.23
   0   9   0    0.01    0.26
  -1  -9   0   -0.08    0.21
   1  -9   0   -0.05    0.22
  -1   9   0    0.13    0.25
   1   9   0    0.10    0.25
  -2  -9   0    5.83    0.54
   2   9   0    5.98    0.57
  -2   9   0    6.65    0.58
   3  -9   0   13.42    0.78
  -3  -9   0   14.50    0.73
  -3   9   0   15.07    0.94
  -3   9   0   14.78    0.56
   3   9   0   14.55    0.75
   4  -9   0    6.58    0.61
  -4  -9   0    7.87    0.60
   4   9   0    7.35    0.63
  -4   9   0    7.41    0.64
  -5  -9   0   27.81    1.05
   5  -9   0   29.27    1.33
   5  -9   0   28.11    1.11
   5   9   0   28.32    1.20
  -5   9   0   27.88    1.12
   6  -9   0    0.02    0.27
   6  -9   0    1.08    0.35
  -6  -9   0    0.61    0.27
  -6   9   0    1.03    0.34
   6   9   0    0.55    0.37
   7  -9   0    1.92    0.43
  -7  -9   0    2.51    0.35
   7   9   0    2.45    0.43
   0 -10   0  125.14    3.13
   0  10   0  120.74    3.13
  -1 -10   0    0.49    0.28
   1 -10   0    0.37    0.27
   1  10   0    0.56    0.33
  -1  10   0    0.89    0.32
  -2 -10   0    0.29    0.26
   2 -10   0   -0.14    0.24
  -2  10   0    0.42    0.32
   2  10   0    0.35    0.35
  -3 -10   0    0.41    0.27
   3 -10   0   -0.01    0.24
   3  10   0    0.19    0.32
  -3  10   0    0.46    0.30
  -4 -10   0   24.19    1.09
   4 -10   0   24.36    1.09
   4 -10   0   25.20    1.10
  -4  10   0   25.87    1.11
   4  10   0   24.06    1.06
  -5 -10   0   10.36    0.74
   5 -10   0   11.09    1.08
   5 -10   0   10.45    0.89
   5  10   0    9.93    0.80
   0  11   0    0.27    0.37
  -1 -11   0   30.63    1.35
   1 -11   0   29.87    1.56
  -1  11   0   28.63    1.26
   1  11   0   29.12    1.23
  -2 -11   0   23.11    1.12
   2 -11   0   22.88    1.09
   2  11   0   22.95    1.10
   3 -11   0    8.54    0.80
  -3 -11   0   10.42    0.88
  -3  11   0   10.77    0.83
   3  11   0    9.92    0.84
 -12   0   1    0.17    0.28
  12   0  -1    0.30    0.36
 -11   0   1   51.71    1.53
  11   0  -1   52.37    1.76
 -10   0   1   -0.05    0.21
  10   0  -1    0.37    0.28
   9   0  -1   39.19    1.33
  -9   0   1   39.01    1.15
   8   0  -1    0.61    0.25
  -8   0   1    0.34    0.19
  -7   0   1    0.99    0.17
   7   0  -1    0.81    0.26
  -7   0   1    1.02    0.20
  -6   0   1    0.03    0.07
  -6   0   1    0.01    0.12
   6   0  -1   -0.14    0.15
  -5   0   1  407.41    8.29
  -5   0   1  392.59    8.41
   5   0  -1  393.92    8.50
   4   0  -1    0.26    0.10
  -4   0   1    0.20    0.05
  -4   0   1    0.12    0.08
   4   0  -1    0.20    0.11
  -3   0   1  702.90   14.67
   2   0  -1    0.19    0.06
  -2   0   1    0.26    0.05
  -2   0   1    0.34    0.06
   2   0  -1    0.21    0.05
  -2   0  -1    1.64    0.18
  -3   0  -1  140.40    3.00
   3   0   1  134.46    3.09
  -3   0  -1  136.36    3.05
  -3   0  -1  151.39    3.19
   3   0   1  139.36    3.05
  -4   0  -1   -0.09    0.09
  -4   0  -1    0.06    0.08
   4   0   1    0.10    0.12
  -5   0  -1  403.86    8.67
   5   0   1  406.18    8.76
  -5   0  -1  414.23    8.58
  -6   0  -1    0.01    0.16
  -7   0  -1   36.61    1.07
   7   0   1   36.78    1.20
  -8   0  -1    0.26    0.18
  10   0   1   -0.21    0.29
 -10   0  -1    0.22    0.24
 -11   0  -1    1.26    0.33
  11   0   1    0.97    0.38
 -12   0  -1    0.11    0.32
  12   0   1   -0.11    0.37
  12  -1  -1   13.93    1.01
 -12  -1   1   12.61    0.78
  12   1  -1   11.60    0.95
 -12   1   1   12.82    0.75
  11  -1  -1   22.71    1.12
  11   1  -1   22.58    1.12
 -11   1   1   23.12    0.95
  10  -1  -1  102.15    3.03
 -10   1   1  120.56    2.79
  10   1  -1  122.44    3.04
  -9  -1   1   29.17    1.08
  -9   1   1   29.18    0.92
   9   1  -1   27.86    1.10
   8  -1  -1   47.73    1.50
  -8  -1   1   47.32    1.31
  -8   1   1   46.82    1.14
   8   1  -1   48.31    1.46
   7  -1  -1  136.79    3.24
  -7   1   1  136.52    2.95
  -7   1   1  134.76    3.07
   7   1  -1  138.11    3.24
  -6  -1   1   86.61    2.07
   6  -1  -1   87.81    2.17
  -6   1   1   88.28    2.03
   6   1  -1   89.05    2.17
  -6   1   1   90.48    1.95
  -5  -1   1   58.63    1.44
   5  -1  -1   59.50    1.51
   5  -1  -1   60.68    1.34
   5   1  -1   58.82    1.50
  -5   1   1   63.10    1.34
  -5   1   1   58.95    1.39
   4  -1  -1  432.03    8.77
  -4  -1   1  410.23    8.81
   4  -1  -1  413.42    8.73
   4  -1  -1  415.50    8.87
  -4   1   1  410.98    8.77
   4   1  -1  417.10    8.86
  -4   1   1  429.16    8.73
   3  -1  -1  135.58    2.93
  -3  -1   1  137.89    3.00
  -3  -1   1  133.08    2.98
   3  -1  -1  142.50    2.96
   3   1  -1  138.53    3.01
  -3   1   1  142.18    2.93
   3   1  -1  139.67    2.99
  -3   1   1  136.64    2.93
   2  -1  -1  233.68    5.03
  -2  -1   1  251.24    5.06
   2  -1  -1  243.24    5.01
   2  -1  -1  239.17    5.06
  -2  -1   1  224.65    5.06
  -2   1   1  246.82    5.03
   2   1  -1  240.22    5.06
   2   1  -1  243.64    5.06
   1  -1   1  180.27    3.89
   1  -1   1  187.55    3.89
   1  -1   1  177.28    3.89
  -1  -1  -1  184.40    3.92
   1  -1   1  192.16    3.89
   1   1   1  181.67    3.92
   1   1   1  183.39    3.86
  -1   1  -1  186.61    3.89
  -1   1  -1  188.73    3.89
  -1   1  -1  179.88    3.89
  -1   1  -1  185.65    3.89
   2  -1   1    0.29    0.09
  -2  -1  -1    0.10    0.11
   2  -1   1   -0.02    0.08
   2  -1   1    0.22    0.07
   2  -1   1    0.04    0.07
  -2  -1  -1    0.05    0.08
   2   1   1    0.03    0.10
  -2   1  -1    0.21    0.07
   2   1   1    0.08    0.08
  -2   1  -1    0.21    0.08
  -2   1  -1    0.12    0.07
   3  -1   1   46.25    1.07
   3  -1   1   44.19    1.08
  -3  -1  -1   43.48    1.10
   3  -1   1   47.20    1.09
   3  -1   1   44.62    1.13
  -3   1  -1   49.30    1.22
   3   1   1   46.55    1.16
  -3   1  -1   44.46    1.08
  -3   1  -1   47.13    1.07
  -4  -1  -1  200.60    4.50
   4  -1   1  212.19    4.56
  -4   1  -1  203.63    4.48
   4   1   1  205.62    4.56
  -4   1  -1  217.70    4.45
   5  -1   1    3.47    0.36
  -5  -1  -1    2.82    0.29
   5   1   1    3.25    0.37
  -5   1  -1    3.28    0.27
   6  -1   1   45.51    1.47
   6   1   1   46.51    1.37
  -6   1  -1   46.08    1.22
  -7  -1  -1   84.85    2.09
   7  -1   1   84.01    2.20
   7   1   1   83.85    2.20
  -7   1  -1   84.34    2.06
  -8  -1  -1   -0.21    0.16
  -8   1  -1   -0.20    0.16
  -9   1  -1   31.21    1.03
  10  -1   1   35.29    1.39
 -10  -1  -1   38.71    1.68
 -10   1  -1   38.24    1.22
  10   1   1   36.42    1.41
 -11  -1  -1   24.75    1.05
  11  -1   1   23.45    1.19
  11   1   1   25.37    1.21
 -11   1  -1   24.63    1.01
 -12  -2   1   25.23    1.07
  12   2  -1   25.84    1.37
 -12   2   1   23.28    1.06
  11  -2  -1   15.77    0.96
 -11  -2   1   16.17    0.83
  11   2  -1   16.08    0.95
 -10  -2   1   15.61    0.74
  10   2  -1   16.05    0.89
 -10   2   1   15.70    0.65
  -9  -2   1   17.10    0.84
  -9   2   1   18.45    0.69
   9   2  -1   17.63    0.86
  -8  -2   1    9.31    0.51
  -8   2   1    9.89    0.49
   8   2  -1    9.01    0.62
   7  -2  -1  121.18    2.94
  -7  -2   1  122.04    2.84
   7  -2  -1  122.51    2.68
   7   2  -1  120.17    2.91
  -7   2   1  119.49    2.73
  -6  -2   1   30.50    0.70
   6  -2  -1   30.01    0.78
   6  -2  -1   29.08    0.98
  -6  -2   1   29.87    0.89
   6   2  -1   30.51    0.96
  -6   2   1   30.02    0.80
  -5  -2   1  386.67    8.50
   5  -2  -1  404.47    8.43
  -5  -2   1  387.60    8.34
   5  -2  -1  400.67    8.58
   5  -2  -1  415.71    8.41
  -5   2   1  392.76    8.41
   5   2  -1  393.37    8.54
  -5   2   1  418.49    8.42
   4  -2  -1   14.14    0.39
   4  -2  -1   13.47    0.51
   4  -2  -1   13.24    0.41
  -4  -2   1   13.37    0.35
  -4  -2   1   13.26    0.47
  -4   2   1   14.16    0.42
  -4   2   1   13.17    0.38
   4   2  -1   14.06    0.50
  -3  -2   1  427.04    9.23
  -3  -2   1  429.95    9.31
  -3  -2   1  468.94    9.32
   3  -2  -1  442.80    9.28
   3  -2  -1  430.01    9.40
   3   2  -1  432.16    9.31
  -3   2   1  463.77    9.28
   3   2  -1  443.16    9.23
   3   2  -1  447.48    9.32
  -2  -2   1  202.26    4.21
   2  -2  -1  192.38    4.21
  -2  -2   1  193.39    4.18
  -2  -2   1  205.16    4.23
   2   2  -1  194.93    4.23
  -2   2   1  184.97    4.22
   2   2  -1  204.70    4.23
  -2   2   1  211.67    4.22
   2   2  -1  192.90    4.21
   2   2  -1  202.19    4.18
  -1  -2   1  632.52   13.26
   1   2  -1  639.40   13.24
   0  -2  -1   55.85    1.18
   0  -2   1   50.86    1.20
   0  -2   1   53.70    1.21
   0  -2  -1   52.22    1.16
   0   2   1   53.84    1.16
   0   2   1   54.09    1.20
   0   2   1   52.50    1.18
   0   2  -1   50.68    1.21
   0   2  -1   52.78    1.20
  -1  -2  -1   40.24    0.90
  -1  -2  -1   45.14    0.98
  -1  -2  -1   37.32    0.92
  -1  -2  -1   38.62    0.92
   1  -2   1   41.17    0.93
   1  -2   1   38.46    0.94
   1   2   1   40.62    0.92
  -1   2  -1   39.71    0.93
  -1   2  -1   37.50    0.94
   1   2   1   40.76    0.93
   1   2   1   36.35    0.96
   1   2   1   39.08    0.91
   2  -2   1  116.96    2.54
  -2  -2  -1  109.94    2.51
   2  -2   1  118.17    2.51
   2  -2   1  114.56    2.54
  -2  -2  -1  120.34    2.59
  -2  -2  -1  115.91    2.57
   2  -2   1  115.38    2.53
  -2   2  -1  119.24    2.54
   2   2   1  114.33    2.50
  -2   2  -1  113.43    2.51
   2   2   1  119.83    2.55
   2   2   1  113.45    2.58
  -3  -2  -1   57.38    1.37
   3  -2   1   56.66    1.33
   3  -2   1   58.24    1.31
  -3  -2  -1   55.51    1.35
   3  -2   1   56.48    1.37
  -3   2  -1   56.39    1.31
  -3   2  -1   55.34    1.34
   3   2   1   57.77    1.40
   4  -2   1    9.20    0.36
  -4  -2  -1    9.20    0.40
   4   2   1    9.15    0.46
  -4   2  -1    9.01    0.36
   5  -2   1  108.96    2.42
   5  -2   1  107.08    2.53
   5   2   1  107.07    2.56
  -5   2  -1  105.24    2.42
   6  -2   1   98.08    2.40
  -6  -2  -1   97.77    2.33
   6   2   1   97.35    2.42
  -6   2  -1   93.62    2.26
  -7  -2  -1   65.34    1.71
   7  -2   1   64.83    1.80
   7   2   1   64.10    1.82
   8  -2   1   33.15    1.23
  -8  -2  -1   37.06    1.15
  -8  -2  -1   37.77    0.95
  -8   2  -1   36.69    1.08
   9  -2   1   18.44    0.93
  -9  -2  -1   18.39    0.61
  -9  -2  -1   18.95    0.81
  -9   2  -1   18.86    0.75
   9   2   1   17.68    0.93
  10  -2   1   20.44    1.07
 -10  -2  -1   21.88    0.93
  10   2   1   21.75    1.07
 -11  -2  -1    9.26    0.71
  11  -2   1    6.47    0.82
 -11   2  -1    8.08    0.76
  11   2   1    9.72    0.85
  12  -3  -1    0.23    0.39
 -12   3   1   -0.01    0.26
 -11  -3   1   17.33    0.88
  11  -3  -1   16.77    1.00
 -11   3   1   16.05    0.70
  11   3  -1   16.78    0.97
  10  -3  -1   15.84    0.93
  10   3  -1   15.88    1.04
 -10   3   1   14.34    0.62
  -9   3   1   47.91    1.41
   9   3  -1   47.48    1.52
   8  -3  -1   21.34    0.68
  -8  -3   1   20.96    0.80
  -8  -3   1   21.30    0.55
   8   3  -1   21.20    0.97
  -8   3   1   21.11    0.70
   7  -3  -1   59.80    1.66
  -7  -3   1   59.05    1.33
  -7  -3   1   59.24    1.58
   7  -3  -1   58.54    1.45
   7   3  -1   60.43    1.65
  -7   3   1   58.76    1.43
   6  -3  -1    0.59    0.14
  -6  -3   1    0.44    0.19
  -6  -3   1    0.60    0.10
   6  -3  -1    0.62    0.21
   6   3  -1    0.63    0.24
  -6   3   1    0.89    0.14
  -5  -3   1   37.99    1.05
  -5  -3   1   38.20    0.91
   5  -3  -1   37.72    0.99
   5  -3  -1   39.42    0.93
   5  -3  -1   37.41    1.10
   5   3  -1   37.86    1.04
   5   3  -1   38.07    1.08
  -5   3   1   38.81    0.92
   4  -3  -1    5.04    0.34
   4  -3  -1    5.26    0.28
   4  -3  -1    5.77    0.27
  -4  -3   1    5.21    0.31
  -4  -3   1    5.50    0.24
  -4   3   1    5.51    0.32
   4   3  -1    5.56    0.23
  -4   3   1    5.54    0.24
   4   3  -1    5.42    0.35
   3  -3  -1  274.69    5.82
  -3  -3   1  291.81    5.85
  -3  -3   1  265.36    5.76
  -3   3   1  258.07    5.84
   3   3  -1  269.70    5.83
   3   3  -1  275.42    5.84
   3   3  -1  282.93    5.77
  -3   3   1  266.31    5.70
   2  -3  -1    1.87    0.18
  -2  -3   1    2.22    0.24
  -2  -3   1    1.85    0.16
  -2   3   1    1.82    0.19
   2   3  -1    1.85    0.16
   2   3  -1    1.62    0.18
   2   3  -1    1.77    0.22
  -2   3   1    1.80    0.10
  -1  -3   1  277.54    5.69
  -1  -3   1  258.25    5.57
   1  -3  -1  261.51    5.61
  -1  -3   1  262.19    5.59
   1  -3  -1  264.54    5.59
  -1   3   1  261.05    5.51
   1   3  -1  264.25    5.59
  -1   3   1  249.67    5.59
  -1   3   1  274.69    5.68
   0  -3   1   45.98    1.12
   0  -3  -1   46.20    1.13
   0  -3  -1   46.58    1.07
   0  -3  -1   47.46    1.11
   0   3  -1   47.89    1.14
   0   3   1   48.30    1.07
   0   3  -1   47.71    1.13
   0   3   1   49.13    1.11
   1  -3   1    1.28    0.18
  -1  -3  -1    1.15    0.14
  -1  -3  -1    1.36    0.16
  -1   3  -1    1.10    0.16
   1   3   1    1.09    0.18
   1   3   1    1.30    0.16
   1   3   1    1.28    0.17
  -2  -3  -1   13.99    0.43
  -2  -3  -1   13.52    0.44
   2  -3   1   13.47    0.45
   2  -3   1   13.43    0.45
  -2  -3  -1   14.16    0.43
  -2   3  -1   13.18    0.46
   2   3   1   13.47    0.49
   2   3   1   13.70    0.43
  -2   3  -1   13.62    0.43
  -3  -3  -1  132.63    2.99
   3  -3   1  137.73    2.98
  -3  -3  -1  134.07    2.94
   3  -3   1  132.98    3.00
   3   3   1  136.79    2.95
  -3   3  -1  129.90    2.99
  -3   3  -1  136.25    2.93
   3   3   1  134.63    3.03
   4  -3   1    0.50    0.13
  -4  -3  -1    0.57    0.15
   4  -3   1    0.59    0.16
  -4  -3  -1    0.46    0.11
  -4   3  -1    0.78    0.17
   4   3   1    0.78    0.20
  -4   3  -1    0.81    0.13
   5  -3   1   29.83    0.85
   5  -3   1   29.92    0.95
  -5  -3  -1   29.53    0.79
  -5   3  -1   29.60    0.82
   5   3   1   27.84    0.99
   5   3   1   29.82    0.86
  -6  -3  -1    6.34    0.43
   6  -3   1    6.34    0.38
   6  -3   1    6.50    0.50
  -6  -3  -1    5.66    0.32
   6   3   1    5.21    0.54
  -6   3  -1    6.30    0.38
  -7  -3  -1  255.29    5.41
   7  -3   1  257.43    5.70
   7   3   1  256.35    5.71
  -7   3  -1  237.86    5.60
  -8  -3  -1   44.15    1.12
   8   3   1   43.37    1.44
  -8   3  -1   44.33    1.23
  -9  -3  -1    4.81    0.52
  -9  -3  -1    5.06    0.36
   9  -3   1    4.79    0.62
   9   3   1    4.07    0.62
  -9   3  -1    5.27    0.46
  10  -3   1    9.42    0.81
 -10  -3  -1    9.58    0.69
  10   3   1   10.39    0.80
  11  -3   1   39.05    1.65
 -11  -3  -1   40.97    1.45
  11   3   1   41.12    1.63
 -11  -4   1   29.73    1.19
  11  -4  -1   31.03    1.36
  11   4  -1   30.01    1.18
  11   4  -1   30.53    1.55
 -11   4   1   30.04    0.96
 -10  -4   1    1.39    0.33
  10  -4  -1    1.50    0.37
 -10   4   1    2.47    0.38
  10   4  -1    1.82    0.40
  -9  -4   1   34.99    1.17
   9  -4  -1   34.84    1.02
   9  -4  -1   34.44    1.27
  -9   4   1   34.11    0.99
   9   4  -1   33.03    1.22
   9   4  -1   31.90    1.26
  -8  -4   1   22.32    0.61
   8  -4  -1   21.00    0.90
   8   4  -1   21.40    0.83
   8   4  -1   22.62    0.92
  -8   4   1   22.53    0.70
   7  -4  -1   70.10    1.91
   7  -4  -1   69.94    1.72
  -7  -4   1   69.02    1.59
  -7   4   1   68.46    1.62
   7   4  -1   68.37    1.79
   7   4  -1   69.03    1.87
   6  -4  -1    7.35    0.42
   6  -4  -1    8.04    0.52
  -6  -4   1    8.22    0.34
  -6  -4   1    7.12    0.45
  -6   4   1    7.81    0.32
   6   4  -1    7.78    0.49
   5  -4  -1  295.00    6.27
  -5  -4   1  275.37    6.44
  -5  -4   1  295.76    6.23
   5   4  -1  297.61    6.35
   5   4  -1  294.45    6.31
  -5   4   1  286.32    6.13
   4  -4  -1    1.04    0.16
  -4  -4   1    1.44    0.19
   4   4  -1    1.21    0.21
  -4   4   1    1.67    0.14
  -4   4   1    1.65    0.27
   4   4  -1    1.28    0.21
  -3  -4   1  105.94    2.34
   3  -4  -1  104.23    2.39
   3   4  -1  105.64    2.41
  -3   4   1  106.86    2.24
  -3   4   1  103.10    2.40
   3   4  -1  103.53    2.38
  -2  -4   1   70.38    1.64
   2  -4  -1   69.36    1.67
  -2  -4   1   73.54    1.67
   2   4  -1   71.02    1.69
  -2   4   1   69.93    1.67
   1  -4  -1   62.98    1.53
  -1  -4   1   67.20    1.50
  -1  -4   1   63.08    1.52
   1   4  -1   64.00    1.54
  -1   4   1   66.18    1.43
  -1   4   1   62.31    1.52
   0  -4  -1  196.07    4.31
   0  -4   1  200.88    4.30
   0   4   1  193.21    4.27
   0   4   1  205.50    4.22
   0   4  -1  194.47    4.30
  -1  -4  -1   27.45    0.76
  -1  -4  -1   27.32    0.72
   1  -4   1   26.92    0.77
   1   4   1   27.42    0.75
  -1   4  -1   26.90    0.78
  -2  -4  -1   85.59    1.96
  -2  -4  -1   85.67    1.96
   2  -4   1   85.63    1.99
   2   4   1   85.92    1.95
  -2   4  -1   84.47    1.90
   2   4   1   83.17    2.01
  -2   4  -1   84.59    2.00
  -3  -4  -1    1.93    0.25
  -3  -4  -1    2.15    0.22
   3  -4   1    1.81    0.26
   3  -4   1    2.19    0.27
   3   4   1    2.32    0.30
   3   4   1    1.89    0.31
  -3   4  -1    2.21    0.29
  -3   4  -1    1.79    0.26
  -4  -4  -1  153.40    3.44
   4  -4   1  156.68    3.54
   4  -4   1  157.88    3.50
  -4  -4  -1  155.72    3.52
   4   4   1  159.29    3.47
  -4   4  -1  154.88    3.53
   4   4   1  154.37    3.58
  -4   4  -1  158.61    3.42
   5  -4   1  131.73    3.00
  -5  -4  -1  132.16    3.04
  -5  -4  -1  130.34    2.92
   5   4   1  129.97    3.10
  -5   4  -1  128.53    2.91
  -5   4  -1  130.70    3.04
   5   4   1  132.37    3.04
   6  -4   1   68.98    1.83
   6  -4   1   69.69    1.72
  -6  -4  -1   67.06    1.62
  -6  -4  -1   66.30    1.78
   6   4   1   69.24    1.87
  -6   4  -1   66.65    1.65
   6   4   1   66.20    1.74
  -7  -4  -1    9.22    0.44
   7  -4   1    9.38    0.60
   7  -4   1   10.19    0.50
   7   4   1    8.93    0.51
  -7   4  -1    8.47    0.48
   7   4   1    9.99    0.65
  -8  -4  -1    0.50    0.18
   8   4   1    0.13    0.26
   8   4   1    0.37    0.23
  -8   4  -1    0.73    0.21
  -9  -4  -1   44.66    1.43
  -9  -4  -1   44.45    1.17
   9   4   1   45.59    1.64
  -9   4  -1   43.33    1.26
  10  -4   1   16.33    1.01
 -10  -4  -1   16.86    0.87
  10   4   1   18.06    1.00
 -11  -4  -1    5.35    0.71
  11  -4   1    5.95    1.11
  11   4   1    6.15    0.87
  11   4   1    5.76    0.96
 -11   4  -1    7.16    0.61
  11   5  -1    1.59    0.43
  11   5  -1    1.42    0.42
  10  -5  -1   51.85    1.77
  10  -5  -1   51.74    1.43
  10   5  -1   50.81    1.61
 -10   5   1   52.83    1.56
  10   5  -1   52.28    1.73
   9  -5  -1    2.18    0.35
  -9  -5   1    2.03    0.35
   9  -5  -1    2.10    0.46
   9   5  -1    1.96    0.35
  -9   5   1    2.64    0.36
   9   5  -1    2.11    0.39
   8  -5  -1    2.72    0.51
   8  -5  -1    3.79    0.38
  -8  -5   1    2.86    0.31
  -8   5   1    2.76    0.31
   8   5  -1    2.87    0.48
   7  -5  -1   13.88    0.60
   7  -5  -1   13.19    0.71
  -7  -5   1   14.19    0.50
  -7   5   1   13.39    0.47
   7   5  -1   13.11    0.65
   7   5  -1   14.19    0.96
   6  -5  -1   28.88    1.02
  -6  -5   1   28.35    0.81
   6  -5  -1   30.15    0.93
   6   5  -1   29.70    0.97
  -6   5   1   28.78    0.75
  -5  -5   1   13.10    0.50
   5  -5  -1   12.35    0.68
   5  -5  -1   12.93    0.63
  -5   5   1   14.06    0.61
  -5   5   1   13.38    0.41
   5   5  -1   13.93    0.66
   5   5  -1   14.49    0.63
   4  -5  -1  286.15    6.19
  -4  -5   1  286.75    6.08
  -4   5   1  287.28    5.95
  -4   5   1  286.52    6.18
   4   5  -1  280.25    6.15
   4   5  -1  269.96    6.56
  -3  -5   1    5.97    0.34
   3  -5  -1    6.08    0.40
  -3   5   1    6.22    0.24
   3   5  -1    6.25    0.43
   3   5  -1    6.04    0.38
  -3   5   1    5.96    0.40
  -2  -5   1   25.74    0.76
   2  -5  -1   25.30    0.78
  -2   5   1   23.56    0.77
   2   5  -1   25.69    0.80
  -2   5   1   26.65    0.64
  -1  -5   1   84.01    2.02
   1   5  -1   86.45    2.04
  -1   5   1   87.87    1.90
  -1   5   1   84.18    2.01
   0  -5  -1  632.55   13.28
   0  -5   1  646.72   13.28
   0   5   1  619.89   13.24
   0   5  -1  618.73   13.28
   1  -5   1  153.81    3.45
  -1  -5  -1  155.01    3.43
  -1   5  -1  151.49    3.45
   1   5   1  154.98    3.42
  -2  -5  -1   -0.04    0.11
   2  -5   1    0.06    0.15
  -2  -5  -1   -0.02    0.12
  -2   5  -1   -0.23    0.18
   2   5   1   -0.06    0.15
   3  -5   1    3.27    0.35
  -3  -5  -1    3.63    0.34
  -3  -5  -1    4.06    0.31
   3   5   1    3.98    0.36
   3   5   1    4.17    0.42
  -3   5  -1    3.90    0.26
  -3   5  -1    3.91    0.46
   4  -5   1  370.90    8.02
   4  -5   1  378.96    8.00
  -4  -5  -1  360.88    7.92
  -4  -5  -1  371.25    7.99
  -4   5  -1  365.20    7.86
   4   5   1  378.44    7.96
   4   5   1  371.99    8.06
  -4   5  -1  367.77    8.00
  -5  -5  -1   49.77    1.41
  -5  -5  -1   50.39    1.33
   5  -5   1   53.54    1.48
   5  -5   1   51.98    1.41
  -5   5  -1   51.28    1.29
   5   5   1   51.39    1.75
   5   5   1   50.55    1.48
  -5   5  -1   52.43    1.45
  -6  -5  -1   18.15    0.65
  -6  -5  -1   18.06    0.74
   6  -5   1   18.70    0.80
   6   5   1   18.51    0.72
  -6   5  -1   18.44    0.68
   6   5   1   18.81    0.83
   7  -5   1    0.10    0.18
   7  -5   1    0.07    0.23
  -7  -5  -1    0.54    0.19
  -7  -5  -1    0.40    0.21
   7   5   1    0.27    0.25
   7   5   1    0.50    0.23
  -7   5  -1    0.63    0.22
  -8  -5  -1   71.16    1.75
   8  -5   1   72.50    1.86
   8  -5   1   71.46    2.05
   8   5   1   68.39    2.03
   9  -5   1    5.77    0.72
  -9  -5  -1    4.36    0.45
  -9  -5  -1    5.40    0.58
   9   5   1    4.88    0.53
  -9   5  -1    5.00    0.43
   9   5   1    4.82    0.65
  10  -5   1   23.54    1.18
 -10  -5  -1   21.36    1.01
  10   5   1   23.86    1.00
  10   5   1   21.01    1.12
  10  -6  -1    1.30    0.43
  10   6  -1    1.74    0.41
  10   6  -1    1.18    0.40
   9  -6  -1   22.42    0.86
   9  -6  -1   23.23    1.09
   9   6  -1   22.73    0.99
   8  -6  -1    6.95    0.49
   8  -6  -1    6.86    0.64
  -8  -6   1    6.29    0.43
   8   6  -1    6.82    0.61
   8   6  -1    7.18    0.59
  -8   6   1    7.34    0.39
   7  -6  -1   33.21    1.06
  -7  -6   1   33.28    0.95
   7   6  -1   33.22    1.15
  -7   6   1   32.57    0.86
   6  -6  -1   19.82    0.84
  -6  -6   1   19.85    0.69
   6   6  -1   20.02    0.81
   6   6  -1   19.21    0.80
  -6   6   1   20.06    0.56
   5  -6  -1  373.80    8.16
   5  -6  -1  385.04    8.08
  -5  -6   1  369.08    7.96
  -5   6   1  364.91    8.09
  -5   6   1  364.45    7.80
   5   6  -1  375.10    8.08
   5   6  -1  369.99    8.07
  -4  -6   1   21.68    0.75
   4  -6  -1   22.33    0.80
  -4   6   1   21.89    0.80
   4   6  -1   22.02    0.82
  -4   6   1   22.43    0.58
   4   6  -1   22.75    0.83
   3  -6  -1   10.04    0.54
  -3  -6   1   11.65    0.58
  -3   6   1   11.15    0.36
  -3   6   1   10.26    0.54
   3   6  -1   11.03    0.59
  -3   6   1   11.69    0.39
   2  -6  -1   52.97    1.41
  -2  -6   1   51.15    1.39
  -2   6   1   53.32    1.22
  -2   6   1   50.23    1.43
   2   6  -1   52.48    1.42
   1  -6  -1  491.42   10.35
  -1   6   1  488.67   10.34
   1   6  -1  473.55   10.37
   0  -6   1    3.37    0.38
   0  -6  -1    3.79    0.37
   0   6   1    3.29    0.40
   0   6  -1    2.91    0.42
   1  -6   1   62.57    1.63
  -1  -6  -1   63.40    1.65
  -1   6  -1   64.61    1.65
   1   6   1   63.68    1.61
   2  -6   1   94.00    2.28
  -2  -6  -1   93.54    2.27
   2   6   1   94.95    2.24
  -2   6  -1   90.87    2.27
   3  -6   1   10.92    0.55
   3  -6   1   11.10    0.58
  -3  -6  -1   11.23    0.54
  -3   6  -1   10.74    0.43
  -3   6  -1   10.83    0.56
   4  -6   1   15.21    0.70
   4  -6   1   16.67    0.69
  -4  -6  -1   16.33    0.66
  -4  -6  -1   16.60    0.66
   4   6   1   16.59    0.70
  -4   6  -1   15.94    0.56
   4   6   1   15.75    0.73
  -4   6  -1   15.45    0.75
  -5  -6  -1  270.65    5.94
  -5  -6  -1  268.72    5.85
   5  -6   1  266.47    5.94
   5  -6   1  264.21    5.97
   5   6   1  268.94    5.89
   5   6   1  265.37    6.00
  -5   6  -1  267.79    5.76
  -6  -6  -1    3.94    0.44
   6  -6   1    2.87    0.44
   6  -6   1    5.01    0.52
  -6  -6  -1    3.78    0.40
   6   6   1    3.58    0.42
  -6   6  -1    3.61    0.35
   6   6   1    4.60    0.51
  -6   6  -1    3.86    0.46
  -7  -6  -1    0.42    0.24
   7  -6   1    0.18    0.21
   7   6   1    0.81    0.29
  -7   6  -1    0.37    0.34
   7   6   1    0.39    0.24
  -8  -6  -1    5.52    0.57
   8  -6   1    6.08    0.51
  -8  -6  -1    6.59    0.46
   8   6   1    4.76    0.56
   8   6   1    4.98    0.63
  -8   6  -1    6.26    0.45
  -9  -6  -1   61.36    1.83
   9  -6   1   60.24    1.94
   9  -6   1   60.98    1.75
   9   6   1   59.28    1.91
  -9   6  -1   58.14    1.56
 -10  -6  -1   -0.17    0.32
  10  -6   1   -0.22    0.63
  10   6   1   -0.26    0.35
  10  -7  -1   24.57    1.28
  10  -7  -1   21.79    0.98
  10   7  -1   22.11    1.06
  10   7  -1   22.79    1.12
   9  -7  -1   36.06    1.43
   9   7  -1   35.68    1.32
   9   7  -1   32.87    1.28
   8  -7  -1    0.89    0.36
  -8  -7   1    0.60    0.22
   8  -7  -1    0.39    0.22
   8   7  -1    0.36    0.26
   7  -7  -1   21.33    0.85
   7  -7  -1   20.60    0.95
  -7  -7   1   20.37    0.75
   7   7  -1   21.16    0.90
   7   7  -1   20.01    0.89
   6  -7  -1  107.07    2.87
  -6  -7   1  109.75    2.54
   6   7  -1  108.68    2.67
  -6   7   1  101.54    2.73
  -6   7   1  105.92    2.33
  -5  -7   1    9.77    0.54
   5  -7  -1    9.64    0.60
   5  -7  -1   10.07    0.63
   5   7  -1   10.49    0.61
  -5   7   1   10.37    0.36
   4  -7  -1   26.63    0.92
  -4  -7   1   25.74    0.86
   4   7  -1   25.73    0.94
  -4   7   1   25.98    0.68
  -4   7   1   26.01    0.93
  -3  -7   1  177.58    3.98
   3  -7  -1  173.76    4.03
  -3   7   1  186.88    3.80
   3   7  -1  172.52    4.02
  -3   7   1  168.36    4.00
  -3   7   1  171.56    3.76
   2  -7  -1  132.17    3.13
  -2  -7   1  128.04    3.03
   2   7  -1  130.30    3.08
  -2   7   1  128.35    3.05
   1  -7  -1   24.58    0.86
  -1  -7   1   25.65    0.86
   1   7  -1   23.80    0.88
  -1   7   1   23.59    0.85
   0  -7   1   22.05    0.78
   0  -7  -1   21.37    0.78
   0   7   1   20.56    0.79
   0   7  -1   21.27    0.82
  -1  -7  -1  120.62    2.84
   1  -7   1  120.45    2.86
  -1   7  -1  118.68    2.86
   1   7   1  118.53    2.81
  -2  -7  -1    0.27    0.16
   2   7   1    0.23    0.24
  -2   7  -1    0.34    0.22
  -3  -7  -1  191.11    4.30
   3  -7   1  190.81    4.36
  -3   7  -1  188.57    4.16
   3   7   1  190.67    4.30
   4  -7   1    0.20    0.20
  -4  -7  -1    0.48    0.19
   4  -7   1    0.62    0.20
   4   7   1    0.04    0.22
  -4   7  -1    0.76    0.18
   5  -7   1   43.80    1.36
   5  -7   1   44.13    1.34
  -5  -7  -1   42.95    1.26
  -5   7  -1   43.83    1.16
   5   7   1   45.55    1.50
   5   7   1   43.65    1.70
   6  -7   1   56.31    1.58
  -6  -7  -1   55.96    1.49
   6   7   1   47.80    1.61
  -6   7  -1   53.90    1.81
  -6   7  -1   55.62    1.39
   7  -7   1   77.24    2.07
  -7  -7  -1   75.24    1.94
   7  -7   1   75.78    2.17
  -7  -7  -1   76.98    2.10
   7   7   1   75.40    2.07
  -8  -7  -1    1.02    0.32
   8  -7   1    0.99    0.37
   8  -7   1    0.85    0.28
  -8  -7  -1    1.49    0.27
   8   7   1    1.24    0.35
   9  -7   1    0.13    0.37
  -9  -7  -1    0.62    0.57
   9  -7   1   -0.51    0.26
   9   7   1    0.12    0.32
   9   7   1    0.18    0.33
   9  -8  -1    0.07    0.29
   9   8  -1    0.46    0.38
   9   8  -1    0.25    0.33
  -8  -8   1   35.37    1.09
   8  -8  -1   35.47    1.25
   8  -8  -1   37.83    1.46
   8   8  -1   35.89    1.34
   8   8  -1   37.23    1.32
   7  -8  -1    0.02    0.24
   7  -8  -1   -0.22    0.29
  -7  -8   1   -0.43    0.21
   7   8  -1   -0.19    0.24
   7   8  -1   -0.57    0.29
   6  -8  -1    0.39    0.28
   6  -8  -1    0.41    0.28
  -6  -8   1    0.50    0.23
  -6   8   1    1.05    0.31
   6   8  -1    0.47    0.31
   5  -8  -1   37.78    1.26
  -5  -8   1   39.25    1.24
   5  -8  -1   37.88    1.48
   5   8  -1   39.21    1.28
  -5   8   1   38.13    1.27
   4  -8  -1   14.22    0.75
  -4  -8   1   14.59    0.68
  -4   8   1   14.32    0.51
  -4   8   1   13.65    0.72
   3  -8  -1   53.45    1.54
  -3  -8   1   52.23    1.48
  -3   8   1   51.85    1.26
  -2  -8   1   77.32    2.01
   2   8  -1   75.56    2.29
  -2   8   1   78.32    2.04
  -1  -8   1    0.54    0.20
  -1   8   1    0.85    0.25
   1   8  -1    0.89    0.29
   0  -8   1   25.22    1.14
   0   8   1   24.37    1.08
   0   8  -1   25.08    1.04
  -1  -8  -1   -0.24    0.19
   1   8   1    0.02    0.22
  -2  -8  -1  134.38    3.37
   2   8   1  137.46    3.21
   3  -8   1    0.65    0.23
  -3  -8  -1    0.94    0.25
   3   8   1    1.18    0.30
  -3   8  -1    1.51    0.23
   4  -8   1    4.55    0.50
  -4  -8  -1    4.78    0.69
   4  -8   1    4.19    0.48
   4   8   1    3.62    0.51
  -4   8  -1    4.83    0.39
  -5   8  -1    6.79    0.59
  -5   8  -1    6.82    0.48
   6  -8   1   41.91    1.37
   6  -8   1   42.75    1.43
  -6   8  -1   41.50    1.41
   6   8   1   41.87    1.35
  -6   8  -1   41.12    1.17
   7  -8   1    0.65    0.34
   7  -8   1    0.68    0.27
   7   8   1    1.07    0.33
   8  -8   1    9.25    0.70
   8  -8   1    9.52    0.86
   8   8   1   11.73    0.83
   8   8   1    8.62    0.73
   7  -9  -1   11.28    0.76
   7  -9  -1   11.97    0.88
  -7  -9   1   12.47    0.68
   7   9  -1   10.90    0.82
   6  -9  -1   27.45    1.21
   6  -9  -1   30.36    1.16
  -6  -9   1   30.40    1.05
  -6   9   1   30.62    1.19
   6   9  -1   29.08    1.44
  -5  -9   1    0.37    0.25
   5  -9  -1    0.25    0.24
  -5   9   1    0.25    0.28
   5   9  -1    0.03    0.31
  -4  -9   1   14.32    0.73
   4  -9  -1   14.09    0.78
  -4   9   1   14.32    0.77
  -3  -9   1   10.82    0.65
   3  -9  -1   10.07    0.69
  -3   9   1   10.23    0.46
   3   9  -1   11.89    0.73
  -3   9   1   11.90    0.79
  -2  -9   1   59.40    1.67
   2   9  -1   57.97    1.69
  -2   9   1   56.86    1.67
  -1  -9   1    6.13    0.54
   1  -9  -1    5.56    0.54
  -1   9   1    5.93    0.53
   1   9  -1    6.23    0.57
   0  -9  -1   10.00    0.65
   0  -9   1   11.07    0.65
   0   9  -1   11.14    0.70
   0   9   1   10.41    0.76
   1  -9   1   13.76    0.87
  -1  -9  -1   13.75    0.72
  -1   9  -1   13.64    0.75
   2  -9   1    2.00    0.39
  -2  -9  -1    1.90    0.31
   2   9   1    2.20    0.44
   3  -9   1    6.49    0.61
  -3  -9  -1    7.92    0.59
   3   9   1    7.54    0.59
  -3   9  -1    7.56    0.55
  -3   9  -1    8.31    0.63
   4  -9   1   24.40    1.02
  -4  -9  -1   23.47    0.95
  -4   9  -1   24.64    1.01
   4   9   1   24.04    0.98
   5  -9   1    6.60    0.67
   5  -9   1    6.03    0.63
  -5  -9  -1    6.05    0.59
  -5   9  -1    6.98    0.64
   6  -9   1    5.46    0.64
   6  -9   1    4.91    0.70
  -6   9  -1    5.20    0.66
   6   9   1    5.98    0.65
   7  -9   1    7.07    0.80
  -7  -9  -1    9.90    0.82
   7  -9   1    8.28    0.87
   7   9   1    9.07    0.73
  -7   9  -1    9.49    0.75
  -6 -10   1    2.02    0.36
   6 -10  -1    3.82    0.72
   6 -10  -1    2.32    0.45
  -6  10   1    2.70    0.55
   6  10  -1    2.44    0.52
   5 -10  -1   51.38    1.70
   5 -10  -1   49.20    1.70
  -5 -10   1   50.77    1.57
   5  10  -1   50.20    1.66
  -5  10   1   51.64    1.70
  -4 -10   1    2.52    0.39
   4 -10  -1    2.50    0.39
   4  10  -1    2.41    0.46
  -4  10   1    3.64    0.60
   3 -10  -1    0.65    0.27
  -3 -10   1    0.58    0.31
   3  10  -1    0.67    0.34
  -3  10   1    0.58    0.33
   2 -10  -1   -0.48    0.22
  -2 -10   1   -0.27    0.24
   2  10  -1    0.17    0.30
  -2  10   1   -0.40    0.40
  -1 -10   1   28.79    1.14
   1 -10  -1   31.03    1.17
   1  10  -1   29.38    1.16
  -1  10   1   31.00    1.18
   0 -10   1    2.68    0.42
   0 -10  -1    3.43    0.58
   0  10  -1    4.28    0.59
   0  10   1    4.81    0.62
   1 -10   1   11.01    0.75
  -1 -10  -1    9.92    0.74
  -1  10  -1   12.56    0.78
   1  10   1   12.93    0.77
   2 -10   1    9.94    0.72
  -2 -10  -1    9.07    0.74
  -2  10  -1   10.06    0.74
   2  10   1   10.23    0.80
  -3 -10  -1    7.17    0.69
   3 -10   1    8.17    0.68
   3 -10   1    8.75    0.71
  -3  10  -1    9.33    0.73
   3  10   1    9.45    0.70
   4 -10   1    0.37    0.30
  -4 -10  -1    0.15    0.30
  -4  10  -1    1.05    0.35
   4  10   1    0.64    0.35
   5 -10   1   51.01    1.90
  -5 -10  -1   51.23    1.71
   5 -10   1   52.24    1.70
  -5  10  -1   51.29    1.74
   5  10   1   51.36    1.63
   3 -11  -1   19.87    1.03
  -3 -11   1   18.40    0.99
  -3  11   1   19.55    1.31
   2 -11  -1    9.04    0.78
  -2 -11   1    8.02    0.80
  -2  11   1    9.29    0.82
   2  11  -1   10.05    0.96
   1 -11  -1    0.34    0.53
  -1 -11   1   -0.24    0.36
  -1  11   1    0.78    0.40
   1  11  -1    0.19    0.39
   0  11  -1   54.45    2.05
   0  11   1   56.33    1.76
   1 -11   1    3.31    0.52
  -1 -11  -1    2.30    0.63
   2 -11   1    0.35    0.30
   2  11   1    0.75    0.39
  -2  11  -1    0.78    0.43
  12   0  -2   92.86    2.75
 -12   0   2   92.76    2.56
 -11   0   2    0.14    0.26
  11   0  -2    0.62    0.35
  10   0  -2  156.61    3.84
 -10   0   2  149.83    3.60
  -9   0   2    0.09    0.16
   9   0  -2    0.03    0.24
   8   0  -2  372.41    8.17
  -7   0   2    0.17    0.13
   7   0  -2    0.00    0.23
   6   0  -2  180.89    4.06
  -6   0   2  180.93    3.96
  -5   0   2    0.02    0.09
   5   0  -2    0.08    0.13
   4   0  -2  376.06    8.10
   4   0  -2  394.20    8.04
  -4   0   2  377.28    8.04
   3   0  -2    0.07    0.06
   3   0  -2    0.19    0.03
   3   0  -2    0.16    0.08
   1   0   2    0.26    0.07
   1   0   2    0.31    0.07
   1   0   2    0.50    0.10
  -1   0  -2    0.26    0.10
  -1   0  -2    0.12    0.08
  -2   0  -2  205.39    4.18
   2   0   2  191.98    4.17
   2   0   2  191.53    4.09
   2   0   2  195.11    4.15
  -2   0  -2  185.80    4.15
  -3   0  -2    0.16    0.09
   3   0   2    0.04    0.12
   3   0   2    0.25    0.18
   5   0   2   -0.12    0.18
  -5   0  -2   -0.04    0.14
   6   0   2    0.04    0.22
  -6   0  -2   -0.07    0.17
  -7   0  -2    0.39    0.18
   7   0   2   -0.24    0.22
  -8   0  -2   56.18    1.56
   9   0   2   -0.22    0.26
  -9   0  -2    0.29    0.21
  10   0   2   20.54    1.07
 -10   0  -2   21.62    0.96
  11   0   2   -0.46    0.37
 -11   0  -2    0.19    0.29
  12  -1  -2    1.00    0.38
 -12  -1   2    1.21    0.33
  12   1  -2    0.38    0.36
 -12   1   2    0.80    0.27
 -11  -1   2   65.15    1.84
  11  -1  -2   69.58    2.10
  11   1  -2   67.29    2.06
  10  -1  -2   27.34    1.14
 -10   1   2   26.30    0.89
  10   1  -2   27.76    1.13
  -9  -1   2   43.62    1.26
   9  -1  -2   44.85    1.43
  -9   1   2   44.10    1.23
   9   1  -2   44.54    1.48
  -8  -1   2    2.94    0.35
   8  -1  -2    1.70    0.28
  -8   1   2    2.57    0.21
   8   1  -2    2.67    0.46
  -8   1   2    2.16    0.32
   7  -1  -2  192.11    4.34
  -7  -1   2  191.17    4.22
  -7   1   2  182.68    4.15
  -7   1   2  195.05    4.04
   6  -1  -2   15.31    0.42
  -6  -1   2   15.16    0.54
  -6   1   2   15.44    0.42
   6   1  -2   15.29    0.62
  -6   1   2   15.88    0.49
   5  -1  -2  516.06   10.43
   5  -1  -2  491.07   10.56
   5  -1  -2  495.27   10.37
  -5  -1   2  489.30   10.48
   5   1  -2  498.94   10.53
  -5   1   2  483.31   10.42
  -5   1   2  508.02   10.37
  -4  -1   2  335.28    6.85
   4  -1  -2  312.93    6.88
   4  -1  -2  317.92    6.74
   4  -1  -2  331.17    6.77
   4   1  -2  314.10    6.85
  -4   1   2  310.76    6.76
  -4   1   2  334.82    6.75
   3  -1  -2  158.61    3.32
   3  -1  -2  151.05    3.32
  -3  -1   2  161.13    3.38
   3  -1  -2  161.70    3.53
   3   1  -2  158.93    3.38
   3   1  -2  150.03    3.37
  -3   1   2  159.43    3.33
   1  -1   2    1.17    0.14
   1  -1   2    1.47    0.16
   1  -1   2    1.37    0.16
  -1  -1  -2    1.16    0.15
  -1  -1  -2    1.56    0.21
  -1   1  -2    1.34    0.14
  -1   1  -2    1.25    0.15
   1   1   2    1.44    0.15
   1   1   2    1.11    0.20
  -1   1  -2    0.90    0.14
  -1   1  -2    1.36    0.15
  -2  -1  -2  447.85    9.05
   2  -1   2  438.14    9.00
   2  -1   2  440.96    8.97
  -2  -1  -2  413.80    9.01
   2  -1   2  427.66    9.01
  -2   1  -2  416.64    8.97
   2   1   2  407.80    9.03
  -2   1  -2  424.38    8.99
   2   1   2  434.53    9.02
  -2   1  -2  415.55    9.00
  -2   1  -2  445.51    9.01
   3  -1   2   11.07    0.43
  -3  -1  -2   10.81    0.41
   3  -1   2   11.81    0.40
   3   1   2   10.17    0.46
  -3   1  -2   11.29    0.40
   4  -1   2   28.54    0.86
  -4  -1  -2   27.59    0.81
   4   1   2   28.55    0.88
  -4   1  -2   28.30    0.80
   5  -1   2  336.03    7.19
  -5  -1  -2  327.07    7.12
  -5   1  -2  321.01    7.09
   5   1   2  338.20    7.21
  -6  -1  -2  189.10    4.35
   6  -1   2  201.01    4.46
   6   1   2  193.46    4.45
  -7  -1  -2   66.23    1.72
   7  -1   2   66.33    1.84
  -7   1  -2   67.25    1.71
   7   1   2   61.74    2.04
  -8  -1  -2    0.48    0.33
  -8   1  -2    1.30    0.24
  -9  -1  -2   13.26    0.69
   9  -1   2   13.00    0.83
 -10  -1  -2    7.18    0.63
  10  -1   2    6.76    0.75
  10   1   2    6.81    0.74
  11  -1   2    0.60    0.49
 -11  -1  -2    1.49    0.37
  11   1   2    1.33    0.65
 -11   1  -2    0.56    0.33
  12  -2  -2    1.54    0.44
 -12  -2   2    0.94    0.32
 -12   2   2    1.10    0.29
  12   2  -2    0.77    0.38
  11  -2  -2    1.03    0.35
 -11  -2   2    1.35    0.37
  11   2  -2    0.93    0.35
 -11   2   2    1.70    0.28
 -10  -2   2   21.94    1.00
  10  -2  -2   19.98    1.02
  10   2  -2   23.87    1.11
 -10   2   2   23.15    0.78
  -9  -2   2   43.48    1.27
   9   2  -2   44.09    1.39
  -9   2   2   40.75    1.26
  -8  -2   2   12.78    0.58
   8  -2  -2   13.77    0.45
   8  -2  -2   12.84    0.70
  -8   2   2   13.14    0.51
   8   2  -2   13.68    0.70
   7  -2  -2   57.13    1.33
  -7  -2   2   55.72    1.49
   7  -2  -2   56.58    1.58
  -7   2   2   60.52    1.46
  -7   2   2   54.31    1.36
   6  -2  -2   50.30    1.22
  -6  -2   2   46.46    1.25
   6  -2  -2   46.04    1.36
   6  -2  -2   47.92    1.13
  -6   2   2   46.83    1.13
  -6   2   2   47.52    1.13
   6   2  -2   47.35    1.30
   5  -2  -2   81.90    1.77
   5  -2  -2   79.85    1.80
  -5  -2   2   79.35    1.89
   5  -2  -2   79.75    1.96
   5   2  -2   79.65    1.91
  -5   2   2   82.29    1.80
  -5   2   2   78.77    1.77
  -4  -2   2  184.29    3.97
   4  -2  -2  185.89    4.16
   4  -2  -2  190.64    3.98
   4  -2  -2  185.76    4.04
  -4  -2   2  197.53    4.11
   4   2  -2  186.40    4.10
  -4   2   2  195.80    4.04
   4   2  -2  194.26    3.97
  -4   2   2  182.90    3.98
   3  -2  -2  563.05   11.42
   3  -2  -2  523.52   11.30
  -3  -2   2  558.09   11.31
   3   2  -2  536.39   11.25
  -3   2   2  554.84   11.30
   3   2  -2  508.87   11.34
   2  -2  -2  395.87    8.26
  -2  -2   2  405.50    8.29
  -2  -2   2  380.25    8.23
   2  -2  -2  382.31    8.26
   2   2  -2  409.66    8.24
   2   2  -2  388.02    8.29
  -2   2   2  384.34    8.26
  -2   2   2  405.77    8.27
   0  -2   2  153.24    3.34
   0  -2  -2  159.32    3.28
   0  -2  -2  149.10    3.34
   0  -2  -2  152.13    3.30
   0  -2  -2  151.94    3.36
   0  -2   2  149.28    3.26
   0  -2   2  160.83    3.34
   0   2  -2  157.63    3.34
   0   2  -2  162.72    3.34
   0   2   2  151.84    3.28
   0   2   2  161.05    3.30
   1  -2   2   93.49    1.99
   1  -2   2   89.28    2.00
  -1  -2  -2   90.75    2.04
  -1  -2  -2   91.67    1.94
  -1  -2  -2   86.03    1.99
  -1  -2  -2   87.90    1.98
   1  -2   2   88.92    1.96
  -1   2  -2   86.76    1.98
   1   2   2   94.95    1.99
  -1   2  -2   88.77    2.00
   1   2   2   90.88    1.93
   1   2   2   89.52    2.04
  -1   2  -2   88.74    1.99
   2  -2   2    0.10    0.09
  -2  -2  -2   -0.01    0.08
   2  -2   2    0.20    0.11
   2  -2   2    0.17    0.09
  -2   2  -2    0.12    0.09
   2   2   2    0.21    0.08
  -2   2  -2    0.16    0.09
   2   2   2    0.20    0.12
  -2   2  -2    0.08    0.09
   3  -2   2   55.90    1.36
   3  -2   2   55.60    1.33
  -3  -2  -2   55.88    1.35
   3   2   2   55.03    1.41
  -3   2  -2   56.45    1.33
  -3   2  -2   53.79    1.33
  -4  -2  -2   17.73    0.61
   4  -2   2   18.45    0.64
  -4   2  -2   17.77    0.58
   4   2   2   18.14    0.68
   5  -2   2  178.05    3.99
  -5   2  -2  174.04    3.89
  -6  -2  -2    0.43    0.18
   6  -2   2    0.15    0.23
   6   2   2    0.30    0.24
  -7  -2  -2  233.24    5.27
   7  -2   2  237.22    5.37
  -7   2  -2  236.01    5.21
  -8   2  -2    1.79    0.27
  -9  -2  -2   68.80    2.01
   9  -2   2   69.85    2.24
  10  -2   2    0.77    0.37
 -10  -2  -2    0.44    0.28
 -10   2  -2    1.09    0.32
  10   2   2    0.98    0.35
 -11  -2  -2   80.33    2.36
  11   2   2   75.69    3.05
 -11   2  -2   76.18    2.14
 -11  -3   2    4.27    0.61
  11  -3  -2    3.83    0.65
 -11   3   2    4.32    0.41
  11   3  -2    3.96    0.72
 -10  -3   2   27.45    1.01
  10   3  -2   27.43    1.12
 -10   3   2   26.84    0.86
   9  -3  -2   17.66    0.60
   9   3  -2   18.23    0.85
  -9   3   2   17.41    0.62
   8  -3  -2   46.25    1.18
  -8  -3   2   45.24    1.32
  -8   3   2   45.84    1.16
   8   3  -2   47.86    1.41
   7  -3  -2   39.34    1.22
  -7  -3   2   39.17    1.14
   7  -3  -2   38.61    1.02
   7   3  -2   38.62    1.21
  -7   3   2   38.74    0.97
   6  -3  -2   20.45    0.62
   6  -3  -2   20.77    0.79
  -6  -3   2   20.79    0.51
   6  -3  -2   20.78    0.56
  -6   3   2   20.40    0.55
   6   3  -2   21.08    0.76
   6   3  -2   19.19    0.83
  -5  -3   2    6.18    0.24
   5  -3  -2    6.48    0.23
   5  -3  -2    6.36    0.43
   5  -3  -2    4.61    0.32
  -5   3   2    6.21    0.22
   5   3  -2    6.19    0.39
   5   3  -2    5.68    0.39
  -4  -3   2    6.03    0.24
   4  -3  -2    6.27    0.30
   4   3  -2    6.72    0.25
   4   3  -2    6.20    0.34
   4   3  -2    6.28    0.35
   3  -3  -2   80.87    1.84
  -3  -3   2   79.99    1.79
  -3  -3   2   83.23    1.82
   3   3  -2   78.87    1.87
   3   3  -2   81.85    1.79
   3   3  -2   80.70    1.82
  -3   3   2   78.96    1.85
  -2  -3   2    1.97    0.17
   2  -3  -2    2.87    0.28
  -2  -3   2    1.96    0.18
   2  -3  -2    2.24    0.19
   2   3  -2    1.95    0.23
   2   3  -2    2.12    0.18
  -2   3   2    1.98    0.19
   2   3  -2    1.98    0.16
   1  -3  -2   55.23    1.26
  -1  -3   2   55.61    1.21
  -1  -3   2   53.86    1.28
   1  -3  -2   55.37    1.19
   1  -3  -2   52.94    1.29
   1   3  -2   56.24    1.30
  -1   3   2   53.12    1.26
   1   3  -2   52.78    1.30
  -1   3   2   55.93    1.19
   0  -3   2  579.57   12.46
   0  -3  -2  618.41   12.48
   0  -3  -2  593.32   12.46
   0   3  -2  566.52   12.46
   0   3   2  580.93   12.40
   0   3   2  628.11   12.40
  -1  -3  -2  160.20    3.30
  -1  -3  -2  154.51    3.33
   1  -3   2  154.97    3.37
  -1  -3  -2  151.99    3.36
   1  -3   2  150.90    3.31
   1   3   2  151.00    3.30
  -1   3  -2  149.29    3.36
   1   3   2  159.85    3.37
   1   3   2  154.06    3.41
  -2  -3  -2    3.06    0.22
  -2  -3  -2    3.03    0.22
   2  -3   2    2.32    0.21
   2  -3   2    2.60    0.23
  -2   3  -2    2.19    0.21
   2   3   2    2.51    0.20
   2   3   2    2.40    0.28
  -2   3  -2    2.37    0.24
  -3  -3  -2   85.14    2.02
   3  -3   2   86.92    2.02
   3  -3   2   87.81    2.03
  -3  -3  -2   85.60    1.99
   3   3   2   86.96    2.09
  -3   3  -2   87.04    2.02
  -3   3  -2   87.33    1.99
   3   3   2   88.34    1.96
   4  -3   2   49.73    1.27
  -4  -3  -2   49.53    1.23
  -4  -3  -2   48.23    1.29
   4  -3   2   48.79    1.31
  -4   3  -2   49.01    1.28
  -4   3  -2   50.29    1.25
   4   3   2   49.39    1.21
   4   3   2   50.99    1.38
  -5  -3  -2    0.66    0.18
  -5  -3  -2    0.65    0.14
   5  -3   2    0.31    0.16
   5  -3   2    0.61    0.23
   5   3   2    0.34    0.19
   5   3   2    0.21    0.22
  -5   3  -2    0.43    0.19
  -6  -3  -2  222.47    5.01
  -6  -3  -2  224.33    4.87
   6  -3   2  230.38    5.07
   6   3   2  221.06    5.10
  -6   3  -2  224.59    5.14
   6   3   2  220.68    4.90
   7  -3   2   45.98    1.41
  -7  -3  -2   43.51    1.17
  -7   3  -2   45.25    1.26
  -8  -3  -2    3.78    0.37
  -8   3  -2    3.87    0.39
  -9  -3  -2    0.10    0.24
  -9  -3  -2    0.43    0.22
   9   3   2    0.21    0.29
 -10  -3  -2   20.52    0.96
  10  -3   2   19.64    1.09
  10   3   2   19.11    1.06
 -10   3  -2   20.34    0.88
  11  -3   2    1.05    0.51
 -11  -3  -2    1.36    0.40
 -11   3  -2    1.42    0.35
  11   3   2    0.59    0.41
  12  -4  -2   11.91    0.98
  12   4  -2   13.12    1.02
  11  -4  -2    3.57    0.53
  11   4  -2    3.99    0.65
  11   4  -2    4.60    0.61
 -11   4   2    4.05    0.51
  10  -4  -2   98.83    2.32
  10  -4  -2   97.89    2.70
 -10   4   2   92.69    2.33
  10   4  -2   98.71    2.64
  10   4  -2  100.78    2.76
  -9   4   2    4.34    0.34
   9   4  -2    3.50    0.52
   9   4  -2    5.30    0.56
   8  -4  -2   62.96    1.56
   8   4  -2   60.85    1.72
  -8   4   2   60.41    1.45
   8   4  -2   60.15    1.66
  -7  -4   2    7.56    0.31
   7  -4  -2    7.18    0.52
   7  -4  -2    6.33    0.43
   7  -4  -2    7.97    0.34
  -7   4   2    7.46    0.31
   7   4  -2    7.61    0.59
   7   4  -2    7.73    0.50
   6  -4  -2   67.53    1.65
   6  -4  -2   65.77    1.79
  -6  -4   2   67.72    1.53
   6   4  -2   66.81    1.74
   6   4  -2   66.88    1.72
  -6   4   2   67.87    1.49
   5  -4  -2    3.05    0.31
  -5  -4   2    3.48    0.24
   5   4  -2    3.59    0.37
   5   4  -2    3.02    0.25
   4  -4  -2   62.88    1.55
  -4  -4   2   64.66    1.48
   4   4  -2   63.27    1.59
  -4   4   2   64.46    1.58
   4   4  -2   63.61    1.55
   3  -4  -2  120.04    2.72
  -3  -4   2  124.21    2.68
  -3  -4   2  120.83    2.67
   3   4  -2  120.43    2.75
   3   4  -2  120.98    2.72
  -3   4   2  117.33    2.71
  -2  -4   2  342.88    7.31
  -2  -4   2  361.79    7.28
   2  -4  -2  344.64    7.35
  -2   4   2  331.85    7.31
   2   4  -2  341.71    7.36
  -1  -4   2   31.14    0.78
   1  -4  -2   30.13    0.85
  -1  -4   2   30.97    0.84
  -1   4   2   31.25    0.82
   1   4  -2   30.87    0.87
  -1   4   2   32.44    0.74
   0  -4   2  195.50    4.30
   0  -4  -2  196.48    4.22
   0  -4  -2  195.52    4.31
   0   4  -2  193.77    4.31
   0   4   2  193.65    4.25
   0   4   2  211.32    4.24
  -1  -4  -2  137.91    3.07
   1  -4   2  137.47    3.08
  -1  -4  -2  136.45    3.02
  -1   4  -2  138.16    3.08
   1   4   2  138.61    3.02
   2  -4   2   81.30    1.93
   2  -4   2   81.95    1.89
  -2  -4  -2   81.07    1.91
  -2  -4  -2   82.15    1.90
   2   4   2   78.65    1.97
  -2   4  -2   82.77    1.87
   2   4   2   81.76    1.86
  -2   4  -2   82.07    1.94
   3  -4   2   44.37    1.18
   3  -4   2   44.87    1.19
  -3  -4  -2   43.20    1.17
  -3  -4  -2   45.39    1.16
   3   4   2   45.81    1.13
  -3   4  -2   45.02    1.13
   3   4   2   45.96    1.34
  -3   4  -2   43.99    1.19
   4  -4   2  145.90    3.35
   4  -4   2  148.75    3.35
  -4  -4  -2  148.26    3.27
  -4   4  -2  152.59    3.27
   4   4   2  149.90    3.45
  -4   4  -2  131.56    3.69
   4   4   2  147.30    3.25
   5  -4   2  129.53    3.29
   5  -4   2  134.49    3.07
  -5  -4  -2  131.47    3.09
  -5  -4  -2  133.11    3.01
   5   4   2  134.26    3.19
  -5   4  -2  134.16    3.10
  -5   4  -2  132.09    3.01
   5   4   2  133.31    3.02
  -6  -4  -2   14.47    0.58
   6  -4   2   14.87    0.71
   6  -4   2   15.36    0.76
  -6  -4  -2   15.26    0.66
   6   4   2   14.18    0.76
  -7  -4  -2    7.90    0.46
   7  -4   2    7.51    0.58
  -7   4  -2    7.08    0.46
   7   4   2    7.74    0.48
   7   4   2    6.58    0.60
   8  -4   2    3.27    0.56
   8   4   2    3.50    0.59
  -8   4  -2    4.39    0.41
   8   4   2    3.36    0.50
  -9  -4  -2    3.70    0.53
   9  -4   2    4.58    0.69
  -9  -4  -2    4.29    0.44
   9   4   2    3.27    0.49
 -10  -4  -2   12.28    0.79
  10  -4   2   10.74    0.92
 -10   4  -2   12.04    0.68
  10   4   2   11.59    0.93
  11  -5  -2   38.55    1.17
  11  -5  -2   37.97    1.90
  11   5  -2   36.88    1.44
  11   5  -2   38.95    1.40
  10  -5  -2    4.98    0.67
  10  -5  -2    4.88    0.43
  10   5  -2    5.00    0.77
   9  -5  -2    7.16    0.44
   9   5  -2    6.56    0.61
   9   5  -2    6.19    0.58
  -9   5   2    6.88    0.38
   8  -5  -2    5.65    0.72
  -8  -5   2    6.46    0.35
   8  -5  -2    6.79    0.43
   8   5  -2    6.18    0.55
  -8   5   2    6.21    0.32
   7  -5  -2   88.21    2.37
  -7  -5   2   89.04    2.05
   7  -5  -2   92.14    2.21
   7   5  -2   94.12    2.32
  -7   5   2   90.56    1.99
   7   5  -2   91.65    2.30
   6  -5  -2    0.27    0.19
  -6  -5   2    0.27    0.20
   6  -5  -2    0.15    0.17
   6   5  -2    0.50    0.24
  -5  -5   2  253.49    5.48
   5   5  -2  259.85    5.63
  -5   5   2  249.95    5.61
   5   5  -2  256.43    5.58
  -4  -5   2   44.75    1.14
   4  -5  -2   44.89    1.22
   4   5  -2   44.85    1.26
   4   5  -2   44.43    1.19
  -3  -5   2   25.73    0.75
   3  -5  -2   24.87    0.80
   3   5  -2   25.76    0.85
  -3   5   2   25.26    0.79
   2  -5  -2   19.74    0.68
  -2  -5   2   20.03    0.65
   2   5  -2   20.02    0.71
  -2   5   2   17.90    0.64
  -2   5   2   20.66    0.50
  -1  -5   2  392.95    8.13
  -1  -5   2  389.02    8.20
   1  -5  -2  383.54    8.22
   1   5  -2  365.47    8.22
  -1   5   2  395.96    8.06
  -1   5   2  377.51    8.17
   0  -5   2   75.61    1.85
   0  -5  -2   77.66    1.86
   0   5  -2   76.57    1.87
   0   5   2   77.59    1.81
   1  -5   2   53.10    1.39
  -1  -5  -2   54.33    1.38
  -1  -5  -2   53.23    1.30
  -1   5  -2   53.67    1.40
   1   5   2   52.95    1.32
  -2  -5  -2   10.11    0.47
   2  -5   2   10.33    0.44
  -2  -5  -2    9.40    0.43
   2   5   2   10.14    0.45
  -2   5  -2   10.12    0.41
  -2   5  -2    8.47    0.69
  -3  -5  -2   -0.10    0.16
   3  -5   2    0.25    0.17
  -3  -5  -2    0.02    0.15
   3  -5   2   -0.10    0.14
  -3   5  -2    0.19    0.20
   3   5   2   -0.09    0.18
  -3   5  -2    0.00    0.13
   3   5   2   -0.14    0.19
  -4  -5  -2   15.29    0.63
  -4  -5  -2   15.29    0.61
   4  -5   2   14.72    0.66
   4  -5   2   14.25    0.64
   4   5   2   15.18    0.64
   4   5   2   14.47    0.72
  -4   5  -2   15.98    0.66
  -4   5  -2   15.48    0.56
   5  -5   2  439.60    9.54
  -5  -5  -2  454.87    9.58
   5  -5   2  449.21    9.60
  -5   5  -2  444.48    9.58
  -5   5  -2  444.58    9.46
   5   5   2  436.83    9.53
   5   5   2  437.59    9.65
  -6  -5  -2    7.61    0.48
  -6  -5  -2    7.76    0.52
   6  -5   2    8.07    0.58
   6  -5   2    9.07    0.76
   6   5   2    8.68    0.61
   6   5   2    8.79    0.51
  -6   5  -2    7.61    0.50
   7  -5   2   22.55    0.84
  -7  -5  -2   22.92    0.90
  -7  -5  -2   22.53    0.78
   7   5   2   22.80    0.83
   7   5   2   23.22    1.02
  -7   5  -2   23.41    0.80
  -8  -5  -2    8.35    0.49
  -8  -5  -2    9.17    0.64
   8  -5   2    8.41    0.71
  -8   5  -2    8.87    0.53
   8   5   2    9.07    0.75
   8   5   2    7.73    0.55
  -9  -5  -2   43.86    1.21
   9  -5   2   42.76    1.61
  -9  -5  -2   43.28    1.44
   9   5   2   42.72    1.34
   9   5   2   43.19    1.56
 -10  -5  -2    0.96    0.34
  10  -5   2    0.83    0.41
  10   5   2    0.75    0.67
  10   5   2    1.04    0.36
 -10   5  -2    0.68    0.29
  10  -6  -2   16.43    0.75
  10  -6  -2   17.64    1.06
  10   6  -2   19.80    1.07
  10   6  -2   17.15    0.95
   9  -6  -2   10.73    0.81
   9  -6  -2    9.96    0.56
   9   6  -2   11.69    0.71
   9   6  -2   11.01    0.75
   8  -6  -2    0.81    0.20
   8  -6  -2    0.73    0.28
  -8  -6   2    0.51    0.18
   8   6  -2    0.82    0.31
   8   6  -2    0.44    0.25
  -7  -6   2   33.88    0.95
   7  -6  -2   34.24    1.06
   7   6  -2   33.29    1.11
   6  -6  -2   37.84    1.20
   6  -6  -2   35.65    1.22
  -6  -6   2   36.17    1.01
   6   6  -2   37.96    1.18
   6   6  -2   36.42    1.13
  -5  -6   2   10.01    0.51
   5  -6  -2   10.74    0.57
   5   6  -2   11.50    0.59
   5   6  -2   11.73    0.62
  -5   6   2   11.02    0.58
   4  -6  -2  218.34    4.83
  -4  -6   2  216.87    4.75
  -4   6   2  214.36    4.82
   4   6  -2  214.24    4.85
   3  -6  -2  266.81    5.81
  -3  -6   2  270.46    5.81
  -3   6   2  256.44    5.77
   3   6  -2  262.40    5.82
  -2  -6   2  136.86    3.40
   2  -6  -2  146.74    3.32
   2   6  -2  142.94    3.32
  -2   6   2  153.20    3.10
  -2   6   2  139.93    3.39
   1  -6  -2   16.63    0.67
  -1  -6   2   16.43    0.72
   1   6  -2   17.42    0.71
  -1   6   2   16.86    0.65
   0  -6  -2   88.80    2.14
   0  -6   2   89.23    2.14
   0   6   2   86.86    2.09
   0   6  -2   86.28    2.15
  -1  -6  -2   58.67    1.52
   1  -6   2   57.77    1.53
  -1   6  -2   57.70    1.55
   1   6   2   57.94    1.48
   2  -6   2    0.09    0.15
  -2  -6  -2    0.00    0.16
  -2  -6  -2    0.03    0.16
   2  -6   2   -0.24    0.15
   2   6   2    0.20    0.21
  -2   6  -2   -0.11    0.20
  -3  -6  -2   53.15    1.41
   3  -6   2   51.41    1.42
  -3  -6  -2   53.21    1.40
   3  -6   2   52.81    1.45
  -3   6  -2   52.43    1.47
   3   6   2   52.95    1.39
  -3   6  -2   52.54    1.34
   4  -6   2   69.44    1.78
   4  -6   2   67.08    1.78
  -4  -6  -2   67.73    1.74
  -4  -6  -2   67.26    1.72
  -4   6  -2   67.75    1.79
  -4   6  -2   67.20    1.66
   4   6   2   65.41    1.83
   4   6   2   63.80    1.85
  -5  -6  -2   11.09    0.54
   5  -6   2   11.69    0.62
  -5  -6  -2   10.93    0.58
   5  -6   2    9.76    0.59
  -5   6  -2   10.88    0.61
   5   6   2   11.37    0.58
  -5   6  -2   11.07    0.56
   5   6   2   12.12    0.67
   6  -6   2    4.23    0.46
  -6  -6  -2    4.98    0.41
   6  -6   2    3.13    0.48
  -6  -6  -2    3.63    0.44
  -6   6  -2    4.31    0.43
  -6   6  -2    4.70    0.50
   6   6   2    5.12    0.63
   6   6   2    4.17    0.43
   7  -6   2   27.46    1.00
   7  -6   2   27.37    1.30
  -7  -6  -2   27.75    0.90
   7   6   2   25.69    1.51
   7   6   2   26.56    0.95
  -7   6  -2   26.31    0.88
  -8  -6  -2   12.91    0.77
   8  -6   2   14.27    0.75
   8  -6   2   15.34    1.11
  -8  -6  -2   13.53    0.62
   8   6   2   14.12    0.86
  -8   6  -2   13.31    0.69
   9  -6   2    0.63    0.38
  -9  -6  -2    1.40    0.37
   9   6   2    1.78    0.42
  10  -7  -2   13.14    0.77
  10  -7  -2   13.85    1.14
  10   7  -2   13.56    0.87
  10   7  -2   11.64    0.91
   9  -7  -2    5.66    0.55
   9  -7  -2    5.60    0.75
   9   7  -2    5.77    0.68
   8  -7  -2   24.17    0.92
   8  -7  -2   23.13    1.08
   8   7  -2   25.01    1.06
   8   7  -2   24.67    1.04
  -7  -7   2    0.61    0.23
   7  -7  -2    0.29    0.25
   7  -7  -2    0.32    0.21
   7   7  -2    0.66    0.29
   7   7  -2    1.27    0.26
   6   7  -2    4.04    0.68
   6   7  -2    4.66    0.45
  -6   7   2    4.21    0.44
   5  -7  -2   80.34    2.07
  -5  -7   2   78.74    1.96
  -4  -7   2    3.68    0.39
   4  -7  -2    3.89    0.41
  -4   7   2    3.70    0.41
   4   7  -2    3.88    0.48
   3  -7  -2    4.98    0.43
  -3  -7   2    4.60    0.42
   3   7  -2    5.05    0.51
  -3   7   2    4.86    0.41
  -3   7   2    5.67    0.28
  -3   7   2    5.42    0.25
  -2  -7   2   86.68    2.17
   2  -7  -2   87.46    2.22
   2   7  -2   89.07    2.24
  -2   7   2   86.26    2.17
  -2   7   2   90.39    1.98
  -1  -7   2   36.13    1.09
   1  -7  -2   34.96    1.15
  -1   7   2   35.65    1.07
   1   7  -2   35.23    1.12
   0  -7   2   16.70    0.67
   0  -7  -2   16.31    0.68
   0   7   2   15.89    0.67
   0   7  -2   15.20    0.70
   1  -7   2    0.27    0.17
  -1  -7  -2    0.42    0.18
   1   7   2    0.18    0.23
  -2  -7  -2   92.51    2.28
   2   7   2   91.72    2.23
   3  -7   2    0.04    0.18
   3  -7   2    0.11    0.21
  -3  -7  -2    0.04    0.16
   3   7   2    0.14    0.22
  -3   7  -2    0.12    0.19
  -4  -7  -2    8.43    0.58
   4  -7   2    7.47    0.54
  -4  -7  -2    7.99    0.49
   4  -7   2    7.99    0.53
   4   7   2    8.26    0.52
   5  -7   2   -0.18    0.21
  -5  -7  -2   -0.06    0.20
  -5  -7  -2    0.07    0.19
   5  -7   2    0.22    0.23
   5   7   2    0.24    0.26
  -5   7  -2   -0.07    0.22
   5   7   2    0.11    0.23
  -5   7  -2   -0.21    0.22
   6  -7   2   89.20    2.31
  -6  -7  -2   85.50    2.19
  -6  -7  -2   89.11    2.36
   6   7   2   86.50    2.22
   6   7   2   87.41    2.44
  -6   7  -2   88.86    2.47
  -6   7  -2   84.14    2.11
  -7  -7  -2    1.05    0.24
   7  -7   2    0.66    0.34
  -7  -7  -2    1.77    0.33
   7  -7   2    1.14    0.28
   7   7   2    1.31    0.32
  -7   7  -2    0.93    0.24
   8  -7   2    4.40    0.70
  -8  -7  -2    5.26    0.64
   8  -7   2    4.14    0.57
   8   7   2    4.03    0.58
  -8   7  -2    4.45    0.48
   8   7   2    4.44    0.70
   9  -8  -2   27.63    1.09
   9   8  -2   27.80    1.15
   9   8  -2   27.64    1.23
   8  -8  -2    0.84    0.29
   8  -8  -2    1.04    0.37
  -8  -8   2    1.13    0.27
   8   8  -2    1.74    0.43
   8   8  -2    1.48    0.32
   7  -8  -2    4.29    0.74
  -7  -8   2    4.30    0.46
   7  -8  -2    4.41    0.61
   7   8  -2    4.30    0.60
   6  -8  -2   11.19    0.76
  -6  -8   2   11.66    0.60
  -6   8   2   12.68    0.76
   5  -8  -2   22.64    0.94
  -5  -8   2   23.60    0.95
  -5   8   2   24.02    0.95
   5   8  -2   25.28    0.99
  -4  -8   2   14.89    0.66
   4  -8  -2   13.22    0.79
   4   8  -2   13.91    0.75
   3  -8  -2   18.25    0.80
  -3  -8   2   17.98    0.75
  -3   8   2   17.99    0.52
  -2  -8   2    1.40    0.26
  -2   8   2    2.60    0.41
  -1  -8   2   20.32    0.90
  -1   8   2   20.93    0.79
   0   8   2    0.07    0.19
   1   8   2    8.86    0.53
   2   8   2   28.51    0.96
   3  -8   2   16.24    0.76
   3  -8   2   17.93    0.76
  -3   8  -2   17.50    0.68
   3   8   2   18.07    0.89
   4  -8   2   -0.18    0.21
   4  -8   2    0.05    0.24
   4   8   2    0.08    0.24
  -4   8  -2    0.03    0.20
   5  -8   2   40.26    1.33
  -5  -8  -2   39.55    1.38
  -5   8  -2   38.00    1.32
  -5   8  -2   41.77    1.16
  -6  -8  -2   10.60    0.65
   6  -8   2   11.19    0.71
   6  -8   2    9.76    0.73
  -6   8  -2   11.36    0.76
   6   8   2    9.85    0.64
  -6   8  -2   11.27    0.56
   7  -8   2   13.39    0.79
   7  -8   2   11.70    0.86
  -7  -8  -2   12.42    0.71
   7   8   2   15.00    0.89
   7   8   2   12.44    1.10
   7  -9  -2    6.19    0.63
   7  -9  -2    4.97    0.73
   7   9  -2    4.65    0.70
  -6  -9   2   -0.22    0.29
   6  -9  -2    0.02    0.24
   6  -9  -2    0.21    0.30
  -6   9   2    0.75    0.30
   6   9  -2    0.19    0.33
  -5  -9   2   34.82    1.23
   5  -9  -2   36.53    1.26
   5   9  -2   34.77    1.28
  -5   9   2   36.33    1.26
  -4  -9   2   44.73    1.39
   4  -9  -2   45.67    1.47
   4   9  -2   43.81    1.47
  -4   9   2   47.07    1.93
  -3  -9   2   24.35    0.97
   3  -9  -2   22.37    0.97
  -3   9   2   23.88    0.95
   2  -9  -2    0.79    0.46
  -2  -9   2    1.69    0.30
   2   9  -2    1.31    0.40
  -2   9   2    1.82    0.33
   1  -9  -2   37.02    1.69
  -1  -9   2   36.22    1.22
   1   9  -2   36.38    1.30
   0  -9   2   50.86    1.54
   0  -9  -2   50.76    1.68
   0   9  -2   47.84    1.70
   1  -9   2   27.02    1.56
  -1  -9  -2   26.47    1.06
   2  -9   2   15.56    0.81
  -2  -9  -2   16.45    0.91
  -2   9  -2   15.31    0.64
  -2   9  -2   16.91    0.83
   3  -9   2    3.34    0.52
   3  -9   2    2.46    0.36
  -3   9  -2    3.09    0.51
  -3   9  -2    4.00    0.46
   4  -9   2    7.09    0.63
  -4   9  -2    7.61    0.65
   4   9   2    6.68    0.60
  -4   9  -2    8.00    0.48
   5  -9   2   24.87    1.06
   5  -9   2   26.03    1.09
  -5  -9  -2   26.07    1.06
   5   9   2   26.59    1.05
  -5   9  -2   26.68    1.10
  -5   9  -2   25.46    0.88
   6  -9   2   16.06    0.97
  -6  -9  -2   18.21    0.90
   6  -9   2   20.47    0.99
  -6   9  -2   18.49    1.57
   6   9   2   19.15    0.91
  -6 -10   2   13.91    0.79
   6 -10  -2   14.60    0.97
   6 -10  -2   12.95    1.21
  -6  10   2   12.40    0.97
   5 -10  -2    1.68    0.37
  -5 -10   2    2.66    0.43
   5  10  -2    2.61    0.49
  -5  10   2    2.86    0.46
   4 -10  -2    7.93    0.72
  -4 -10   2    8.13    0.69
  -4  10   2    9.72    0.73
   4  10  -2    7.29    0.74
   3 -10  -2   -0.46    0.25
  -3 -10   2    0.29    0.29
  -3  10   2   -0.20    0.28
   3  10  -2    0.52    0.33
  -2 -10   2   44.75    1.47
   2 -10  -2   44.09    1.49
  -2  10   2   44.57    1.45
   2  10  -2   45.24    1.51
   1 -10  -2    1.04    0.28
  -1 -10   2    0.99    0.29
  -1  10   2    1.49    0.35
   1  10  -2    0.66    0.34
   0 -10  -2   22.09    0.99
   0 -10   2   20.63    1.00
   0  10   2   24.53    1.27
   0  10  -2   22.54    1.02
   1 -10   2    4.65    0.60
  -1 -10  -2    4.20    0.60
  -1  10  -2    6.21    0.64
  -2 -10  -2    0.18    0.27
   2 -10   2    0.28    0.29
  -2  10  -2   -0.03    0.23
   2  10   2   -0.05    0.38
  -2  10  -2   -0.12    0.28
   3 -10   2    1.31    0.32
   3 -10   2    1.84    0.36
  -3 -10  -2    1.83    0.36
  -3  10  -2    2.20    0.40
  -3  10  -2    2.22    0.29
   3  10   2    1.68    0.38
  -4 -10  -2   41.24    1.44
   4 -10   2   41.47    1.46
   4  10   2   42.72    1.45
  -4  10  -2   41.92    2.00
   3 -11  -2   -0.21    0.30
  -3 -11   2   -0.34    0.31
   3  11  -2    0.36    0.36
  -3  11   2    0.07    0.46
   2 -11  -2   37.51    1.41
  -2 -11   2   36.47    1.43
   2  11  -2   37.09    1.66
  -2  11   2   38.14    1.36
   1 -11  -2   33.03    1.36
  -1 -11   2   34.85    1.82
  -1  11   2   34.84    1.32
   1  11  -2   32.67    1.69
   0 -11  -2    2.59    0.47
   0 -11   2    2.36    0.52
   0  11  -2    2.87    0.58
   1 -11   2    4.43    0.74
  -1 -11  -2    5.05    0.86
  -1  11  -2    5.78    0.75
   1  11   2    5.78    0.72
  13   0  -3    3.92    0.56
  12   0  -3    0.02    0.36
  11   0  -3   68.84    2.19
  10   0  -3   -0.48    0.24
 -10   0   3    0.00    0.18
   9   0  -3  123.49    3.18
  -9   0   3  123.97    2.88
  -8   0   3   -0.27    0.17
   8   0  -3    0.43    0.24
   7   0  -3  241.13    5.62
  -7   0   3  251.65    5.34
   6   0  -3   -0.18    0.14
   5   0  -3  358.00    7.65
   4   0  -3    0.24    0.05
   4   0  -3    0.15    0.09
   4   0  -3    0.12    0.08
   3   0  -3   41.84    1.01
   0   0  -3   -0.02    0.08
   0   0   3    0.02    0.08
   0   0   3    0.11    0.05
   0   0   3   -0.04    0.07
   0   0  -3   -0.03    0.07
   1   0   3 1000.00   20.82
  -2   0  -3    0.09    0.09
   2   0   3    0.01    0.11
   2   0   3    0.15    0.08
   3   0   3   78.35    1.89
   3   0   3   81.37    1.77
  -3   0  -3   77.53    1.85
  -4   0  -3    0.00    0.13
   4   0   3    0.12    0.18
  -5   0  -3  119.61    2.94
   6   0   3   -0.24    0.21
  -6   0  -3    0.16    0.17
   7   0   3   67.87    1.91
  -7   0  -3   67.91    1.80
   8   0   3    0.19    0.27
  -9   0  -3   33.10    1.42
   9   0   3   35.00    1.36
  10   0   3    0.11    0.36
 -10   0  -3    0.31    0.29
  11   0   3   11.48    1.00
 -11   0  -3   13.17    1.02
  12  -1  -3   57.17    2.03
  12   1  -3   59.72    1.94
  11  -1  -3    6.17    0.68
 -11   1   3    6.15    0.47
 -10  -1   3   33.73    1.10
  10  -1  -3   35.14    1.33
 -10   1   3   35.28    1.05
  10   1  -3   35.25    1.29
   9  -1  -3   41.49    1.44
  -9  -1   3   40.17    1.18
   9   1  -3   41.10    1.32
  -8  -1   3   27.21    0.86
   8  -1  -3   27.00    0.98
   8   1  -3   26.66    0.97
  -8   1   3   26.24    0.80
   7  -1  -3  101.68    2.54
   7  -1  -3  105.08    2.20
   7   1  -3  103.21    2.49
  -7   1   3  100.36    2.32
   6  -1  -3  389.38    8.23
   6  -1  -3  379.73    7.97
   6   1  -3  375.20    8.18
   5  -1  -3   20.38    0.68
   5  -1  -3   21.46    0.57
   5  -1  -3   20.96    0.52
   5   1  -3   20.21    0.65
   4  -1  -3    0.27    0.06
   4  -1  -3    0.35    0.07
   4  -1  -3    0.26    0.12
   4   1  -3    0.24    0.10
   4   1  -3    0.35    0.05
   3  -1  -3   56.14    1.27
   3   1  -3   58.26    1.24
   3   1  -3   55.69    1.28
   2   1  -3    2.46    0.12
   2   1  -3    2.45    0.15
   2   1  -3    2.50    0.18
   1  -1  -3  112.89    2.43
  -1  -1   3  115.10    2.44
   1   1  -3  114.96    2.46
   1   1  -3  112.54    2.39
   1   1  -3  112.39    2.45
   1  -1   3  158.94    3.27
   1  -1   3  152.08    3.29
  -1  -1  -3  154.14    3.35
  -1  -1  -3  152.08    3.31
   1   1   3  156.80    3.32
  -1   1  -3  150.26    3.27
   1   1   3  143.25    3.34
  -1   1  -3  158.97    3.30
  -1   1  -3  152.51    3.33
   2  -1   3   68.71    1.49
  -2  -1  -3   64.43    1.54
   2  -1   3   65.41    1.53
  -2   1  -3   64.86    1.48
  -2   1  -3   64.37    1.54
   2   1   3   63.88    1.57
  -2   1  -3   66.60    1.53
   3  -1   3   11.09    0.46
   3   1   3   10.81    0.50
  -3   1  -3   11.20    0.44
   4  -1   3  175.11    3.85
  -4  -1  -3  168.40    3.81
   4   1   3  172.12    3.88
  -4   1  -3  169.51    3.80
   5  -1   3   60.73    1.82
  -5  -1  -3   66.67    1.66
   5   1   3   64.80    1.72
   6  -1   3   18.53    0.80
  -6  -1  -3   18.11    0.71
  -6   1  -3   18.75    0.71
   6   1   3   18.70    0.83
  -7  -1  -3   23.58    0.85
   7  -1   3   24.23    0.96
   7   1   3   20.83    0.91
  -7   1  -3   24.36    0.85
  -8  -1  -3    0.98    0.27
   8  -1   3    1.52    0.38
   8   1   3    1.71    0.38
   9  -1   3   41.36    1.53
  -9  -1  -3   44.25    1.49
  -9   1  -3   43.32    1.37
   9   1   3   43.43    1.53
 -10  -1  -3    3.15    0.42
  10  -1   3    3.30    0.51
  10   1   3    3.85    0.70
 -10   1  -3    2.98    0.40
 -11  -1  -3   22.38    1.26
  11  -1   3   22.42    1.45
 -11   1  -3   22.35    1.03
  11   1   3   19.02    1.18
  12  -2  -3    2.61    0.49
  11  -2  -3    6.47    0.70
 -11   2   3    5.97    0.57
  10  -2  -3   62.39    1.90
  10   2  -3   62.71    1.86
 -10   2   3   63.75    1.63
   9  -2  -3    1.07    0.27
   9   2  -3    0.88    0.29
  -9   2   3    0.63    0.19
   8  -2  -3   24.56    0.93
   8  -2  -3   24.59    0.66
  -8   2   3   24.80    0.67
   8   2  -3   23.29    0.91
  -8   2   3   23.26    0.71
   7  -2  -3   62.93    1.71
   7  -2  -3   63.00    1.45
  -7   2   3   62.02    1.47
  -7   2   3   63.59    1.45
   7   2  -3   62.42    1.66
   6  -2  -3   50.65    1.16
   6  -2  -3   48.41    1.37
   6  -2  -3   48.52    1.16
   6   2  -3   49.76    1.32
  -6   2   3   49.47    1.16
   5  -2  -3  187.02    4.13
   5  -2  -3  196.37    4.09
   5  -2  -3  188.59    4.29
   5   2  -3  196.29    4.23
  -5   2   3  197.52    4.13
   4  -2  -3  220.04    4.80
  -4  -2   3  230.45    4.87
   4  -2  -3  231.59    4.77
  -4  -2   3  218.71    4.74
   4   2  -3  224.38    4.88
   4   2  -3  221.58    4.83
   4   2  -3  228.34    4.74
  -4   2   3  230.54    4.80
   3  -2  -3  258.75    5.59
  -3  -2   3  269.29    5.56
  -3  -2   3  255.23    5.55
   3  -2  -3  272.16    5.62
   3   2  -3  259.09    5.56
   3   2  -3  270.70    5.55
   3   2  -3  256.66    5.63
  -3   2   3  269.17    5.63
  -2  -2   3    2.66    0.18
   2  -2  -3    2.67    0.17
  -2  -2   3    3.02    0.27
   2  -2  -3    2.33    0.18
   2   2  -3    2.50    0.18
   2   2  -3    2.44    0.22
  -1  -2   3  457.75    9.50
   1  -2  -3  442.28    9.51
   1  -2  -3  466.66    9.44
  -1  -2   3  442.57    9.49
   1   2  -3  440.39    9.50
  -1   2   3  467.84    9.44
   1   2  -3  451.89    9.50
   0  -2   3  310.97    6.92
   0  -2  -3  333.44    6.82
   0  -2   3  327.30    6.83
   0  -2  -3  313.23    6.88
   0  -2   3  345.62    6.92
   0   2  -3  321.90    6.91
   0   2   3  340.09    6.89
   1  -2   3    5.40    0.30
   1  -2   3    4.88    0.23
   1  -2   3    4.34    0.26
  -1  -2  -3    4.74    0.24
   1   2   3    4.89    0.17
  -1   2  -3    4.58    0.26
   1   2   3    4.53    0.30
  -1   2  -3    4.47    0.25
  -1   2  -3    5.46    0.22
  -2  -2  -3  227.44    4.99
   2  -2   3  236.09    4.98
   2   2   3  233.15    4.88
   2   2   3  234.16    5.06
  -2   2  -3  226.16    4.96
  -2   2  -3  226.66    4.99
  -2   2  -3  241.39    4.97
  -3  -2  -3   46.86    1.21
   3  -2   3   48.45    1.22
  -3   2  -3   48.17    1.20
   3   2   3   45.73    1.27
  -3   2  -3   47.81    1.20
  -4  -2  -3  205.97    4.60
   4  -2   3  212.36    4.62
  -4   2  -3  206.56    4.57
   4   2   3  208.82    4.67
  -5  -2  -3    1.35    0.23
   5  -2   3    1.48    0.32
   5   2   3    1.13    0.28
   6  -2   3   51.98    1.50
  -6  -2  -3   50.06    1.42
  -6   2  -3   50.60    1.38
   6   2   3   50.62    1.51
   7  -2   3    0.35    0.23
  -7   2  -3    0.33    0.18
  -8  -2  -3   16.11    0.75
  -9  -2  -3    0.80    0.28
   9  -2   3    0.86    0.34
  -9   2  -3    1.52    0.30
   9   2   3    1.31    0.36
 -10  -2  -3   30.73    1.22
  10  -2   3   29.65    1.34
 -10   2  -3   31.00    1.17
  10   2   3   32.38    1.36
  12  -3  -3    0.09    0.42
  12   3  -3    0.19    0.36
  11  -3  -3    4.13    0.65
 -11   3   3    5.38    0.44
  11   3  -3    4.68    0.69
  10  -3  -3    3.32    0.33
  10   3  -3    4.32    0.56
 -10   3   3    3.34    0.41
   9  -3  -3   34.47    0.92
   9   3  -3   33.94    1.41
  -9   3   3   34.52    0.94
   8  -3  -3    9.04    0.41
  -8   3   3    9.48    0.39
   8   3  -3    9.59    0.59
   7  -3  -3   62.27    1.47
   7  -3  -3   61.19    1.69
   7  -3  -3   61.88    1.42
   7   3  -3   59.66    1.62
  -7   3   3   60.22    1.39
   7   3  -3   59.14    1.60
   6  -3  -3   19.94    0.78
   6  -3  -3   19.86    0.61
  -6  -3   3   19.98    0.49
   6  -3  -3   20.40    0.52
   6   3  -3   19.26    0.73
   6   3  -3   19.82    0.71
   5  -3  -3  917.82   19.32
   5   3  -3  931.83   19.36
   5   3  -3  917.93   19.41
   5   3  -3  932.24   19.22
  -4  -3   3    5.74    0.30
  -4  -3   3    6.00    0.25
   4  -3  -3    6.01    0.35
   4   3  -3    5.33    0.35
   4   3  -3    6.27    0.31
   4   3  -3    5.84    0.25
   3  -3  -3    9.81    0.38
  -3  -3   3    9.66    0.34
  -3  -3   3   10.19    0.33
   3   3  -3   10.20    0.35
   3   3  -3    9.96    0.43
   3   3  -3   10.08    0.34
   2  -3  -3    0.77    0.12
   2  -3  -3    1.07    0.14
  -2  -3   3    0.91    0.12
  -2   3   3    1.03    0.17
   2   3  -3    1.09    0.17
   1  -3  -3  708.36   14.06
  -1  -3   3  662.63   14.11
   1  -3  -3  672.73   14.13
   1   3  -3  652.43   14.12
   0  -3  -3  511.28   10.87
   0  -3  -3  510.84   10.80
   0  -3   3  489.24   10.86
   0  -3  -3  546.17   10.78
   0   3   3  537.10   10.80
   0   3  -3  503.05   10.86
   1  -3   3  175.73    3.85
  -1  -3  -3  176.67    3.84
  -1  -3  -3  178.85    3.73
  -1  -3  -3  171.04    3.80
   1  -3   3  173.80    3.77
  -1   3  -3  177.41    3.84
  -1   3  -3  177.46    3.83
   1   3   3  178.67    3.74
   1   3   3  173.64    3.90
  -2  -3  -3   18.22    0.58
  -2  -3  -3   18.13    0.59
   2  -3   3   18.66    0.56
   2  -3   3   18.51    0.61
  -2   3  -3   18.41    0.58
   2   3   3   18.50    0.67
  -2   3  -3   18.55    0.60
   2   3   3   19.08    0.51
   3  -3   3    4.72    0.33
  -3  -3  -3    5.30    0.34
   3  -3   3    4.83    0.33
  -3  -3  -3    4.77    0.30
  -3   3  -3    4.55    0.33
   3   3   3    4.47    0.42
   3   3   3    5.16    0.37
  -3   3  -3    4.92    0.32
   4  -3   3   60.67    1.55
   4  -3   3   60.03    1.53
   4   3   3   59.02    1.62
   4   3   3   59.71    1.42
  -4   3  -3   59.73    1.51
  -4   3  -3   59.37    1.50
  -5  -3  -3  137.12    3.19
   5   3   3  136.66    3.05
   5   3   3  136.98    3.28
   6  -3   3    5.53    0.52
  -6   3  -3    5.43    0.42
   6   3   3    4.59    0.39
   7  -3   3   77.73    2.15
  -7  -3  -3   81.42    1.96
  -7   3  -3   81.68    2.04
   7   3   3   79.22    1.96
   8  -3   3    0.65    0.31
  -8  -3  -3    0.44    0.29
   8   3   3    0.04    0.35
  -9  -3  -3   17.57    0.67
  -9  -3  -3   17.52    0.86
   9  -3   3   18.75    0.99
  -9   3  -3   16.14    0.79
   9   3   3   15.95    0.95
  10  -3   3   -0.36    0.36
 -10  -3  -3    0.49    0.31
 -10   3  -3    0.34    0.34
  10   3   3   -0.24    0.39
  10   3   3    1.28    0.31
  12  -4  -3   -0.66    0.35
  12   4  -3    0.09    0.35
  11  -4  -3   12.03    0.87
  11   4  -3   11.47    0.82
  11   4  -3   11.61    0.76
  10  -4  -3    2.03    0.38
  10  -4  -3    3.36    0.47
  10   4  -3    2.33    0.36
   9  -4  -3   27.25    0.84
   9   4  -3   26.39    0.98
   9   4  -3   25.94    1.01
   8  -4  -3   -0.19    0.17
   8   4  -3    0.37    0.22
   8   4  -3   -0.27    0.19
  -7  -4   3  158.11    3.39
   7  -4  -3  161.00    3.56
   7   4  -3  159.08    3.69
   6  -4  -3   21.24    0.70
   6  -4  -3   21.79    0.83
  -6  -4   3   21.75    0.59
   6   4  -3   22.12    0.59
   6   4  -3   21.71    0.76
   6   4  -3   21.39    0.79
   5  -4  -3  170.36    3.86
  -5  -4   3  171.96    3.76
   5   4  -3  185.03    3.84
   5   4  -3  173.38    3.86
   5   4  -3  172.89    3.95
  -4  -4   3    1.83    0.33
   4  -4  -3    2.22    0.27
  -4  -4   3    2.20    0.22
   4   4  -3    1.92    0.28
   4   4  -3    1.58    0.24
  -3  -4   3  281.65    5.98
   3  -4  -3  276.00    6.03
  -3  -4   3  292.23    5.93
   3   4  -3  268.83    5.92
  -3   4   3  277.85    6.01
   3   4  -3  283.83    6.06
  -2  -4   3   28.12    0.78
  -2  -4   3   29.54    0.70
   2   4  -3   28.18    0.84
  -2   4   3   27.53    0.77
   1  -4  -3   45.76    1.19
  -1  -4   3   48.44    1.06
   1  -4  -3   46.15    1.06
  -1  -4   3   45.93    1.17
  -1   4   3   47.14    1.07
  -1   4   3   45.74    1.12
   0  -4  -3   59.46    1.50
   0  -4  -3   63.13    1.42
   0  -4   3   59.82    1.49
   0  -4   3   61.14    1.38
   0  -4  -3   60.39    1.41
   0   4  -3   62.43    1.51
   0   4   3   61.32    1.42
   0   4   3   61.29    1.41
   1  -4   3   14.88    0.55
  -1  -4  -3   14.46    0.53
   1  -4   3   14.62    0.46
  -1  -4  -3   14.73    0.46
  -1  -4  -3   14.13    0.48
   1   4   3   14.55    0.46
  -1   4  -3   14.75    0.56
  -2  -4  -3  167.83    3.72
  -2  -4  -3  168.78    3.74
   2  -4   3  171.54    3.76
   2  -4   3  172.04    3.70
  -2   4  -3  170.56    3.75
   2   4   3  164.47    3.81
  -2   4  -3  163.46    3.71
   2   4   3  168.93    3.64
  -3  -4  -3  104.60    2.42
  -3  -4  -3  102.01    2.43
   3  -4   3  105.02    2.42
  -3   4  -3  104.76    2.40
   3   4   3  103.89    2.33
   3   4   3  105.66    2.58
  -3   4  -3  101.57    2.43
  -4  -4  -3  356.00    7.53
   4  -4   3  352.31    7.50
  -4  -4  -3  346.34    7.51
   4  -4   3  345.33    7.50
   4   4   3  336.94    7.37
  -4   4  -3  351.54    7.49
   4   4   3  341.74    7.59
  -4   4  -3  343.74    7.49
   5  -4   3   32.49    1.08
   5  -4   3   31.04    1.01
  -5  -4  -3   32.07    1.03
   5   4   3   33.70    0.93
  -5   4  -3   32.43    1.02
  -5   4  -3   33.60    1.00
   5   4   3   31.50    1.13
   6  -4   3  106.66    2.65
  -6  -4  -3  104.69    2.61
  -6  -4  -3  106.64    2.50
  -6   4  -3  106.87    2.53
   6   4   3  104.29    2.49
  -7  -4  -3   16.30    0.64
   7  -4   3   13.03    0.92
  -7   4  -3   15.55    0.67
   7   4   3   16.54    0.65
   7   4   3   11.65    0.81
  -8  -4  -3   40.90    1.16
  -8  -4  -3   40.07    1.33
   8  -4   3   40.16    1.42
   8   4   3   40.86    1.46
   8   4   3   39.89    1.20
  -9  -4  -3   18.99    0.91
   9  -4   3   18.28    1.09
  -9  -4  -3   19.20    0.73
   9   4   3   19.63    1.04
  -9   4  -3   18.80    0.83
  10  -4   3   24.34    1.25
 -10  -4  -3   25.47    1.17
 -10   4  -3   26.31    1.04
  10   4   3   26.14    1.37
  11  -5  -3    0.22    0.36
  11  -5  -3    0.36    0.26
  11   5  -3    0.16    0.32
  11   5  -3    0.12    0.35
  10  -5  -3   14.52    0.89
  10  -5  -3   14.54    0.63
  10   5  -3   14.72    0.81
  10   5  -3   14.02    0.81
   9  -5  -3    0.32    0.18
   9  -5  -3   -0.46    0.49
   9   5  -3    0.26    0.31
   9   5  -3    0.18    0.24
   8  -5  -3   19.13    0.70
  -8  -5   3   17.87    0.53
   8   5  -3   18.63    0.80
   7  -5  -3   29.57    0.92
  -7  -5   3   28.40    0.77
   7   5  -3   28.35    0.99
   7   5  -3   29.25    1.00
   6  -5  -3  131.48    3.22
  -6  -5   3  134.23    2.96
   6  -5  -3  135.86    3.08
   6   5  -3  131.97    3.08
   6   5  -3  132.85    3.15
  -5  -5   3    1.56    0.19
   5  -5  -3    1.47    0.34
   5   5  -3    2.63    0.42
   5   5  -3    1.40    0.22
   4  -5  -3    4.41    0.45
  -4  -5   3    4.54    0.33
   4   5  -3    5.09    0.33
   4   5  -3    5.04    0.45
  -4   5   3    4.83    0.40
  -3  -5   3   47.06    1.20
   3  -5  -3   45.57    1.25
  -3  -5   3   47.08    1.14
  -3   5   3   44.71    1.20
   3   5  -3   45.11    1.42
   2  -5  -3   36.48    1.05
  -2  -5   3   38.01    0.93
  -2  -5   3   37.46    1.01
  -2   5   3   34.90    0.98
  -2   5   3   37.43    0.84
   2   5  -3   36.50    1.09
  -1  -5   3    3.46    0.34
  -1  -5   3    5.15    0.29
  -1   5   3    3.84    0.30
   1   5  -3    5.11    0.43
  -1   5   3    4.50    0.25
   0  -5   3  126.03    2.91
   0  -5  -3  127.68    2.92
   0  -5  -3  128.91    2.80
   0   5   3  125.42    2.82
   0   5  -3  126.80    2.92
  -1  -5  -3    9.07    0.39
  -1  -5  -3    8.62    0.53
   1  -5   3    9.83    0.50
   1   5   3    9.21    0.41
  -1   5  -3    9.18    0.64
   2  -5   3  123.78    2.83
   2  -5   3  118.62    2.73
  -2  -5  -3  121.72    2.76
   2   5   3  120.79    2.71
  -2   5  -3  120.60    2.82
  -2   5  -3  119.70    2.75
   3  -5   3    0.95    0.20
   3  -5   3    0.98    0.21
  -3  -5  -3    1.11    0.22
  -3  -5  -3    1.11    0.20
   3   5   3    1.07    0.22
  -3   5  -3    1.36    0.26
   3   5   3    1.42    0.28
  -3   5  -3    1.13    0.21
  -4  -5  -3   52.79    1.44
   4  -5   3   53.99    1.47
  -4  -5  -3   53.82    1.43
   4  -5   3   54.59    1.47
  -4   5  -3   53.50    1.46
   4   5   3   52.92    1.36
   4   5   3   52.26    1.56
  -5  -5  -3   93.56    2.43
  -5  -5  -3   91.43    2.20
   5  -5   3   88.65    2.27
   5  -5   3   89.54    2.27
   5   5   3   88.76    2.37
  -5   5  -3   88.78    2.27
   5   5   3   91.17    2.16
  -5   5  -3   91.59    2.20
  -6  -5  -3    7.43    0.54
  -6  -5  -3    7.98    0.48
   6  -5   3    7.78    0.54
   6  -5   3    8.87    0.61
   6   5   3   10.01    0.81
   6   5   3    8.89    0.59
  -6   5  -3    8.70    0.50
  -7  -5  -3    4.22    0.40
  -7  -5  -3    3.24    0.49
   7   5   3    4.04    0.42
   7   5   3    3.45    0.67
  -7   5  -3    3.71    0.42
  -8  -5  -3   35.02    1.25
  -8  -5  -3   35.35    1.07
   8   5   3   34.31    1.35
   8   5   3   34.82    1.11
  -9  -5  -3    4.28    0.49
   9  -5   3    4.16    0.72
  -9  -5  -3    3.68    0.60
   9   5   3    3.30    0.43
  -9   5  -3    5.27    0.54
   9   5   3    5.11    0.78
  11  -6  -3   15.43    0.85
  11  -6  -3   16.39    1.08
  11   6  -3   15.17    1.14
  11   6  -3   16.01    0.93
  10  -6  -3    4.43    0.48
  10  -6  -3    3.95    0.71
  10   6  -3    4.42    0.65
   9  -6  -3    3.28    0.61
   9  -6  -3    3.44    0.43
   9   6  -3    3.45    0.46
   9   6  -3    2.94    0.50
   8  -6  -3    0.09    0.18
   8  -6  -3   -0.14    0.26
  -8  -6   3    0.17    0.17
   8   6  -3    0.44    0.28
   8   6  -3   -0.07    0.22
   7  -6  -3   38.78    1.16
  -7  -6   3   38.04    1.04
   7   6  -3   39.62    1.20
  -6  -6   3    1.18    0.20
   6  -6  -3    1.03    0.21
   6   6  -3    1.35    0.29
   6   6  -3    1.24    0.29
  -5  -6   3  149.59    3.37
   5  -6  -3  154.03    3.48
  -5   6   3  146.06    3.47
   5   6  -3  148.03    3.39
   5   6  -3  152.85    3.53
  -4  -6   3    0.58    0.20
   4  -6  -3    1.02    0.20
  -4   6   3    0.84    0.22
   4   6  -3    1.01    0.27
   3  -6  -3  123.03    2.85
  -3  -6   3  120.17    2.83
  -3   6   3  116.52    2.82
   3   6  -3  121.05    2.87
  -2  -6   3   77.64    2.08
   2  -6  -3   81.73    2.02
  -2   6   3   82.42    1.78
  -2   6   3   81.65    2.09
  -1  -6   3  196.40    4.30
   1  -6  -3  190.04    4.31
  -1   6   3  189.99    4.23
   1   6  -3  191.53    4.33
   0  -6   3   13.91    0.59
   0  -6  -3   13.56    0.59
   0   6  -3   13.75    0.65
   0   6   3   13.31    0.55
  -1  -6  -3    1.61    0.27
  -1  -6  -3    1.25    0.20
   1  -6   3    0.89    0.19
   1  -6   3    1.39    0.20
   1   6   3    1.52    0.24
  -2  -6  -3   93.67    2.25
   2  -6   3   91.02    2.17
   2  -6   3   91.55    2.26
  -2  -6  -3   88.41    2.26
   2   6   3   93.04    2.15
  -2   6  -3   91.88    2.27
  -2   6  -3   90.31    2.19
   3  -6   3   89.00    2.17
  -3  -6  -3   88.54    2.19
   3  -6   3   88.74    2.23
   3   6   3   89.18    2.12
  -3   6  -3   89.80    2.24
  -4  -6  -3   64.00    1.67
   4  -6   3   62.51    1.73
  -4  -6  -3   63.10    1.68
   4  -6   3   62.92    1.69
   4   6   3   63.09    1.63
   4   6   3   65.83    2.08
  -4   6  -3   63.81    1.63
  -4   6  -3   63.89    1.73
   5  -6   3   12.60    0.65
  -5  -6  -3   13.40    0.64
   5  -6   3   12.47    0.67
  -5  -6  -3   13.59    0.60
   5   6   3   13.06    0.70
   5   6   3   13.46    0.74
  -5   6  -3   13.46    0.67
  -5   6  -3   13.70    0.61
   6  -6   3   14.29    0.71
   6  -6   3   13.35    0.72
  -6  -6  -3   14.10    0.70
  -6  -6  -3   14.05    0.80
   6   6   3   14.64    0.64
   6   6   3   14.44    0.82
  -6   6  -3   14.87    0.73
  -6   6  -3   13.97    0.64
   7  -6   3   10.90    0.72
   7  -6   3    9.08    0.72
  -7  -6  -3    8.72    0.65
  -7  -6  -3    8.72    0.56
  -7   6  -3   10.05    0.58
   7   6   3   10.50    0.77
   7   6   3    9.04    0.82
  -8  -6  -3    1.74    0.34
   8  -6   3    1.47    0.40
   8   6   3    1.56    0.41
   9  -6   3   15.91    1.02
  -9  -6  -3   17.79    0.94
   9   6   3   15.76    0.93
   9   6   3   18.68    1.08
  -9   6  -3   17.77    0.94
  10  -7  -3    1.92    0.53
  10   7  -3    2.09    0.42
   9  -7  -3   26.89    0.99
   9  -7  -3   26.95    1.21
   9   7  -3   27.20    1.06
   9   7  -3   25.82    1.13
   8  -7  -3    1.27    0.34
  -8  -7   3    1.34    0.26
   8  -7  -3    1.07    0.23
   8   7  -3    1.28    0.36
   8   7  -3    1.48    0.28
   7  -7  -3    8.09    0.55
   7  -7  -3    8.28    0.84
   7   7  -3    9.66    0.77
   7   7  -3    8.30    0.52
  -6  -7   3   69.00    1.78
   6  -7  -3   74.92    2.31
   6   7  -3   69.15    1.94
   6   7  -3   70.20    1.84
  -5  -7   3  285.43    6.24
   5  -7  -3  290.45    6.36
  -5   7   3  281.82    6.38
   4  -7  -3   13.58    0.65
  -4  -7   3   13.57    0.60
  -4   7   3   13.07    0.67
  -3  -7   3    1.06    0.21
   3  -7  -3    1.11    0.22
  -3   7   3    1.12    0.24
  -2  -7   3  120.38    2.86
   2  -7  -3  121.31    2.92
  -2   7   3  120.99    2.62
  -2   7   3  119.76    2.82
  -1  -7   3   29.60    0.96
  -1   7   3   29.11    0.93
   0  -7   3    3.07    0.39
   0  -7  -3    3.29    0.38
   0   7   3    3.02    0.40
   1  -7   3   98.67    2.28
  -1  -7  -3   99.19    2.40
  -1   7  -3   91.38    2.62
   1   7   3   95.57    2.45
   2  -7   3    4.45    0.41
  -2  -7  -3    5.18    0.40
  -2  -7  -3    4.78    0.42
   2   7   3    4.31    0.44
  -2   7  -3    4.16    0.40
  -2   7  -3    3.91    0.46
  -3  -7  -3   15.00    0.65
   3  -7   3   14.65    0.80
  -3  -7  -3   15.15    0.63
  -3   7  -3   13.80    0.60
  -3   7  -3   14.00    0.69
   3   7   3   14.86    0.65
   4  -7   3    5.15    0.52
  -4  -7  -3    4.70    0.43
   4  -7   3    4.37    0.47
  -4  -7  -3    4.71    0.45
  -4   7  -3    5.07    0.42
   4   7   3    4.75    0.46
  -4   7  -3    4.46    0.52
   5  -7   3   79.49    2.14
   5  -7   3   78.77    2.11
   5   7   3   78.60    2.00
  -5   7  -3   79.75    2.20
   5   7   3   80.29    2.25
  -5   7  -3   80.59    2.01
   6  -7   3    0.09    0.25
  -6  -7  -3    0.51    0.26
   6   7   3    0.22    0.27
  -6   7  -3    0.49    0.30
   6   7   3   -0.09    0.28
  -6   7  -3    0.88    0.34
   7  -7   3   35.50    1.24
  -7  -7  -3   36.86    1.28
  -7  -7  -3   35.53    1.20
   7   7   3   35.07    1.36
  -8  -7  -3    0.31    0.27
   8  -7   3    0.22    0.35
  -8   7  -3    0.70    0.31
   9  -8  -3    4.28    0.76
   9  -8  -3    4.54    0.68
   8  -8  -3   38.13    1.46
   8  -8  -3   37.35    1.44
   8   8  -3   40.12    1.32
   8   8  -3   38.17    1.41
  -7  -8   3   -0.18    0.19
   7  -8  -3   -0.01    0.27
   7  -8  -3    0.23    0.28
   7   8  -3    0.16    0.30
  -6  -8   3   64.55    1.69
   6   8  -3   63.14    1.87
   5  -8  -3   -0.21    0.21
  -5  -8   3    0.14    0.20
  -5   8   3    0.65    0.26
   5   8  -3    0.48    0.30
   4  -8  -3  106.09    2.67
  -4  -8   3  106.53    2.57
   4   8  -3  102.22    2.67
  -3  -8   3   14.06    0.65
   3  -8  -3   13.26    0.83
  -3   8   3   12.97    0.63
   3   8  -3   10.68    0.83
  -2  -8   3   20.58    0.86
  -2   8   3   23.10    0.82
  -1   8   3   26.79    0.90
   0   8   3   69.94    1.80
   1   8   3    4.72    0.44
   2  -8   3   53.41    1.50
   2   8   3   54.03    1.46
  -2   8  -3   52.66    1.43
   3  -8   3   19.88    0.81
  -3  -8  -3   20.74    0.86
   3  -8   3   22.11    1.13
   3   8   3   21.23    0.80
  -3   8  -3   20.55    0.76
  -3   8  -3   19.84    1.02
   4  -8   3   83.42    2.24
  -4  -8  -3   81.61    2.17
   4  -8   3   83.07    2.16
   4   8   3   82.47    2.10
  -4   8  -3   83.02    2.24
  -4   8  -3   81.88    2.06
   5  -8   3    6.86    0.63
  -5  -8  -3    7.30    0.61
   5   8   3    5.86    0.51
  -5   8  -3    6.92    0.62
  -5   8  -3    6.80    0.52
  -6  -8  -3   28.57    1.08
   6  -8   3   28.24    1.12
   6  -8   3   27.32    1.12
  -6   8  -3   27.26    1.16
  -6   8  -3   26.06    0.93
   7  -8   3    2.84    0.39
   7  -8   3    3.25    0.50
  -7  -8  -3    4.52    0.66
  -7  -8  -3    2.77    0.38
   7   8   3    3.47    0.44
   8  -9  -3    8.66    0.72
   8  -9  -3    7.74    0.87
   8   9  -3    6.56    0.81
   7  -9  -3    2.32    0.38
   7  -9  -3    2.47    0.45
   7   9  -3    3.33    0.50
   6  -9  -3   21.79    1.09
   6   9  -3   21.75    1.03
  -6   9   3   21.35    0.95
   5  -9  -3    5.28    0.59
  -5  -9   3    5.69    0.78
  -5   9   3    5.85    0.63
   5   9  -3    5.87    0.66
   4  -9  -3    4.07    0.56
  -4  -9   3    4.37    0.52
  -4   9   3    5.58    0.73
   4   9  -3    4.12    0.63
   3  -9  -3    3.86    0.55
  -3  -9   3    4.77    0.54
   3   9  -3    5.06    0.61
  -3   9   3    5.68    0.54
   2  -9  -3   58.25    1.75
  -2  -9   3   61.19    1.73
  -2   9   3   58.70    1.85
   2   9  -3   59.94    1.89
   1  -9  -3   16.46    0.88
  -1  -9   3   15.96    0.82
   1   9  -3   17.01    1.01
   0  -9  -3   11.10    0.84
   0   9  -3   10.12    0.71
   1  -9   3   26.75    0.92
  -1  -9  -3   26.18    1.09
   1  -9   3   25.08    1.02
  -1   9  -3   25.89    1.05
   2  -9   3  104.53    2.68
  -2  -9  -3  104.07    2.66
   2  -9   3   98.50    2.64
  -2   9  -3  101.71    2.49
  -2   9  -3  102.82    2.69
   3  -9   3    4.71    0.53
   3  -9   3    6.64    0.61
  -3  -9  -3    4.99    0.62
  -3   9  -3    4.74    0.58
  -3   9  -3    5.76    0.47
   4  -9   3    2.75    0.39
  -4  -9  -3    2.17    0.36
   4   9   3    3.25    0.51
  -4   9  -3    2.96    0.44
  -4   9  -3    2.34    0.39
  -5  -9  -3   51.60    1.63
   5  -9   3   54.96    1.72
   5  -9   3   51.65    1.63
   5   9   3   52.10    1.55
  -5   9  -3   54.76    1.75
   6  -9   3    0.75    0.34
  -6  -9  -3    0.79    0.33
   6  -9   3    0.46    0.39
  -6   9  -3    0.88    0.38
   6 -10  -3    3.06    0.62
   6  10  -3    3.83    0.57
   5 -10  -3   23.69    1.06
  -5 -10   3   21.79    1.08
  -5  10   3   20.33    1.01
   5  10  -3   21.50    1.13
   4 -10  -3    0.04    0.30
  -4 -10   3    0.41    0.32
  -4  10   3    1.04    0.36
   4  10  -3    0.17    0.38
  -3 -10   3   52.49    1.65
   3 -10  -3   54.23    1.72
   3  10  -3   53.03    1.71
  -3  10   3   54.64    1.65
   2 -10  -3    1.59    0.34
  -2 -10   3    1.64    0.34
   2  10  -3    1.28    0.38
  -2  10   3    1.31    0.33
   1 -10  -3   10.38    0.71
  -1 -10   3   11.14    0.76
   1  10  -3    9.99    0.76
   0 -10  -3    0.74    0.29
   0 -10   3    0.40    0.28
   0  10   3    1.08    0.37
   0  10  -3    0.75    0.33
   1 -10   3    8.65    0.59
   1 -10   3    7.08    0.68
  -1 -10  -3    7.66    0.71
   1  10   3    7.22    0.68
  -1  10  -3    8.71    0.72
   2 -10   3    0.48    0.27
  -2 -10  -3    0.16    0.29
   2 -10   3   -0.13    0.27
   2  10   3    0.46    0.36
  -2  10  -3   -0.23    0.30
  -3 -10  -3    9.89    0.78
  -3  10  -3   11.16    1.31
   4 -10   3   -0.04    0.32
   4 -10   3    0.12    0.32
  -4 -10  -3    0.02    0.31
  -4  10  -3    0.39    0.34
   4  10   3    0.14    0.33
   2 -11  -3   11.61    0.84
  -2  11   3   11.56    0.79
   2  11  -3   11.91    0.87
   1 -11  -3    2.13    0.39
  -1  11   3    2.26    0.41
   1  11  -3    1.77    0.44
   0 -11   3   26.05    1.17
   0 -11  -3   25.11    1.16
   0  11  -3   25.32    1.17
   0  11   3   25.94    1.10
  13   0  -4   -0.14    0.75
  12   0  -4   56.82    1.88
  11   0  -4   -0.19    0.56
  10   0  -4   17.61    0.87
   9   0  -4    0.38    0.21
   8   0  -4  296.69    6.57
   7   0  -4    0.23    0.21
   6   0  -4  232.70    5.12
   5   0  -4   -0.07    0.11
   5   0  -4    0.11    0.05
   4   0  -4  304.61    6.49
   1   0  -4    0.03    0.08
   1   0  -4    0.13    0.07
   0   0  -4  486.84   10.10
   0   0  -4  468.21   10.04
   1   0   4    0.11    0.08
   1   0   4    0.27    0.12
  -1   0  -4    0.15    0.10
  -1   0  -4    0.09    0.06
  -1   0  -4    0.55    0.14
   2   0   4  334.19    7.39
  -2   0  -4  344.66    7.39
   2   0   4  360.32    7.28
   3   0   4    0.02    0.16
   3   0   4    0.19    0.12
  -3   0  -4    0.10    0.14
   4   0   4  156.32    3.58
  -5   0  -4   -0.02    0.16
   5   0   4   -0.30    0.20
   6   0   4   64.80    1.81
  -6   0  -4   64.73    1.73
   8   0   4   12.06    0.79
  -8   0  -4   11.58    0.67
   9   0   4   -0.50    0.29
  -9   0  -4   -0.08    0.25
  10   0   4   -0.45    0.36
 -10   0  -4    0.21    0.32
  13  -1  -4   16.66    1.09
  12  -1  -4   22.04    1.11
  12   1  -4   20.32    1.51
  11  -1  -4   29.38    1.25
  10  -1  -4  127.76    3.55
  10   1  -4  131.24    3.27
   9  -1  -4    1.81    0.35
   9   1  -4    1.69    0.30
   8  -1  -4  105.55    2.61
   8   1  -4  103.09    2.57
   7  -1  -4  196.03    4.75
   7  -1  -4  207.53    4.30
   7   1  -4  207.67    4.57
   6  -1  -4   87.38    2.13
   6  -1  -4   87.61    1.91
   6   1  -4   88.06    2.09
   5  -1  -4  139.66    3.02
   5  -1  -4  136.13    3.00
   5  -1  -4  138.20    3.16
   5   1  -4  142.24    3.11
   5   1  -4  142.28    2.95
   4  -1  -4    0.24    0.07
   4   1  -4    0.14    0.06
   4   1  -4    0.23    0.10
   3   1  -4  347.46    7.41
   3   1  -4  347.56    7.46
   3   1  -4  364.26    7.41
   2  -1  -4   17.54    0.47
   2   1  -4   17.44    0.50
   2   1  -4   17.96    0.50
   1  -1  -4   36.65    0.91
   1  -1  -4   37.75    0.95
  -1  -1   4   38.37    0.90
   1   1  -4   38.39    0.90
   1   1  -4   39.38    0.87
   0  -1   4  284.18    6.20
   0  -1  -4  294.33    6.25
   0  -1  -4  307.64    6.30
   0  -1   4  312.14    6.20
   0   1  -4  285.70    6.20
   0   1  -4  285.38    6.27
   0   1  -4  303.61    6.21
   0   1   4  286.67    6.28
   1  -1   4    7.34    0.28
   1  -1   4    7.11    0.31
  -1   1  -4    7.51    0.31
   1   1   4    6.78    0.35
  -1   1  -4    7.14    0.27
   2  -1   4  331.36    6.66
  -2  -1  -4  314.23    6.75
   2  -1   4  314.93    6.74
   2   1   4  311.03    6.78
  -2   1  -4  309.37    6.75
   2   1   4  321.02    6.59
  -2   1  -4  306.51    6.65
   3  -1   4  109.99    2.55
  -3  -1  -4  109.65    2.54
  -3   1  -4  109.54    2.54
   3   1   4  108.71    2.59
   3   1   4  112.97    2.39
  -4  -1  -4  282.12    6.15
   4  -1   4  290.47    6.15
   4   1   4  269.14    6.30
   5  -1   4    2.72    0.46
  -5   1  -4    1.85    0.26
   5   1   4    1.91    0.31
   6  -1   4   45.95    1.40
  -6   1  -4   45.95    1.32
   6   1   4   45.03    1.42
   8  -1   4   -0.14    0.27
  -8  -1  -4    0.27    0.27
  -8   1  -4    0.22    0.23
   8   1   4    0.38    0.34
  -9  -1  -4    7.84    0.64
   9  -1   4    6.61    0.74
   9   1   4    6.07    0.74
  -9   1  -4    9.09    0.67
  10  -1   4   32.65    1.43
 -10  -1  -4   32.54    1.27
 -10   1  -4   29.20    1.22
  10   1   4   31.85    1.77
  12   2  -4   15.07    0.94
  11  -2  -4   18.17    0.97
  11   2  -4   18.02    0.94
  10  -2  -4   17.11    0.88
  10   2  -4   17.17    0.86
   9  -2  -4   21.73    0.59
   9  -2  -4   21.51    0.94
   9   2  -4   21.71    0.88
   8  -2  -4    0.24    0.11
   8  -2  -4    0.10    0.20
   8   2  -4   -0.08    0.24
   7  -2  -4    0.03    0.10
   7  -2  -4    0.05    0.18
   7   2  -4   -0.14    0.18
   6  -2  -4   21.76    0.81
   6  -2  -4   22.41    0.62
   6  -2  -4   23.59    0.60
   6   2  -4   22.12    0.73
   5  -2  -4  441.77    9.66
   5  -2  -4  464.42    9.61
   5   2  -4  479.21    9.94
   5   2  -4  463.57    9.59
   5   2  -4  451.35    9.71
   4  -2  -4  109.16    2.30
   4  -2  -4  106.51    2.39
  -4  -2   4  109.81    2.37
   4   2  -4  110.08    2.34
   4   2  -4  105.27    2.45
   4   2  -4  106.58    2.37
   3  -2  -4   -0.01    0.07
   3  -2  -4    0.19    0.11
   3  -2  -4    0.07    0.06
   3   2  -4    0.01    0.08
   3   2  -4    0.04    0.12
   3   2  -4    0.15    0.07
   2  -2  -4    0.25    0.08
   2  -2  -4    0.25    0.07
   2  -2  -4    0.25    0.09
   2   2  -4    0.36    0.13
   2   2  -4    0.27    0.11
   0  -2   4   61.53    1.40
   0  -2  -4   60.11    1.40
   0  -2   4   59.43    1.32
   0   2  -4   58.35    1.39
   0   2  -4   58.36    1.43
   0   2  -4   62.20    1.32
  -1  -2  -4   70.45    1.71
   1  -2   4   73.99    1.66
  -1   2  -4   73.41    1.69
  -1   2  -4   77.55    1.66
   1   2   4   72.47    1.77
  -1   2  -4   73.85    1.74
  -2  -2  -4   27.27    0.79
   2  -2   4   27.84    0.80
   2   2   4   28.05    0.64
  -2   2  -4   26.54    0.74
   2   2   4   26.43    0.84
  -2   2  -4   27.24    0.80
   3  -2   4  267.73    5.79
  -3  -2  -4  265.51    5.81
   3   2   4  267.92    5.87
  -3   2  -4  271.69    5.81
   3   2   4  265.14    5.63
  -3   2  -4  265.94    5.73
   4  -2   4   13.01    0.61
  -4  -2  -4   12.85    0.57
   4   2   4   12.98    0.67
  -4   2  -4   12.58    0.66
  -5  -2  -4  116.17    2.77
   5  -2   4  119.62    2.81
  -5   2  -4  114.77    2.74
   5   2   4  113.18    2.85
   6  -2   4    6.08    0.54
   6   2   4    6.37    0.54
  -6   2  -4    6.65    0.47
   7   2   4    7.89    0.68
   8  -2   4    0.32    0.29
  -8  -2  -4   -0.05    0.26
   8   2   4   -0.11    0.32
  -8   2  -4    0.17    0.23
  -9  -2  -4   44.95    1.49
   9  -2   4   44.24    1.64
   9   2   4   46.44    1.66
  -9   2  -4   45.32    1.47
  10  -2   4    0.93    0.45
  10   2   4    0.70    0.47
 -10   2  -4    0.39    0.32
  12  -3  -4    4.06    0.56
  12   3  -4    4.21    0.67
  11  -3  -4   -0.06    0.28
  11   3  -4   -0.11    0.31
  11   3  -4    0.25    0.25
  10  -3  -4   54.18    1.98
  10  -3  -4   57.74    1.36
  10   3  -4   56.02    1.69
  10   3  -4   55.24    2.11
   9  -3  -4    0.13    0.22
   9  -3  -4   -0.03    0.14
   9   3  -4   -0.25    0.21
   8  -3  -4   28.68    1.05
   8  -3  -4   28.83    0.81
   8   3  -4   29.23    1.00
   7  -3  -4   17.21    0.75
   7  -3  -4   17.58    0.49
   7  -3  -4   17.05    0.56
   7   3  -4   17.72    0.69
   7   3  -4   16.68    0.71
   6  -3  -4  134.34    3.14
   6  -3  -4  130.48    2.93
   6   3  -4  131.17    3.00
   6   3  -4  134.95    2.83
   6   3  -4  129.91    3.06
   5  -3  -4    5.33    0.32
  -5  -3   4    4.98    0.25
   5   3  -4    5.24    0.26
   5   3  -4    5.70    0.43
   5   3  -4    5.40    0.34
  -4  -3   4  216.04    4.69
  -4  -3   4  222.57    4.68
   4  -3  -4  218.97    4.76
   4   3  -4  217.51    4.95
   4   3  -4  228.52    4.70
   4   3  -4  217.02    4.69
   3  -3  -4   96.08    2.19
  -3  -3   4   95.23    2.13
   3   3  -4   95.17    2.21
   3   3  -4   95.53    2.05
   2  -3  -4  208.05    4.46
   2  -3  -4  216.67    4.61
   2  -3  -4  221.06    4.52
  -2  -3   4  205.96    4.56
   2   3  -4  208.32    4.60
  -1  -3   4  199.36    4.38
   1  -3  -4  198.99    4.29
   1  -3  -4  198.54    4.39
   1  -3  -4  213.24    4.28
  -1   3   4  210.73    4.30
  -1   3   4  196.25    4.27
   1   3  -4  195.83    4.38
   0  -3  -4  457.78    9.60
   0  -3   4  457.24    9.43
   0  -3  -4  469.95    9.44
   0  -3  -4  444.36    9.52
   0  -3   4  440.43    9.58
   0   3   4  449.40    9.44
   0   3  -4  449.44    9.56
   1  -3   4    1.01    0.16
  -1  -3  -4    0.94    0.15
  -1  -3  -4    0.89    0.16
   1   3   4    0.61    0.17
  -1   3  -4    0.93    0.19
  -1   3  -4    1.49    0.25
   1   3   4    1.10    0.14
  -2  -3  -4   17.67    0.61
   2  -3   4   17.85    0.64
   2  -3   4   18.67    0.58
   2   3   4   17.41    0.70
  -2   3  -4   18.10    0.62
   2   3   4   18.16    0.48
  -2   3  -4   18.15    0.61
  -3  -3  -4   32.73    1.00
   3  -3   4   34.52    0.97
  -3   3  -4   32.70    0.94
   3   3   4   35.32    0.83
   3   3   4   31.62    1.19
  -3   3  -4   33.68    0.98
   4  -3   4  475.13   10.12
  -4  -3  -4  468.37   10.12
   4   3   4  461.34    9.94
  -4   3  -4  488.80   10.11
   4   3   4  471.19   10.22
  -4   3  -4  473.43   10.08
   5  -3   4    1.32    0.30
  -5  -3  -4    1.08    0.23
   5   3   4    1.43    0.21
   5   3   4    1.15    0.26
  -5   3  -4    1.39    0.24
   6  -3   4    3.42    0.48
  -6   3  -4    3.60    0.41
   6   3   4    4.27    0.35
   7   3   4   58.04    1.53
  -8  -3  -4    1.52    0.32
   8  -3   4    1.21    0.36
  -8  -3  -4    1.63    0.24
  -8   3  -4    1.59    0.32
   8   3   4    2.36    0.38
   8   3   4    1.39    0.38
  -9  -3  -4   -0.10    0.22
  -9  -3  -4    0.45    0.27
   9  -3   4   -0.44    0.51
   9   3   4    0.01    0.35
  -9   3  -4   -0.11    0.27
   9   3   4    0.41    0.26
 -10  -3  -4   36.03    1.36
  10  -3   4   35.55    2.11
  10   3   4   34.82    1.52
  10   3   4   34.90    1.19
 -10   3  -4   35.47    1.29
  12  -4  -4   25.11    1.26
  12   4  -4   25.00    1.16
  12   4  -4   24.06    1.28
  11  -4  -4    9.16    0.78
  11   4  -4   10.81    0.73
  10  -4  -4   12.95    0.84
  10  -4  -4   14.31    0.60
  10   4  -4   13.34    0.75
  10   4  -4   13.84    0.75
   9  -4  -4   13.96    0.57
   9  -4  -4   10.49    0.87
   9   4  -4   13.51    0.69
   9   4  -4   12.66    0.73
   8  -4  -4   83.89    2.01
   8   4  -4   84.10    2.13
   7  -4  -4    8.65    0.46
   7  -4  -4    7.94    0.57
   7   4  -4    8.56    0.32
   7   4  -4    9.25    0.56
   6  -4  -4   54.53    1.39
  -6  -4   4   54.54    1.27
   6   4  -4   54.88    1.41
   6   4  -4   55.13    1.28
   6   4  -4   54.90    1.50
   5  -4  -4  165.03    3.66
  -5  -4   4  161.17    3.56
   5   4  -4  164.84    3.61
   5   4  -4  166.95    3.75
   4  -4  -4   38.02    1.03
  -4  -4   4   38.26    0.93
  -4  -4   4   37.06    0.96
   4   4  -4   35.73    1.18
   4   4  -4   37.85    0.93
  -3  -4   4    5.78    0.32
  -3  -4   4    6.03    0.24
   3   4  -4    5.70    0.42
   2  -4  -4   94.81    2.21
  -2  -4   4   92.19    2.17
   2  -4  -4   94.37    2.03
  -2   4   4   98.07    2.03
   2   4  -4   92.99    2.21
  -2   4   4   92.84    2.12
   1  -4  -4    0.73    0.11
   1  -4  -4    0.98    0.16
  -1  -4   4    0.65    0.15
   1   4  -4    0.72    0.20
  -1   4   4    0.78    0.13
   0  -4  -4   19.59    0.57
   0  -4  -4   18.41    0.56
   0  -4  -4   19.00    0.65
   0  -4   4   19.56    0.50
   0  -4   4   18.25    0.64
   0   4  -4   19.50    0.66
   0   4   4   18.98    0.53
  -1  -4  -4  220.84    4.57
  -1  -4  -4  218.71    4.74
  -1  -4  -4  211.64    4.66
   1  -4   4  216.99    4.60
   1  -4   4  213.91    4.74
  -1   4  -4  216.88    4.71
  -1   4  -4  210.28    4.71
   1   4   4  212.19    4.57
   2  -4   4  141.34    3.24
  -2  -4  -4  138.76    3.35
  -2  -4  -4  140.08    3.19
   2  -4   4  145.46    3.15
   2   4   4  140.33    3.31
  -2   4  -4  140.07    3.21
   2   4   4  143.55    3.07
  -2   4  -4  143.71    3.22
   3  -4   4   26.38    0.83
  -3  -4  -4   26.77    0.85
   3  -4   4   26.88    0.87
  -3  -4  -4   25.95    0.86
   3   4   4   26.48    0.73
   3   4   4   26.22    0.96
   4  -4   4   34.10    1.06
  -4  -4  -4   33.43    1.05
   4  -4   4   33.87    1.07
  -4  -4  -4   34.53    1.03
  -4   4  -4   35.85    1.05
  -4   4  -4   35.81    1.05
   4   4   4   34.21    0.98
   4   4   4   33.66    1.15
  -5  -4  -4  156.85    3.75
  -5  -4  -4  162.31    3.68
   5  -4   4  168.29    3.77
  -5   4  -4  160.13    3.90
  -5   4  -4  162.40    3.71
   5   4   4  159.87    3.57
  -6  -4  -4   69.70    1.78
  -6  -4  -4   69.43    1.93
   6  -4   4   70.27    1.96
   6   4   4   67.94    1.71
  -6   4  -4   70.14    1.82
  -7  -4  -4   24.55    0.86
   7   4   4   24.58    0.83
  -8  -4  -4    1.67    0.27
  -8  -4  -4    1.77    0.34
   8   4   4    1.64    0.30
  -8   4  -4    1.81    0.33
   8   4   4    1.27    0.36
   9  -4   4   22.53    1.15
  -9  -4  -4   21.63    1.04
   9   4   4   23.39    1.22
  -9   4  -4   23.64    1.06
  11  -5  -4   23.79    1.20
  11   5  -4   23.15    1.11
  11   5  -4   23.37    1.09
  10  -5  -4    7.23    0.71
  10  -5  -4    7.12    0.48
  10   5  -4    7.43    0.64
  10   5  -4    7.31    0.62
   9  -5  -4    1.07    0.41
   9  -5  -4    1.42    0.22
   9   5  -4    0.92    0.27
  -8  -5   4    3.56    0.25
   8  -5  -4    3.09    0.37
   8   5  -4    3.87    0.46
   7  -5  -4  158.18    3.55
  -7  -5   4  150.43    3.37
   7   5  -4  157.59    3.58
   6  -5  -4    9.49    0.50
  -6  -5   4    9.78    0.41
   6   5  -4    9.29    0.51
   5  -5  -4  136.65    3.06
  -5  -5   4  129.05    2.94
   5   5  -4  133.35    3.12
   5   5  -4  128.85    2.95
  -4  -5   4    7.90    0.41
   4  -5  -4    8.69    0.48
  -4  -5   4    8.45    0.40
   4   5  -4    7.94    0.53
  -3  -5   4  371.67    7.63
   3  -5  -4  362.93    7.83
  -3  -5   4  352.00    7.75
   3   5  -4  368.31    7.84
  -3   5   4  355.16    7.73
  -2  -5   4    8.86    0.46
   2  -5  -4    9.05    0.49
  -2  -5   4    9.16    0.32
  -2   5   4    9.00    0.40
  -2   5   4    9.30    0.30
   2   5  -4    9.31    0.55
  -1  -5   4   74.23    1.90
   1  -5  -4   76.73    1.73
  -1  -5   4   79.11    1.69
   1  -5  -4   77.10    1.90
  -1  -5   4   77.66    1.69
  -1   5   4   74.95    1.78
  -1   5   4   77.51    1.73
   0  -5  -4    8.82    0.48
   0  -5   4    8.78    0.33
   0  -5   4    8.64    0.47
   0  -5  -4    8.38    0.36
   0   5   4    8.72    0.38
   0   5  -4    8.57    0.61
  -1  -5  -4    2.80    0.29
  -1  -5  -4    2.65    0.33
   1  -5   4    2.71    0.25
   1  -5   4    2.69    0.35
  -1   5  -4    3.47    0.41
   1   5   4    3.09    0.28
  -2  -5  -4   14.48    0.60
  -2  -5  -4   13.24    0.57
   2  -5   4   13.91    0.53
   2  -5   4   14.13    0.61
  -2   5  -4   14.58    0.64
   2   5   4   14.26    0.50
  -2   5  -4   13.42    0.66
   3  -5   4   84.30    2.06
  -3  -5  -4   87.26    2.11
   3  -5   4   84.57    2.13
  -3  -5  -4   85.76    2.09
   3   5   4   84.81    2.01
  -3   5  -4   84.55    2.11
   3   5   4   83.94    2.46
  -3   5  -4   86.70    2.09
  -4  -5  -4   -0.04    0.15
  -4  -5  -4    0.08    0.16
   4  -5   4   -0.06    0.25
  -4   5  -4    0.12    0.17
   4   5   4   -0.38    0.18
  -4   5  -4    0.11    0.18
  -5  -5  -4    4.14    0.43
   5  -5   4    4.61    0.49
   5  -5   4    4.68    0.45
  -5  -5  -4    4.53    0.40
  -5   5  -4    5.10    0.44
  -5   5  -4    4.88    0.41
   5   5   4    4.52    0.38
   6  -5   4   24.75    0.96
  -6  -5  -4   22.85    0.84
  -6  -5  -4   22.16    0.91
   6   5   4   21.33    1.00
  -6   5  -4   24.33    0.87
  -7  -5  -4    1.51    0.32
   7  -5   4    1.55    0.36
  -7  -5  -4    1.33    0.24
   7   5   4    1.52    0.36
   7   5   4    1.39    0.29
   8  -5   4    1.31    0.39
  -8  -5  -4    1.16    0.33
   8   5   4    0.60    0.33
   8   5   4    1.30    0.31
  -8   5  -4    1.24    0.30
  -9  -5  -4   29.93    1.20
   9  -5   4   27.87    1.26
  -9  -5  -4   28.93    1.06
   9   5   4   27.92    1.31
  -9   5  -4   26.08    1.08
  11  -6  -4   20.85    1.00
  11  -6  -4   22.18    1.17
  11   6  -4   21.21    1.02
  11   6  -4   20.55    1.11
  10  -6  -4    7.69    0.53
  10  -6  -4    8.36    0.77
  10   6  -4    6.35    0.73
  10   6  -4    7.75    0.65
   9  -6  -4    4.05    0.45
   9  -6  -4    5.03    0.62
   9   6  -4    5.64    0.61
   9   6  -4    5.27    0.53
  -8  -6   4   18.38    0.60
   8  -6  -4   18.14    0.73
   8   6  -4   18.58    0.75
  -7  -6   4    0.61    0.18
   7  -6  -4    0.10    0.17
   7   6  -4    0.51    0.27
   6  -6  -4   24.69    0.85
  -6  -6   4   24.34    0.76
   6   6  -4   23.98    0.80
  -5  -6   4   33.95    0.99
   5  -6  -4   33.86    1.05
   4  -6  -4   34.59    1.03
  -4  -6   4   30.09    1.07
  -4   6   4   33.00    1.00
  -3  -6   4   18.54    0.59
   3  -6  -4   18.47    0.72
  -3  -6   4   17.81    0.70
   3   6  -4   18.51    0.80
  -2  -6   4   24.49    0.69
  -2  -6   4   25.05    0.84
   2  -6  -4   25.22    0.86
  -2   6   4   24.09    0.80
   2   6  -4   25.05    0.91
  -2   6   4   24.95    0.63
  -1  -6   4   12.03    0.57
   1  -6  -4   12.79    0.58
  -1  -6   4   12.94    0.46
   1   6  -4   12.88    0.63
  -1   6   4   12.69    0.53
   0  -6   4   96.23    2.34
   0  -6   4   95.29    2.16
   0  -6  -4   97.74    2.20
   0  -6  -4   95.91    2.35
   0   6   4   95.84    2.22
   0   6  -4   94.60    2.36
  -1  -6  -4   16.38    0.66
  -1  -6  -4   16.57    0.59
   1  -6   4   15.94    0.55
  -1   6  -4   15.25    0.69
   1   6   4   15.40    0.57
   2  -6   4   66.76    1.63
  -2  -6  -4   66.95    1.67
  -2  -6  -4   65.54    1.73
   2   6   4   64.75    1.60
  -2   6  -4   65.29    1.75
  -2   6  -4   66.50    1.68
   3  -6   4   32.02    1.07
  -3  -6  -4   33.62    1.05
  -3  -6  -4   33.86    1.02
   3  -6   4   32.72    1.01
   3   6   4   32.96    0.95
  -3   6  -4   33.62    1.01
  -3   6  -4   32.98    1.08
   4  -6   4    7.06    0.56
  -4  -6  -4    6.37    0.48
   4  -6   4    7.17    0.51
   4   6   4    6.72    0.58
   4   6   4    6.19    0.45
  -4   6  -4    7.08    0.46
  -4   6  -4    7.06    0.50
   5  -6   4   35.94    1.19
  -5  -6  -4   34.99    1.15
  -5  -6  -4   37.39    1.18
   5  -6   4   36.51    1.19
  -5   6  -4   36.84    1.21
  -5   6  -4   36.44    1.13
   5   6   4   36.38    1.30
  -6  -6  -4    4.19    0.62
   6  -6   4    5.89    0.86
   6   6   4    6.10    0.47
  -6   6  -4    6.36    0.65
   6   6   4    7.33    0.66
  -7  -6  -4   13.65    0.69
   7  -6   4   12.42    0.81
  -7  -6  -4   12.34    0.75
   7   6   4   13.38    0.89
   7   6   4   12.69    0.63
  -7   6  -4   11.85    0.68
   8  -6   4    5.15    0.73
  -8  -6  -4    4.93    0.57
   8   6   4    6.73    1.21
  10  -7  -4   28.27    1.37
  10  -7  -4   30.38    1.23
  10   7  -4   30.57    1.92
   9  -7  -4    3.76    0.50
   9  -7  -4    2.92    0.45
   9   7  -4    3.93    0.66
   9   7  -4    4.14    0.53
   8  -7  -4   21.09    1.03
  -8  -7   4   20.35    0.76
   8  -7  -4   21.06    0.86
   8   7  -4   20.86    0.97
   8   7  -4   21.64    0.90
   7  -7  -4    5.87    0.50
   7  -7  -4    6.77    0.74
   7   7  -4    6.56    0.75
   7   7  -4    5.85    0.73
  -6  -7   4   23.36    0.82
   6  -7  -4   24.24    0.91
   6   7  -4   22.72    1.03
   5  -7  -4   10.52    0.60
  -5  -7   4    8.93    0.54
  -5   7   4    9.98    0.56
   4  -7  -4   42.81    1.29
  -4  -7   4   42.41    1.22
  -4   7   4   42.99    1.24
   3  -7  -4    7.15    0.49
  -3  -7   4    7.30    0.46
  -3   7   4    6.97    0.44
   2  -7  -4    8.88    0.67
  -2  -7   4    9.52    0.54
  -2   7   4   10.21    0.51
  -1  -7   4   31.26    1.00
  -1   7   4   30.19    1.06
   1   7  -4   28.91    1.03
   0  -7   4   21.07    0.81
   0  -7   4   21.39    0.66
   0   7   4   20.46    0.81
   0   7  -4   20.39    0.84
  -1  -7  -4    0.45    0.22
   1  -7   4    0.97    0.19
   1   7   4    0.75    0.23
  -1   7  -4    0.63    0.25
  -2  -7  -4   56.94    1.48
   2  -7   4   55.84    1.46
  -2   7  -4   56.33    1.50
  -2   7  -4   56.30    1.60
   2   7   4   54.96    1.50
  -3  -7  -4    0.99    0.21
   3  -7   4    1.00    0.24
  -3   7  -4    0.97    0.27
  -3   7  -4    1.16    0.23
  -4  -7  -4   90.95    2.32
   4  -7   4   92.40    2.30
   4  -7   4   92.19    2.44
  -4   7  -4   91.15    2.38
  -4   7  -4   87.66    2.36
   4   7   4   94.92    2.25
  -5  -7  -4    7.75    0.56
   5  -7   4    6.72    0.60
   5  -7   4    7.00    0.60
  -5  -7  -4    7.50    0.58
  -5   7  -4    7.74    0.63
  -5   7  -4    5.92    0.53
   5   7   4    7.25    0.61
  -6  -7  -4   13.90    0.74
   6  -7   4   14.07    0.79
   6   7   4   13.75    0.65
   6   7   4   13.99    0.87
  -6   7  -4   14.28    0.80
   7  -7   4    0.18    0.37
  -7  -7  -4    0.34    0.30
  -7   7  -4   -0.27    0.27
   7   7   4    0.13    0.33
   9  -8  -4   27.18    1.34
   9  -8  -4   25.59    1.05
   9   8  -4   25.90    1.31
   9   8  -4   27.49    1.06
   8  -8  -4    2.67    0.37
   8  -8  -4    2.69    0.45
   8   8  -4    2.87    0.51
  -7  -8   4    7.24    0.49
   7  -8  -4    8.02    0.74
   7  -8  -4    7.93    0.62
   7   8  -4    7.18    0.70
  -6  -8   4   18.02    0.75
   6   8  -4   17.65    0.91
  -5  -8   4  152.60    3.52
   5  -8  -4  151.00    3.64
  -5   8   4  145.98    3.63
   5   8  -4  155.07    4.12
  -4  -8   4    4.00    0.46
   4  -8  -4    4.68    0.50
   3  -8  -4    1.26    0.25
  -3  -8   4    1.36    0.28
  -3   8   4    1.86    0.28
  -2   8   4   -0.16    0.19
  -1   8   4   84.92    2.11
   0  -8   4    4.38    0.38
   0  -8  -4    3.65    0.46
   0  -8   4    3.52    0.48
   0   8  -4    3.35    0.48
   0   8   4    4.78    0.43
   1  -8   4   28.84    1.06
   1  -8   4   29.95    0.92
  -1  -8  -4   29.63    1.05
   1   8   4   30.10    0.95
  -1   8  -4   29.47    1.09
   2  -8   4    8.00    0.61
  -2  -8  -4   10.03    0.62
  -2   8  -4    8.82    0.53
  -2   8  -4    9.16    0.72
   2   8   4    9.29    0.53
   3  -8   4    7.36    0.54
  -3  -8  -4    8.57    0.51
  -3  -8  -4    8.41    0.61
   3  -8   4    7.48    0.61
  -3   8  -4    6.67    0.61
  -3   8  -4    6.10    0.49
   3   8   4    6.77    0.49
  -4  -8  -4   11.23    0.65
   4  -8   4   11.71    0.68
   4  -8   4   11.77    0.74
   4   8   4   12.57    0.63
  -4   8  -4   12.48    0.74
  -5  -8  -4   47.27    1.50
  -5  -8  -4   48.76    1.53
   5  -8   4   50.02    1.58
   5   8   4   49.49    1.41
  -5   8  -4   48.44    1.57
   6  -8   4   10.28    0.75
  -6  -8  -4    8.76    0.70
  -6  -8  -4    8.43    0.69
   6  -8   4    8.18    0.75
  -6   8  -4    8.51    0.64
  -6   8  -4    9.10    0.74
   7  -9  -4    4.83    0.61
   7  -9  -4    4.96    0.80
   7   9  -4    5.62    0.90
  -6  -9   4   24.94    1.08
   6   9  -4   25.39    1.13
  -5  -9   4   26.69    1.00
   5  -9  -4   25.41    1.05
   5   9  -4   25.23    1.11
  -5   9   4   25.87    1.06
  -4  -9   4    8.96    0.62
   4  -9  -4    7.24    0.64
  -4   9   4    7.49    0.60
   4   9  -4    6.22    0.69
   3  -9  -4   71.42    2.06
  -3  -9   4   75.80    2.01
   3   9  -4   71.87    2.08
  -3   9   4   73.97    1.96
  -2  -9   4    1.29    0.36
   2  -9  -4    1.71    0.32
   2   9  -4    2.15    0.41
   1  -9  -4   15.31    0.83
  -1  -9   4   17.29    0.99
   1   9  -4   14.59    0.83
   0  -9   4   43.16    1.42
   0  -9  -4   42.85    1.41
   0  -9   4   43.28    1.22
   0   9   4   41.60    1.27
   0   9  -4   44.96    1.45
  -1  -9  -4   15.77    0.83
   1  -9   4   15.13    0.82
  -1   9  -4   15.44    0.83
   1   9   4   15.03    0.71
   2  -9   4   14.83    0.71
   2  -9   4   15.15    0.84
  -2  -9  -4   13.93    0.82
   2   9   4   16.45    0.71
  -2   9  -4   16.08    0.85
   3  -9   4   14.47    0.71
  -3  -9  -4   15.08    0.84
   3  -9   4   14.44    0.82
  -3   9  -4   13.12    0.82
   3   9   4   12.65    0.74
  -3   9  -4   14.46    0.82
  -4  -9  -4   28.38    1.15
   4  -9   4   30.03    1.21
  -4   9  -4   29.40    1.04
  -4   9  -4   29.65    1.20
   5  -9   4    0.29    0.31
   5  -9   4    0.61    0.33
  -5  -9  -4    0.13    0.29
  -5   9  -4    0.29    0.30
  -5   9  -4    0.04    0.40
   5   9   4    0.50    0.34
  -5 -10   4    2.21    0.38
   5 -10  -4    2.28    0.60
   5  10  -4    1.56    0.63
  -5  10   4    2.43    0.43
   4 -10  -4    0.78    0.32
  -4 -10   4    1.09    0.32
   4  10  -4    1.16    0.42
  -4  10   4    1.87    0.46
   3 -10  -4    2.82    0.41
  -3 -10   4    2.63    0.40
  -3  10   4    2.94    0.45
   3  10  -4    3.95    0.65
   2 -10  -4   69.38    2.05
  -2 -10   4   69.19    2.01
   2  10  -4   70.28    2.07
  -2  10   4   68.85    2.43
   1 -10  -4    0.25    0.27
  -1 -10   4    0.49    0.30
   1  10  -4    0.51    0.36
  -1  10   4    1.27    0.34
   0 -10  -4    2.40    0.39
   0 -10   4    1.95    0.39
   0  10  -4    3.01    0.46
   0  10   4    3.74    0.56
   1 -10   4   11.20    0.82
  -1 -10  -4   10.28    0.81
  -1  10  -4   11.04    0.79
   1  10   4   11.22    0.68
  -1  10  -4   10.66    0.73
  -2 -10  -4   48.35    1.61
  -2  10  -4   44.85    1.43
   2  10   4   46.50    1.42
  -3 -10  -4   14.76    1.07
   3 -10   4   15.02    0.91
   3  10   4   14.86    0.80
  -3  10  -4   14.66    0.91
  -3  10  -4   15.11    0.88
  13   0  -5   26.57    1.50
  12   0  -5   -0.48    0.35
  10   0  -5   -0.35    0.26
   9   0  -5   45.99    1.41
   8   0  -5    0.18    0.21
   7   0  -5  280.41    6.16
   6   0  -5    0.29    0.07
   6   0  -5    0.12    0.15
   5   0  -5   77.18    1.84
   2   0  -5    0.02    0.08
   1   0  -5  134.92    2.97
   1   0  -5  137.11    2.94
   1   0  -5  131.54    2.86
   0   0  -5    0.06    0.10
   0   0   5    0.13    0.07
   0   0  -5    0.19    0.14
   0   0   5    0.04    0.10
   0   0  -5    0.10    0.07
   1   0   5  148.33    3.40
   1   0   5  160.79    3.26
  -1   0  -5  154.15    3.43
   2   0   5    0.17    0.11
  -2   0  -5   -0.08    0.13
   2   0   5   -0.10    0.14
   3   0   5    9.54    0.53
  -3   0  -5    9.27    0.57
   3   0   5   10.34    0.39
   4   0   5   -0.16    0.22
  -4   0  -5   -0.03    0.15
  -5   0  -5   13.21    0.62
   5   0   5   13.53    0.70
   6   0   5    0.18    0.24
  -7   0  -5  132.74    3.23
   7   0   5  131.63    3.48
  -8   0  -5   -0.05    0.26
   8   0   5    0.30    0.32
   9   0   5    0.44    0.37
  -9   0  -5    0.62    0.32
  13  -1  -5    5.88    0.98
  13   1  -5    5.67    0.83
  12  -1  -5   30.07    1.29
  12   1  -5   30.30    1.29
  11   1  -5   19.06    0.94
  10  -1  -5   31.20    1.21
  10   1  -5   31.06    1.16
   9  -1  -5   31.03    1.10
   9   1  -5   31.66    1.08
   8  -1  -5  217.91    4.96
   8   1  -5  218.11    4.91
   7  -1  -5   58.98    1.76
   7  -1  -5   60.42    1.36
   7   1  -5   61.56    1.58
   6  -1  -5   10.17    0.41
   6  -1  -5    9.80    0.50
   6   1  -5   10.36    0.47
   6   1  -5   10.39    0.32
   5  -1  -5    4.15    0.22
   5  -1  -5    3.98    0.34
   5  -1  -5    4.34    0.26
   5   1  -5    4.28    0.21
   5   1  -5    4.35    0.28
   4  -1  -5    0.10    0.08
   4   1  -5    0.16    0.13
   4   1  -5    0.39    0.09
   4   1  -5    0.29    0.10
   3   1  -5    1.12    0.15
   2  -1  -5  150.56    3.26
   2   1  -5  151.24    3.20
   2   1  -5  149.81    3.26
  -1  -1   5   25.84    0.67
   1  -1  -5   25.94    0.71
   1   1  -5   24.75    0.74
   1   1  -5   26.89    0.66
   1   1  -5   27.81    0.68
   0  -1   5   29.02    0.76
   0  -1  -5   29.37    0.81
   0  -1   5   31.63    0.74
   0   1  -5   30.60    0.77
   0   1  -5   29.02    0.83
   0   1  -5   30.10    0.74
   1  -1   5   15.29    0.51
   1  -1   5   15.89    0.46
  -1  -1  -5   14.77    0.54
   1   1   5   15.47    0.56
  -1   1  -5   16.13    0.53
  -1   1  -5   15.71    0.45
   2  -1   5   78.78    1.72
   2  -1   5   75.42    1.98
  -2  -1  -5   74.53    1.86
  -2   1  -5   74.38    1.84
   2   1   5   73.93    1.85
  -2   1  -5   75.61    1.70
  -3  -1  -5    2.28    0.34
   3  -1   5    2.30    0.36
   3   1   5    1.71    0.27
  -3   1  -5    2.30    0.35
   3   1   5    2.96    0.22
   4  -1   5    8.31    0.64
  -4  -1  -5    7.90    0.47
   4   1   5   10.38    0.49
  -4   1  -5    8.12    0.50
   4   1   5    8.33    0.58
   5  -1   5   35.58    1.14
  -5   1  -5   33.09    1.07
   5   1   5   33.45    1.15
   6  -1   5   26.68    1.00
   6   1   5   23.03    1.14
  -7  -1  -5   16.14    0.82
   7  -1   5   20.88    1.21
  -7   1  -5   20.82    0.86
   7   1   5   21.00    0.97
  -8  -1  -5   13.22    0.77
   8  -1   5   14.02    0.90
   8   1   5   14.34    0.90
  -8   1  -5   14.15    0.77
   9  -1   5   44.16    1.63
  -9  -1  -5   45.65    1.52
  -9   1  -5   44.53    1.51
   9   1   5   45.10    1.68
  12  -2  -5    2.05    0.42
  12   2  -5    2.55    0.45
  11  -2  -5    6.89    0.68
  11   2  -5    5.51    0.64
  10  -2  -5  128.70    3.28
  10   2  -5  129.74    3.21
   9  -2  -5   11.25    0.39
   9  -2  -5   11.68    0.68
   9   2  -5   11.49    0.64
   8  -2  -5   -0.08    0.18
   8  -2  -5   -0.05    0.11
   7  -2  -5   39.02    0.99
   7  -2  -5   40.63    1.23
   7   2  -5   40.46    1.15
   6  -2  -5  327.17    7.51
   6  -2  -5  328.69    7.16
   6  -2  -5  353.01    7.12
   6   2  -5  337.74    7.23
   6   2  -5  325.39    7.32
   6   2  -5  355.07    7.07
   5  -2  -5    7.73    0.28
   5  -2  -5    7.41    0.33
   5   2  -5    7.91    0.35
   5   2  -5    7.10    0.43
   5   2  -5    7.65    0.30
   4  -2  -5   33.91    0.88
   4   2  -5   32.59    0.93
   4   2  -5   34.40    0.85
   4   2  -5   33.77    0.82
   3  -2  -5   20.57    0.58
   3  -2  -5   22.47    0.64
   3  -2  -5   20.74    0.55
   3   2  -5   21.12    0.65
   3   2  -5   20.43    0.50
   2  -2  -5   92.85    1.98
   2  -2  -5   90.58    2.01
   2   2  -5   89.69    2.07
   1  -2  -5   37.29    0.94
   1   2  -5   38.58    0.96
  -1  -2  -5   60.64    1.48
   1  -2   5   60.30    1.41
  -1   2  -5   62.62    1.42
  -1   2  -5   59.76    1.43
   1   2   5   59.02    1.53
  -1   2  -5   59.95    1.51
  -2  -2  -5    1.95    0.29
  -2   2  -5    1.89    0.25
  -2   2  -5    1.92    0.24
   2   2   5    1.55    0.25
  -3  -2  -5    0.43    0.19
   3  -2   5    0.09    0.20
  -3   2  -5    0.48    0.15
   3   2   5    0.29    0.12
  -3   2  -5    0.27    0.17
   3   2   5    0.60    0.26
   4  -2   5  235.73    5.16
  -4  -2  -5  228.72    5.15
   4   2   5  236.78    4.93
  -4   2  -5  230.81    5.14
   4   2   5  224.70    5.21
  -5  -2  -5    0.95    0.22
   5  -2   5    0.87    0.27
   5   2   5    1.58    0.30
  -5   2  -5    1.14    0.25
   6  -2   5   25.78    1.00
  -7   2  -5    0.70    0.26
   7   2   5    0.80    0.31
   8  -2   5    6.44    0.81
  -8  -2  -5    6.28    0.59
  -8   2  -5    5.04    0.60
   8   2   5    4.64    0.70
  -9  -2  -5    0.30    0.30
   9  -2   5   -0.26    0.35
  -9   2  -5   -0.22    0.31
   9   2   5    0.21    0.37
  12  -3  -5    1.13    0.38
  12   3  -5    0.98    0.40
  12   3  -5    1.01    0.35
  11  -3  -5    5.76    0.68
  11   3  -5    6.36    0.59
  11   3  -5    4.97    0.64
  10  -3  -5    4.07    0.37
  10  -3  -5    5.91    0.82
  10   3  -5    3.64    0.53
   9  -3  -5   49.44    1.23
   9  -3  -5   48.83    1.56
   9   3  -5   49.86    1.45
   8  -3  -5   68.35    1.92
   8  -3  -5   68.97    1.63
   7  -3  -5   42.04    1.03
   7  -3  -5   43.56    1.10
   7  -3  -5   42.62    1.31
   7   3  -5   42.48    1.19
   7   3  -5   42.36    1.25
   6  -3  -5   15.35    0.54
   6   3  -5   15.49    0.46
   6   3  -5   15.14    0.65
   6   3  -5   15.18    0.57
   5  -3  -5  396.56    8.62
   5   3  -5  420.55    8.56
   5   3  -5  399.97    8.56
   4  -3  -5   53.81    1.34
   4   3  -5   52.79    1.39
   4   3  -5   54.24    1.22
   3  -3  -5   45.59    1.18
   3  -3  -5   45.20    1.02
   3   3  -5   45.17    1.19
   2  -3  -5   44.56    1.02
   2  -3  -5   42.62    1.14
   2  -3  -5   44.34    1.03
   2   3  -5   42.53    1.14
   1  -3  -5  992.40   20.65
   1   3  -5  979.36   20.61
   0  -3  -5   26.58    0.76
   0  -3   5   28.06    0.65
   0   3  -5   27.16    0.82
   0   3  -5   25.25    0.80
  -1  -3  -5  128.51    2.95
   1  -3   5  131.64    2.87
  -1   3  -5  131.92    3.00
  -1   3  -5  135.01    2.87
  -1   3  -5  128.73    2.94
   2  -3   5    1.14    0.19
  -2  -3  -5    1.16    0.22
  -2   3  -5    1.32    0.22
  -2   3  -5    1.22    0.26
   2   3   5    0.74    0.23
  -3  -3  -5  163.17    3.71
   3  -3   5  166.21    3.67
  -3   3  -5  164.72    3.71
   3   3   5  163.31    3.48
  -3   3  -5  160.78    3.64
   3   3   5  160.83    3.79
   4  -3   5   76.27    1.96
  -4  -3  -5   77.84    1.97
   4   3   5   77.03    1.74
   4   3   5   76.30    2.05
  -4   3  -5   77.17    1.95
  -5  -3  -5   83.24    2.11
   5  -3   5   84.56    2.12
  -5   3  -5   83.03    2.09
   5   3   5   72.82    2.18
   5   3   5   84.10    1.88
  -6  -3  -5    0.49    0.24
   6  -3   5    0.23    0.32
   6   3   5    0.72    0.22
   6   3   5    0.79    0.30
  -7  -3  -5    7.84    0.61
   7  -3   5    7.60    0.75
   7   3   5    8.30    0.71
  -7   3  -5    7.73    0.59
   8  -3   5   10.05    1.04
  -8  -3  -5    8.47    0.67
   8   3   5    8.06    0.78
   8   3   5   10.19    0.52
  -8   3  -5    7.94    0.68
  -9  -3  -5   51.89    1.49
   9  -3   5   52.72    1.81
   9   3   5   45.84    1.64
  -9   3  -5   52.75    1.65
  12  -4  -5    4.18    0.76
  12   4  -5    3.19    0.50
  12   4  -5    3.15    0.49
  11  -4  -5    2.76    0.44
  11   4  -5    3.79    0.58
  11   4  -5    3.29    0.57
  10  -4  -5   12.46    0.56
  10  -4  -5   11.63    0.79
  10   4  -5   11.72    0.73
  10   4  -5   11.01    0.69
   9  -4  -5    2.12    0.35
   9  -4  -5    2.35    0.39
   9   4  -5    2.17    0.31
   8  -4  -5    4.03    0.49
   8  -4  -5    4.37    0.40
   7  -4  -5  200.71    4.41
   7  -4  -5  198.58    4.63
   7   4  -5  201.44    4.26
   7   4  -5  198.98    4.44
   6  -4  -5  176.35    3.94
   6   4  -5  177.50    3.93
   6   4  -5  177.57    4.05
   5  -4  -5    0.13    0.17
  -5  -4   5    0.31    0.15
   5   4  -5    0.15    0.14
   5   4  -5    0.20    0.23
  -4  -4   5   62.80    1.54
  -4  -4   5   65.28    1.43
   4  -4  -5   64.46    1.62
   4   4  -5   66.17    1.69
   4   4  -5   64.13    1.43
  -3  -4   5  182.32    4.08
   3  -4  -5  189.13    4.14
   3   4  -5  186.92    4.16
   2  -4  -5  112.96    2.61
  -2  -4   5  109.62    2.55
   2  -4  -5  108.97    2.42
  -2   4   5  114.27    2.42
   2   4  -5  111.76    2.60
   1  -4  -5   65.08    1.46
  -1  -4   5   64.94    1.60
   1  -4  -5   62.49    1.48
   1   4  -5   63.22    1.60
  -1   4   5   62.81    1.45
   0  -4   5   19.93    0.99
   0  -4  -5   21.07    0.65
   0  -4  -5   22.72    0.57
   0   4  -5   21.15    0.73
   0   4   5   21.70    0.56
  -1  -4  -5  143.75    3.31
   1  -4   5  145.75    3.15
  -1  -4  -5  141.85    3.24
   1  -4   5  147.21    3.32
  -1   4  -5  145.17    3.34
   1   4   5  143.54    3.09
  -1   4  -5  144.76    3.28
   2  -4   5    9.00    0.43
  -2  -4  -5    8.35    0.46
  -2   4  -5    9.27    0.49
  -2   4  -5    7.46    0.54
   2   4   5    8.90    0.33
   2   4   5    7.73    0.55
  -3  -4  -5    2.09    0.32
   3  -4   5    1.57    0.25
  -3  -4  -5    1.91    0.25
   3   4   5    1.31    0.28
   3   4   5    2.01    0.24
  -3   4  -5    1.76    0.27
   4  -4   5   47.54    1.37
  -4  -4  -5   45.74    1.35
  -4  -4  -5   48.65    1.34
   4   4   5   46.99    1.16
  -4   4  -5   47.14    1.31
  -4   4  -5   48.13    1.35
   5  -4   5    9.42    0.60
  -5  -4  -5    9.02    0.52
  -5  -4  -5    9.19    0.58
   5   4   5    9.47    0.45
  -5   4  -5   10.22    0.53
  -5   4  -5   10.85    0.58
   6  -4   5   51.72    1.52
  -6  -4  -5   49.23    1.49
  -6  -4  -5   50.75    1.41
   6   4   5   44.83    1.75
   6   4   5   49.29    1.27
   7  -4   5   52.49    1.66
  -7  -4  -5   53.55    1.64
   7   4   5   52.64    1.48
   7   4   5   54.29    1.76
  -7   4  -5   53.39    1.59
  -8  -4  -5   30.79    1.08
  -8  -4  -5   32.41    1.22
   8  -4   5   29.72    1.36
  -8   4  -5   31.77    1.19
   8   4   5   33.05    1.37
   8   4   5   30.19    0.99
   9  -4   5    0.15    0.39
  -9  -4  -5    1.18    0.36
  -9  -4  -5    0.74    0.35
   9   4   5    0.64    0.41
  -9   4  -5    0.64    0.33
  11  -5  -5    1.65    0.43
  11   5  -5    1.80    0.40
  11   5  -5    0.81    0.34
  10  -5  -5    6.84    0.46
  10  -5  -5    5.45    0.66
  10   5  -5    5.52    0.58
  10   5  -5    6.55    0.64
   9  -5  -5    2.14    0.37
   9  -5  -5    2.80    0.37
   9   5  -5    2.24    0.42
   9   5  -5    2.23    0.37
   8  -5  -5   78.66    1.94
   8   5  -5   77.42    2.01
  -7  -5   5   23.07    0.69
   7  -5  -5   24.30    0.82
   7   5  -5   24.72    0.81
   6  -5  -5    4.35    0.39
  -6  -5   5    4.48    0.31
   6   5  -5    4.63    0.35
  -5  -5   5    8.91    0.41
   5  -5  -5    8.71    0.48
  -5  -5   5    8.15    0.42
   5   5  -5    8.81    0.38
   5   5  -5    8.09    0.56
  -4  -5   5    0.91    0.24
   4  -5  -5    0.82    0.19
  -4  -5   5    0.70    0.13
   4   5  -5    0.77    0.26
   3  -5  -5   74.22    1.86
  -3  -5   5   74.00    1.80
   3   5  -5   72.72    1.88
   2  -5  -5   59.08    1.32
  -2  -5   5   51.98    1.77
   2  -5  -5   58.25    1.53
   2   5  -5   58.85    1.56
  -2   5   5   59.52    1.41
  -2   5   5   59.59    1.32
   1  -5  -5    0.51    0.13
  -1  -5   5    0.05    0.16
   1  -5  -5    0.29    0.16
  -1   5   5    0.39    0.15
   1   5  -5    0.52    0.25
   0  -5   5    0.30    0.16
   0  -5   5    0.19    0.11
   0  -5  -5    0.21    0.14
   0   5   5    0.20    0.14
   0   5  -5    0.05    0.21
   1  -5   5    0.03    0.15
   1  -5   5   -0.01    0.13
  -1  -5  -5   -0.13    0.14
  -1  -5  -5    0.00    0.13
  -1  -5  -5    0.29    0.17
   1   5   5    0.00    0.14
  -1   5  -5   -0.16    0.16
  -1   5  -5   -0.07    0.21
   2  -5   5  224.93    4.79
  -2  -5  -5  222.49    4.87
   2  -5   5  206.32    5.11
  -2  -5  -5  219.93    4.92
  -2   5  -5  224.41    4.91
   2   5   5  219.41    4.70
  -2   5  -5  222.08    4.90
  -3  -5  -5   -0.09    0.15
   3  -5   5   -0.10    0.18
   3  -5   5   -0.22    0.17
  -3  -5  -5   -0.04    0.19
   3   5   5    0.03    0.16
  -3   5  -5    0.11    0.17
  -3   5  -5    0.16    0.18
  -4  -5  -5   14.23    0.64
  -4  -5  -5   13.81    0.64
  -4   5  -5   15.74    0.67
   4   5   5   14.08    0.53
  -4   5  -5   15.00    0.71
   5  -5   5    7.12    0.55
  -5  -5  -5    5.91    0.70
  -5  -5  -5    5.82    0.55
   5   5   5    6.11    0.43
  -5   5  -5    6.94    0.51
  -6  -5  -5   55.11    1.84
   6  -5   5   49.59    1.62
   6   5   5   55.74    1.77
   6   5   5   54.68    1.43
  -6   5  -5   60.02    1.61
  -7  -5  -5   -0.05    0.23
   7  -5   5   -0.09    0.30
  -7  -5  -5    0.05    0.27
   7   5   5    0.43    0.31
   7   5   5   -0.18    0.26
   8  -5   5    4.41    0.73
  -8  -5  -5    5.27    0.86
  -8  -5  -5    4.16    0.67
  -8   5  -5    5.28    0.73
  11  -6  -5    7.27    0.84
  11   6  -5    8.14    1.13
  11   6  -5    7.45    0.80
  10  -6  -5   21.61    0.82
  10  -6  -5   21.65    1.10
  10   6  -5   20.58    1.03
  10   6  -5   21.59    0.91
   9  -6  -5   31.52    1.24
   9  -6  -5   27.90    0.97
   9   6  -5   29.63    1.10
   9   6  -5   29.54    1.17
   8  -6  -5    0.62    0.20
   8  -6  -5    0.37    0.26
  -8  -6   5    0.68    0.18
   8   6  -5    0.24    0.28
   8   6  -5    0.66    0.24
  -7  -6   5   28.97    0.85
   7  -6  -5   30.98    0.99
   7   6  -5   29.90    0.96
  -6  -6   5   26.40    0.82
   6  -6  -5   27.23    0.91
   6   6  -5   26.98    0.81
  -5  -6   5   22.53    0.88
   5  -6  -5   24.10    0.85
  -4  -6   5   47.62    1.13
   4  -6  -5   45.69    1.33
  -4  -6   5   47.41    1.28
   4   6  -5   46.81    1.39
   3  -6  -5    4.09    0.40
  -3  -6   5    5.33    0.40
  -3   6   5    4.65    0.40
   3   6  -5    4.67    0.49
   2  -6  -5   10.67    0.55
  -2  -6   5   10.62    0.54
  -2   6   5   11.43    0.49
  -2   6   5   11.40    0.40
   2   6  -5   11.77    0.64
   1  -6  -5   39.18    1.38
  -1  -6   5   39.81    1.16
   1   6  -5   38.98    1.20
  -1   6   5   38.24    1.03
   0  -6   5   13.77    0.45
   0  -6  -5   13.99    0.52
   0  -6   5   13.78    0.62
   0   6   5   14.09    0.51
   0   6  -5   13.35    0.65
   1  -6   5   74.99    1.71
  -1  -6  -5   73.36    1.91
  -1  -6  -5   70.66    1.89
   1   6   5   71.84    1.71
  -1   6  -5   72.63    1.86
  -1   6  -5   73.76    1.91
  -2  -6  -5    0.23    0.16
   2  -6   5    0.01    0.18
  -2  -6  -5    0.09    0.15
   2   6   5    0.21    0.17
  -2   6  -5    0.21    0.17
  -2   6  -5   -0.11    0.19
  -3  -6  -5    1.49    0.23
   3  -6   5    1.41    0.26
   3  -6   5    0.77    0.24
   3   6   5    1.77    0.23
  -3   6  -5    1.51    0.26
  -3   6  -5    1.16    0.26
   4  -6   5   11.24    0.65
   4  -6   5   10.63    0.64
  -4  -6  -5   11.37    0.59
  -4   6  -5   10.61    0.60
  -4   6  -5   10.07    0.57
   4   6   5   10.72    0.51
  -5  -6  -5    2.47    0.40
  -5  -6  -5    2.82    0.44
   5  -6   5    2.73    0.37
  -5   6  -5    2.54    0.37
   5   6   5    2.54    0.33
   5   6   5    3.55    0.56
  -6  -6  -5    8.80    0.68
  -6  -6  -5    9.92    0.65
  -6   6  -5   10.71    0.75
   6   6   5   10.24    0.58
   6   6   5   10.20    0.78
   7  -6   5    9.87    0.95
  -7  -6  -5    9.68    0.76
  -7   6  -5   11.32    0.74
   7   6   5   12.14    0.88
  10  -7  -5    0.65    0.37
  10  -7  -5    0.84    0.34
  10   7  -5    1.50    0.46
  10   7  -5    1.18    0.33
   9  -7  -5    9.26    0.63
   9  -7  -5   11.77    0.83
   9   7  -5   11.66    0.65
   9   7  -5   10.95    0.81
   8  -7  -5   14.93    0.88
   8  -7  -5   15.48    0.74
   8   7  -5   16.78    0.89
   8   7  -5   16.43    0.70
   7  -7  -5   16.22    0.74
  -7  -7   5   15.78    0.64
   7   7  -5   14.51    0.83
  -6  -7   5    4.12    0.56
   6  -7  -5    4.78    0.48
  -5  -7   5  121.66    2.87
   5  -7  -5  122.98    2.99
   4  -7  -5    2.52    0.39
  -4  -7   5    2.13    0.27
  -4   7   5    2.90    0.35
  -3  -7   5    0.03    0.16
   3  -7  -5    0.32    0.18
   3   7  -5    0.47    0.27
  -3   7   5    0.45    0.21
   2  -7  -5    5.39    0.55
  -2  -7   5    7.15    0.50
  -2   7   5    6.39    0.48
   2   7  -5    7.34    0.57
  -1  -7   5  167.37    3.99
  -1  -7   5  175.91    3.70
   1   7  -5  174.88    4.02
  -1   7   5  171.76    3.86
   0  -7  -5    0.40    0.17
   0  -7   5    0.34    0.17
   0   7  -5    0.30    0.24
   0   7   5    0.73    0.22
  -1  -7  -5    8.61    0.48
   1  -7   5    7.78    0.43
  -1   7  -5    8.22    0.51
   1   7   5    8.34    0.46
  -1   7  -5    7.92    0.55
  -2  -7  -5    7.49    0.44
  -2  -7  -5    7.03    0.52
   2  -7   5    6.99    0.47
  -2   7  -5    7.33    0.49
  -2   7  -5    6.00    0.69
   2   7   5    7.45    0.45
   3  -7   5   10.82    0.93
  -3  -7  -5   11.19    0.58
   3  -7   5   10.06    0.62
  -3  -7  -5    9.83    0.61
   3   7   5   10.87    0.55
  -3   7  -5   10.07    0.63
   4  -7   5   10.12    0.65
  -4  -7  -5   10.36    0.60
  -4  -7  -5    9.62    0.64
   4  -7   5    9.77    0.68
  -5  -7  -5   38.96    1.73
   5  -7   5   37.50    1.24
  -5  -7  -5   38.73    1.28
   5  -7   5   37.31    1.31
  -5   7  -5   36.78    1.24
   5   7   5   39.26    1.12
  -6  -7  -5    0.07    0.27
   6  -7   5   -0.55    0.30
  -6  -7  -5    0.12    0.26
   6   7   5   -0.15    0.31
  -6   7  -5   -0.08    0.28
  -7  -7  -5    2.72    0.37
   7  -7   5    2.81    0.46
   7   7   5    2.61    0.48
  -7   7  -5    2.35    0.39
   9  -8  -5   14.31    0.96
   9  -8  -5   14.09    0.79
   9   8  -5   13.50    0.95
   8  -8  -5    5.04    0.74
   8  -8  -5    4.26    0.56
   8   8  -5    6.61    0.72
   7  -8  -5    1.60    0.30
  -7  -8   5    2.48    0.41
   7   8  -5    1.51    0.41
  -6  -8   5  105.69    2.62
   6  -8  -5  105.85    2.95
   6   8  -5  105.18    2.77
  -5  -8   5   20.27    0.82
   5  -8  -5   20.20    1.35
   5   8  -5   19.62    0.95
   4  -8  -5   20.66    0.96
  -4   8   5   17.72    0.81
   4   8  -5   21.92    1.43
   3  -8  -5   10.16    0.64
  -3   8   5   10.22    0.73
   3   8  -5    9.15    0.72
   2  -8  -5   33.16    1.17
  -2  -8   5   33.75    1.28
   2   8  -5   33.33    1.19
  -2   8   5   34.47    1.04
  -1  -8   5    2.18    0.33
  -1  -8   5    2.29    0.42
  -1   8   5    2.52    0.39
   1   8  -5    3.20    0.52
   0  -8   5  152.24    3.61
   0  -8   5  149.76    3.31
   0  -8  -5  156.07    3.76
   0   8   5  138.75    3.78
   0   8  -5  151.78    3.63
   1  -8   5    4.43    0.63
   1  -8   5    3.62    0.41
  -1   8  -5    3.45    0.62
  -2  -8  -5    7.09    0.48
   2  -8   5    5.81    0.51
  -2  -8  -5    8.00    0.62
   2  -8   5    6.36    0.62
  -2   8  -5    8.08    0.63
   2   8   5    8.60    0.51
  -3  -8  -5    5.38    0.59
   3  -8   5    4.44    0.56
   3  -8   5    5.09    0.59
  -3  -8  -5    5.12    0.46
   3   8   5    5.02    0.47
  -3   8  -5    4.86    0.55
  -3   8  -5    4.88    0.56
   4  -8   5   63.40    1.87
   4  -8   5   60.57    1.70
  -4  -8  -5   62.01    1.82
  -4   8  -5   59.93    1.72
  -4   8  -5   61.89    1.83
   4   8   5   62.26    1.60
  -5  -8  -5   11.21    0.77
  -5  -8  -5   11.10    0.71
   5  -8   5   11.71    0.82
  -5   8  -5   11.66    0.77
   7  -9  -5   12.70    0.78
   7   9  -5   11.95    1.07
  -6  -9   5    3.97    0.54
   6  -9  -5    3.60    0.51
   6   9  -5    4.34    0.68
   5  -9  -5   15.67    0.83
  -5  -9   5   15.48    0.77
   5   9  -5   14.64    0.89
  -4  -9   5    4.10    0.56
   4  -9  -5    3.37    0.57
  -4   9   5    3.58    0.60
   4   9  -5    3.49    0.47
   3  -9  -5    6.80    0.66
  -3   9   5    7.96    0.81
   3   9  -5    8.16    0.68
   2  -9  -5   45.21    1.48
  -2  -9   5   45.74    1.47
   2   9  -5   43.32    1.48
   1  -9  -5   18.29    0.90
  -1  -9   5   19.03    0.91
   1   9  -5   19.21    0.93
  -1   9   5   18.58    0.75
   0  -9  -5    1.87    0.32
   0  -9   5    1.74    0.34
   0   9  -5    2.10    0.41
  -1  -9  -5    4.40    0.61
   1  -9   5    4.46    0.60
  -1   9  -5    6.04    0.65
   1   9   5    4.92    0.54
  -1   9  -5    3.52    0.57
  -2  -9  -5   81.36    2.26
   2  -9   5   82.66    2.28
  -2   9  -5   80.39    2.27
   2   9   5   81.61    2.04
  -2   9  -5   79.01    2.18
  -3  -9  -5   12.44    0.82
   3  -9   5   13.74    0.85
   3   9   5   12.01    0.65
  -3   9  -5   12.30    0.83
  -4  -9  -5    0.78    0.33
   4  -9   5    1.66    0.36
  -4  -9  -5    1.40    0.33
  -4   9  -5    1.31    0.35
   5 -10  -5    0.26    0.31
  -5 -10   5    0.63    0.32
   5  10  -5   -0.30    0.36
  -4 -10   5    0.55    0.32
  -4  10   5    0.32    0.30
   4  10  -5    0.44    0.46
   3 -10  -5   19.14    1.27
  -3 -10   5   19.95    0.97
  -3  10   5   20.88    0.92
   3  10  -5   19.99    1.46
   2 -10  -5    0.97    0.32
  -2 -10   5    0.45    0.31
   2  10  -5    1.33    0.39
  -2  10   5    0.62    0.34
   1 -10  -5   17.23    1.02
  -1 -10   5   17.44    0.95
  -1  10   5   17.14    0.80
   1  10  -5   17.73    1.08
   0 -10   5    3.53    0.47
   0 -10  -5    3.49    0.69
   0  10   5    4.70    0.57
   1 -10   5   58.08    2.04
  -1  10  -5   57.62    2.19
   1  10   5   58.00    1.68
  -1  10  -5   56.18    1.70
  -2 -10  -5   -0.12    0.33
   2 -10   5    0.63    0.34
  -2  10  -5    0.48    0.29
   2  10   5    0.84    0.38
  13   0  -6   -0.55    0.36
  12   0  -6   23.59    1.12
  11   0  -6   -0.31    0.26
  10   0  -6   60.48    1.78
   9   0  -6   -0.16    0.19
   8   0  -6   59.21    1.62
   7   0  -6    0.15    0.08
   7   0  -6   -0.05    0.20
   6   0  -6    3.23    0.21
   6   0  -6    3.17    0.34
   5   0  -6    0.14    0.12
   3   0  -6    0.08    0.11
   2   0  -6    4.44    0.28
   2   0  -6    4.81    0.30
   2   0  -6    4.75    0.23
   1   0  -6    0.01    0.12
   1   0  -6    0.14    0.09
   1   0  -6   -0.12    0.16
   0   0  -6    1.06    0.18
   0   0  -6    1.44    0.13
   0   0   6    1.34    0.23
  -1   0  -6    0.01    0.15
   1   0   6   -0.02    0.14
   1   0   6    0.03    0.09
   2   0   6   86.02    1.85
   2   0   6   83.00    2.05
  -2   0  -6   84.21    2.07
   3   0   6   -0.04    0.23
  -3   0  -6   -0.21    0.15
   3   0   6    0.07    0.16
   4   0   6    0.54    0.24
   5   0   6    0.01    0.23
  -6   0  -6   65.02    2.30
  -7   0  -6    0.04    0.26
   7   0   6    0.20    0.36
  -8   0  -6    2.83    0.42
   8   0   6    3.36    0.58
  -9   0  -6    0.32    0.38
  13   1  -6   14.45    0.98
  12  -1  -6    8.28    0.79
  12   1  -6   11.41    0.82
  11   1  -6    0.49    0.30
  10   1  -6   99.61    2.57
   9  -1  -6    1.04    0.26
   9   1  -6    0.99    0.26
   8  -1  -6  115.83    2.83
   8  -1  -6  113.92    2.50
   8   1  -6  116.80    2.80
   7  -1  -6   50.62    1.20
   7  -1  -6   50.87    1.46
   7   1  -6   52.54    1.14
   7   1  -6   50.01    1.37
   6  -1  -6  258.92    5.62
   6  -1  -6  260.22    5.79
   6   1  -6  267.79    5.73
   6   1  -6  269.59    5.59
   5  -1  -6    0.46    0.12
   5   1  -6    0.44    0.13
   4   1  -6   78.59    1.77
   4   1  -6   76.40    1.93
   3  -1  -6  144.51    3.16
   3   1  -6  143.81    3.17
   2  -1  -6   45.47    1.14
   2  -1  -6   46.08    1.04
   2   1  -6   46.69    1.08
   2   1  -6   45.56    1.11
  -1  -1   6  144.82    3.08
   1  -1  -6  139.68    3.17
   1   1  -6  142.53    3.20
   1   1  -6  148.70    3.12
   1   1  -6  138.49    3.08
   0  -1   6   79.98    1.75
   0  -1   6   77.28    1.83
   0  -1  -6   77.64    1.87
   0   1  -6   80.20    1.81
   0   1  -6   77.46    1.89
   0   1  -6   78.05    1.75
   1  -1   6   93.08    1.98
  -1  -1  -6   89.41    2.12
   1  -1   6   87.88    2.06
   1   1   6   89.00    2.13
  -1   1  -6   89.86    1.97
  -1   1  -6   84.97    2.27
   2  -1   6    0.25    0.18
  -2  -1  -6    0.18    0.18
   2  -1   6    0.61    0.18
  -2   1  -6    0.42    0.13
   2   1   6    0.59    0.22
  -2   1  -6    0.51    0.20
  -3  -1  -6   23.01    0.81
   3  -1   6   23.04    0.85
   3   1   6   23.97    0.60
   3   1   6   23.52    0.88
  -3   1  -6   23.74    0.83
   4  -1   6   55.51    1.53
  -4  -1  -6   54.30    1.51
  -4   1  -6   53.78    1.59
   4   1   6   53.29    1.56
   4   1   6   55.76    1.29
   5  -1   6    6.36    0.54
   5   1   6    6.27    0.57
  -6   1  -6    4.13    0.50
   6   1   6    4.74    0.71
  -7  -1  -6   46.16    1.51
   7  -1   6   47.78    1.58
   7   1   6   49.34    1.85
  -7   1  -6   47.41    1.51
  -8  -1  -6    1.01    0.33
   8  -1   6    0.57    0.37
  -8   1  -6    0.64    0.32
   8   1   6    1.38    0.39
   9  -1   6    9.46    1.04
  -9  -1  -6   10.48    0.81
   9   1   6    8.97    1.16
  -9   1  -6    8.00    1.07
  12  -2  -6   14.21    0.93
  12   2  -6   13.04    0.87
  11  -2  -6   50.97    1.70
  11   2  -6   52.21    1.72
  10  -2  -6   19.00    0.91
  10   2  -6   17.86    0.85
   9  -2  -6    1.46    0.29
   9  -2  -6    1.61    0.21
   9   2  -6    1.54    0.28
   8  -2  -6   14.80    0.71
   8  -2  -6   15.01    0.49
   8   2  -6   13.51    0.78
   7  -2  -6   51.32    1.46
   7  -2  -6   50.42    1.24
   7   2  -6   50.74    1.34
   7   2  -6   48.48    1.39
   6  -2  -6    8.98    0.36
   6  -2  -6    9.40    0.39
   6   2  -6    9.16    0.52
   6   2  -6    8.98    0.43
   6   2  -6    9.22    0.36
   5  -2  -6  121.60    2.75
   5   2  -6  122.84    2.82
   5   2  -6  122.96    2.70
   4  -2  -6    0.19    0.12
   4  -2  -6    0.58    0.11
   4   2  -6    0.40    0.10
   4   2  -6    0.56    0.19
   3  -2  -6   27.83    0.73
   3  -2  -6   27.75    0.72
   3   2  -6   27.44    0.85
   2  -2  -6    3.49    0.19
   2  -2  -6    3.07    0.24
   2   2  -6    3.43    0.29
   1  -2  -6  344.41    7.44
   1   2  -6  349.25    7.52
   1   2  -6  359.37    7.32
   1   2  -6  347.51    7.43
   0  -2   6   33.15    0.83
   0  -2  -6   33.27    0.93
   0   2  -6   32.29    0.99
   0   2  -6   32.69    0.88
   0   2  -6   34.01    0.83
  -1  -2  -6    7.35    0.45
   1  -2   6    7.83    0.37
  -1   2  -6    6.35    0.46
   1   2   6    7.22    0.48
  -1   2  -6    7.09    0.36
   2  -2   6    3.23    0.35
  -2  -2  -6    3.23    0.37
  -2   2  -6    2.81    0.28
  -2   2  -6    2.90    0.36
   2   2   6    3.42    0.44
   3  -2   6  215.47    4.81
  -3  -2  -6  215.67    4.85
   3   2   6  213.54    4.90
  -3   2  -6  218.94    4.72
  -3   2  -6  221.12    4.87
   4  -2   6   25.54    0.92
  -4  -2  -6   25.03    0.89
   4   2   6   24.02    0.64
  -4   2  -6   24.03    0.89
   4   2   6   25.29    0.96
   5  -2   6   42.18    1.30
  -5  -2  -6   40.07    1.27
   5   2   6   42.47    1.04
  -6  -2  -6    8.83    0.61
   6  -2   6    7.01    0.66
   6   2   6    9.37    0.69
  -6   2  -6    8.74    0.61
   7  -2   6    8.39    0.72
  -7  -2  -6    7.84    0.64
   7   2   6    9.16    0.75
  -7   2  -6    9.60    0.66
   8  -2   6    1.42    0.40
  -8  -2  -6    1.32    0.35
   8   2   6    1.10    0.40
  -8   2  -6    0.95    0.35
  -9   2  -6   39.02    1.78
  12  -3  -6   12.85    0.93
  12   3  -6   12.16    0.86
  11  -3  -6    2.08    0.40
  11   3  -6    2.58    0.39
  10  -3  -6   54.72    1.32
  10   3  -6   52.83    1.64
  10   3  -6   52.99    1.58
   9  -3  -6   10.55    0.46
   9  -3  -6   12.25    0.80
   9   3  -6   10.33    0.60
   9   3  -6   11.31    0.65
   8  -3  -6   19.37    0.64
   8  -3  -6   19.96    0.84
   8   3  -6   19.44    0.78
   8   3  -6   19.26    0.80
   7  -3  -6   13.03    0.39
   7  -3  -6   12.13    0.49
   7  -3  -6   12.39    0.64
   7   3  -6   11.86    0.61
   7   3  -6   11.77    0.39
   7   3  -6   12.06    0.54
   6  -3  -6  134.15    2.88
   6  -3  -6  133.02    3.04
   6  -3  -6  140.85    2.89
   6   3  -6  133.78    3.15
   6   3  -6  134.11    3.00
   5  -3  -6    5.11    0.22
   5  -3  -6    4.78    0.34
   5  -3  -6    4.78    0.26
   5   3  -6    5.46    0.45
   5   3  -6    5.34    0.29
   4  -3  -6   24.01    0.75
   4  -3  -6   23.66    0.61
   4   3  -6   24.05    0.81
   3  -3  -6   66.32    1.65
   3  -3  -6   65.99    1.53
   3   3  -6   66.19    1.64
   2  -3  -6   65.33    1.64
   2  -3  -6   67.66    1.47
   2  -3  -6   64.00    1.52
   2   3  -6   65.45    1.61
   1  -3  -6  212.41    4.56
   1   3  -6  209.36    4.60
   0  -3  -6  387.66    8.27
   0  -3   6  380.77    8.12
   0   3  -6  397.91    8.36
   0   3  -6  387.29    8.27
  -1  -3  -6   10.76    0.52
   1  -3   6   11.79    0.43
  -1   3  -6   10.00    0.49
  -1   3  -6   11.51    0.55
  -1   3  -6   11.26    0.42
   2  -3   6   28.29    0.83
  -2  -3  -6   28.26    0.90
  -2   3  -6   27.26    0.83
  -2   3  -6   28.60    0.92
   2   3   6   27.34    0.97
  -3  -3  -6   25.97    0.88
   3  -3   6   25.93    0.86
  -3   3  -6   25.94    0.83
  -3   3  -6   26.27    0.90
   3   3   6   26.01    0.98
  -4  -3  -6  225.69    5.04
   4  -3   6  218.62    5.15
  -4   3  -6  224.88    4.92
   4   3   6  217.56    5.11
   4   3   6  222.61    4.72
  -4   3  -6  227.46    5.04
   5  -3   6    0.32    0.23
  -5  -3  -6   -0.25    0.33
   5   3   6    0.00    0.28
   5   3   6   -0.02    0.18
   6  -3   6    1.67    0.34
  -6   3  -6    2.46    0.37
   6   3   6    2.06    0.33
  -7  -3  -6   10.82    0.70
   7  -3   6   10.12    0.77
   7   3   6   11.30    0.85
  -7   3  -6    9.75    0.71
  -8  -3  -6   47.70    1.65
   8  -3   6   47.31    1.68
   8   3   6   48.87    1.77
  -8   3  -6   49.05    1.59
  12  -4  -6   10.41    0.92
  12   4  -6   10.95    0.83
  12   4  -6   11.49    0.84
  11  -4  -6   40.56    1.58
  11   4  -6   39.76    1.42
  10  -4  -6    1.95    0.26
  10  -4  -6    2.06    0.37
  10   4  -6    1.94    0.38
  10   4  -6    1.69    0.37
   9  -4  -6    9.24    0.60
   9  -4  -6    8.82    0.66
   9   4  -6    9.30    0.62
   9   4  -6    8.80    0.73
   8  -4  -6   29.40    1.26
   8  -4  -6   32.49    1.17
   8   4  -6   33.51    1.02
   8   4  -6   32.85    1.12
   7   4  -6   70.12    1.70
   7   4  -6   68.02    1.85
   6   4  -6    4.98    0.35
   6   4  -6    5.45    0.50
   5   4  -6  287.94    6.15
   5   4  -6  296.18    6.42
   4  -4  -6   86.01    2.12
   4   4  -6   87.53    2.14
   3  -4  -6   29.56    0.73
   3  -4  -6   30.01    0.93
   3   4  -6   28.57    1.07
   2  -4  -6    8.86    0.37
   2  -4  -6    8.09    0.47
   2  -4  -6    8.40    0.34
   2   4  -6    8.37    0.53
   1  -4  -6  290.14    6.30
   1  -4  -6  297.84    6.44
   1  -4  -6  302.11    6.21
   1   4  -6  290.11    6.39
   0  -4  -6   14.33    0.56
   0   4  -6   14.52    0.64
   0   4  -6   17.05    0.65
   1  -4   6    0.57    0.15
  -1  -4  -6    0.58    0.16
  -1  -4  -6    0.11    0.18
  -1   4  -6    0.51    0.19
  -1   4  -6    0.37    0.26
  -2  -4  -6   80.86    2.04
  -2  -4  -6   82.41    2.11
   2  -4   6   80.32    1.91
  -2   4  -6   80.92    2.01
  -2   4  -6   79.20    2.04
  -3  -4  -6    1.20    0.22
  -3  -4  -6    1.18    0.21
   3  -4   6    1.32    0.24
  -3   4  -6    1.29    0.25
  -3   4  -6    1.38    0.24
   3   4   6    1.39    0.28
  -4  -4  -6   13.43    0.62
  -4  -4  -6   13.57    0.65
  -4   4  -6   13.18    0.60
   4   4   6   12.63    0.44
   5  -4   6   42.17    1.31
  -5  -4  -6   41.31    1.32
  -5   4  -6   42.54    1.34
   5   4   6   41.86    1.06
   5   4   6   43.07    1.45
  -6  -4  -6   34.81    1.16
  -6  -4  -6   34.57    1.23
  -6   4  -6   35.87    1.40
   6   4   6   33.97    1.33
  -7  -4  -6   17.09    0.86
  -7  -4  -6   17.20    0.87
   7  -4   6   17.66    0.94
   7   4   6   16.53    1.02
  -7   4  -6   15.93    0.88
  -8  -4  -6    0.24    0.35
  -8  -4  -6    0.36    0.27
   8  -4   6    0.03    0.36
   8   4   6    0.28    0.42
  -8   4  -6   -0.02    0.32
  11   5  -6    0.37    0.31
  10  -5  -6    0.17    0.29
  10  -5  -6    0.34    0.20
  10   5  -6    0.30    0.31
  10   5  -6    0.38    0.27
   9  -5  -6   52.24    1.70
   9  -5  -6   54.50    1.44
   9   5  -6   52.22    1.64
   9   5  -6   54.39    1.50
   8  -5  -6   -0.01    0.16
   8  -5  -6    0.13    0.23
   8   5  -6    0.11    0.26
   8   5  -6    0.06    0.22
   7  -5  -6   29.09    0.92
   7   5  -6   27.70    0.84
   7   5  -6   28.02    1.04
   6  -5  -6    5.62    0.42
   6   5  -6    6.44    0.35
   6   5  -6    5.36    0.53
   5  -5  -6    2.35    0.39
  -5  -5   6    2.49    0.33
   5   5  -6    3.30    0.45
   4  -5  -6   19.76    0.73
  -4  -5   6   19.26    0.80
   4   5  -6   20.16    0.80
  -3  -5   6  130.48    2.96
   3  -5  -6  125.52    3.01
   3  -5  -6  129.23    2.75
   3   5  -6  127.38    3.03
   2  -5  -6   31.66    1.01
   2  -5  -6   32.05    0.82
  -2  -5   6   32.28    0.98
   2   5  -6   31.90    1.04
  -1  -5   6   16.59    0.66
   1  -5  -6   15.42    0.54
   1  -5  -6   17.44    0.83
  -1   5   6   16.35    0.50
   1   5  -6   15.12    0.69
   0  -5  -6   -0.09    0.16
   0  -5  -6    0.15    0.15
   0  -5  -6    0.23    0.14
   0  -5   6    0.17    0.16
   0   5   6    0.04    0.12
   0   5  -6   -0.31    0.20
   0   5  -6   -0.02    0.17
   1  -5   6   84.63    1.89
  -1  -5  -6   80.46    2.14
  -1  -5  -6   82.96    2.11
  -1   5  -6   85.35    2.10
   1   5   6   84.13    1.84
  -1   5  -6   82.99    2.24
   2  -5   6    0.74    0.19
  -2  -5  -6    0.60    0.19
  -2  -5  -6    0.50    0.18
  -2   5  -6    0.13    0.17
   2   5   6    0.97    0.15
  -2   5  -6    0.51    0.20
  -3  -5  -6   19.46    0.80
   3  -5   6   20.79    0.74
   3   5   6   20.96    0.58
  -3   5  -6   20.08    0.76
  -3   5  -6   20.22    0.88
  -4  -5  -6    3.51    0.41
   4  -5   6    3.55    0.51
  -4   5  -6    2.89    0.41
   4   5   6    3.09    0.31
  -5  -5  -6    4.25    0.49
  -5  -5  -6    4.06    0.58
   5  -5   6    3.93    0.51
   5   5   6    3.38    0.58
  -5   5  -6    5.54    0.49
  -5   5  -6    5.39    0.54
  -6  -5  -6   24.46    1.14
  -6  -5  -6   23.70    0.99
   6   5   6   23.59    1.12
  -6   5  -6   22.22    1.09
  -7  -5  -6   31.25    1.16
  -7  -5  -6   32.57    1.24
   7   5   6   31.13    1.42
  -7   5  -6   32.15    1.23
  10  -6  -6    0.23    0.24
  10  -6  -6    0.04    0.32
  10   6  -6   -0.06    0.27
  10   6  -6   -0.23    0.32
   9  -6  -6    0.76    0.23
   9  -6  -6    0.94    0.30
   9   6  -6    1.00    0.34
   9   6  -6    0.81    0.25
   8  -6  -6   68.25    2.05
   8  -6  -6   71.01    1.84
   8   6  -6   69.03    1.99
   8   6  -6   69.02    1.77
   7  -6  -6   12.68    0.62
   7   6  -6   13.49    0.53
   7   6  -6   11.87    0.73
   6  -6  -6    1.24    0.23
   6   6  -6    2.25    0.37
   5  -6  -6   88.01    2.24
  -5  -6   6   89.50    2.15
   5   6  -6   88.79    2.31
   4  -6  -6    3.42    0.38
  -4  -6   6    3.43    0.37
   4   6  -6    3.52    0.54
  -3  -6   6   39.58    1.15
   3  -6  -6   38.08    1.19
   3   6  -6   39.43    1.23
  -2  -6   6    6.43    0.46
   2  -6  -6    7.23    0.33
   2  -6  -6    6.79    0.48
  -2   6   6    6.57    0.39
   2   6  -6    7.47    0.53
  -1  -6   6   22.37    0.82
   1  -6  -6   23.05    0.68
   1   6  -6   21.71    1.01
  -1   6   6   22.44    0.68
   0  -6   6    3.57    0.41
   0  -6  -6    3.91    0.36
   0   6   6    4.07    0.31
   0   6  -6    4.27    0.43
   1  -6   6   -0.08    0.16
  -1  -6  -6   -0.22    0.16
   1   6   6    0.12    0.16
  -1   6  -6   -0.08    0.20
  -1   6  -6    0.06    0.19
  -2  -6  -6   38.62    1.15
   2  -6   6   39.53    1.08
   2   6   6   39.78    1.12
  -3  -6  -6    0.82    0.23
  -3  -6  -6    1.00    0.24
   3  -6   6    0.86    0.25
  -3   6  -6    0.74    0.24
  -4  -6  -6    5.08    0.53
  -4  -6  -6    4.25    0.49
   4  -6   6    4.12    0.51
  -4   6  -6    3.78    0.48
  -4   6  -6    4.29    0.50
   5  -6   6    0.54    0.42
  -5  -6  -6    0.56    0.27
  -5  -6  -6    0.71    0.37
   5   6   6    1.28    0.34
  -5   6  -6    1.01    0.56
  -6  -6  -6   26.46    1.16
  -6  -6  -6   26.00    1.08
  -6   6  -6   24.51    1.06
   6   6   6   26.84    1.21
  -7  -6  -6    5.41    0.79
   7  -6   6    7.64    0.81
  -7  -6  -6    6.98    0.68
  -7   6  -6    6.01    0.72
   7   6   6    7.29    0.82
  10  -7  -6   23.52    1.21
  10  -7  -6   23.78    1.42
  10   7  -6   23.70    1.15
   9  -7  -6   -0.06    0.25
   9  -7  -6    0.30    0.32
   9   7  -6   -0.04    0.33
   8  -7  -6    0.46    0.31
   8  -7  -6    0.38    0.23
   8   7  -6    0.46    0.33
  -7  -7   6    3.42    0.40
   7  -7  -6    2.14    0.30
   7   7  -6    2.51    0.44
  -6  -7   6   43.92    1.24
   6  -7  -6   43.96    1.37
   6   7  -6   45.95    1.58
  -5  -7   6    2.06    0.26
   5  -7  -6    2.04    0.29
   5   7  -6    2.60    0.40
   4  -7  -6    8.31    0.67
  -4  -7   6    7.04    0.66
   4   7  -6    8.31    0.62
  -3  -7   6    0.90    0.21
   3  -7  -6    0.98    0.31
   3   7  -6    0.80    0.33
  -3   7   6    0.67    0.23
   2  -7  -6   22.13    1.06
   2   7  -6   25.03    0.95
  -2   7   6   23.87    0.89
   1  -7  -6    0.12    0.16
   1   7  -6    0.19    0.24
  -1   7   6    0.32    0.19
   0  -7   6   49.74    1.47
   0  -7  -6   46.48    1.38
   0   7   6   48.96    1.25
   0   7  -6   50.43    1.52
  -1  -7  -6   15.71    0.75
   1  -7   6   15.50    0.76
   1  -7   6   14.63    0.59
  -1  -7  -6   15.90    0.62
  -1   7  -6   15.72    0.77
   1   7   6   16.50    0.59
  -2  -7  -6    1.24    0.23
   2  -7   6    1.42    0.25
  -2  -7  -6    1.23    0.29
   2  -7   6    0.82    0.28
  -2   7  -6    1.45    0.30
  -2   7  -6    1.20    0.40
  -3  -7  -6    6.59    0.58
  -3  -7  -6    6.31    0.50
   3  -7   6    5.75    0.55
   3  -7   6    5.26    0.56
  -3   7  -6    5.24    0.54
  -4  -7  -6   56.50    1.71
   4  -7   6   57.53    1.60
  -4   7  -6   57.64    1.68
  -5  -7  -6   13.09    0.81
   5  -7   6   13.39    0.77
  -5  -7  -6   12.92    0.78
  -5   7  -6   15.07    0.81
  -5   7  -6   14.44    0.83
  -6  -7  -6    4.89    0.66
   6  -7   6    4.68    0.69
  -6  -7  -6    5.67    0.65
  -6   7  -6    5.96    0.66
  -6   7  -6    5.57    0.66
   8  -8  -6   17.29    0.84
   7  -8  -6    0.32    0.26
  -7  -8   6    0.25    0.22
   7   8  -6    0.52    0.36
  -6  -8   6    1.28    0.26
   6  -8  -6    0.77    0.27
   6   8  -6    1.90    0.42
   5  -8  -6  102.74    2.67
   5   8  -6  103.86    2.73
   4  -8  -6   18.52    0.84
   4   8  -6   18.16    0.94
  -3  -8   6    1.02    0.27
   3  -8  -6    0.19    0.25
  -3   8   6    0.65    0.24
   3   8  -6    0.51    0.32
  -2  -8   6    2.59    0.34
   2  -8  -6    2.38    0.33
  -2   8   6    2.97    0.41
   2   8  -6    2.44    0.48
   1  -8  -6  141.68    3.56
  -1  -8   6  155.88    3.95
   1   8  -6  149.52    4.00
  -1   8   6  139.85    3.32
   0  -8   6    4.08    0.56
   0  -8  -6    5.50    0.45
   0  -8  -6    4.82    0.56
   0   8  -6    4.59    0.59
   0   8   6    5.51    0.47
  -1  -8  -6    1.53    0.27
  -1  -8  -6    1.24    0.28
   1  -8   6    0.80    0.28
  -1   8  -6    1.59    0.33
  -1   8  -6    1.13    0.30
   2  -8   6   16.00    0.86
  -2  -8  -6   16.45    0.71
  -2  -8  -6   16.44    0.83
  -2   8  -6   17.36    0.84
  -2   8  -6   16.95    1.18
  -3  -8  -6   22.34    1.01
   3  -8   6   24.63    1.04
  -3  -8  -6   24.38    0.90
  -3   8  -6   22.64    1.01
  -3   8  -6   22.69    1.00
  -4  -8  -6   -0.54    0.35
  -4  -8  -6    0.31    0.28
   4  -8   6    0.25    0.32
  -4   8  -6    0.41    0.30
  -4   8  -6   -0.24    0.28
  -5  -8  -6   30.38    1.16
  -5  -8  -6   30.13    1.21
  -5   8  -6   29.23    1.16
  -5   8  -6   29.77    1.48
   7  -9  -6   19.22    0.96
  -7  -9   6   18.99    0.88
   7   9  -6   20.47    1.07
  -6  -9   6   33.79    1.15
   6  -9  -6   35.76    1.28
   5  -9  -6    0.42    0.27
  -5  -9   6    0.34    0.34
   5   9  -6    0.89    0.39
   4  -9  -6    8.74    0.70
  -4  -9   6    8.67    0.71
   4   9  -6    8.17    0.74
   3  -9  -6   51.35    1.64
  -3  -9   6   51.43    1.61
   3   9  -6   51.03    1.66
  -2  -9   6   47.89    1.53
   2  -9  -6   48.10    1.55
   2   9  -6   47.09    1.56
  -2   9   6   45.35    1.35
  -1  -9   6    8.49    0.71
   1  -9  -6    8.35    0.68
   1   9  -6    7.42    0.70
  -1   9   6    7.77    0.75
   0  -9   6   22.37    1.02
   0  -9  -6   22.97    1.01
   0   9   6   21.81    0.80
   0   9  -6   22.18    1.02
   1  -9   6   42.58    1.47
  -1  -9  -6   41.54    1.45
  -1   9  -6   40.91    1.42
   1   9   6   41.03    1.28
  -1   9  -6   39.79    1.36
  -2  -9  -6    4.40    0.66
  -2   9  -6    3.99    0.65
  -2   9  -6    2.46    0.49
   3  -9   6   10.20    0.76
  -3  -9  -6    8.36    0.64
  -3   9  -6    6.80    0.69
   4 -10  -6    6.16    0.71
  -4 -10   6    4.83    0.66
   4  10  -6    5.49    0.75
  -3 -10   6    0.07    0.31
   3 -10  -6   -0.27    0.29
   3  10  -6    0.39    0.37
  -2 -10   6   23.41    1.08
   2 -10  -6   22.81    1.09
   2  10  -6   22.85    1.13
  -2  10   6   23.36    0.93
   1 -10  -6    1.20    0.33
   1  10  -6    1.48    0.41
  -1  10   6    1.36    0.35
   0 -10   6    0.48    0.33
   0 -10  -6    0.15    0.30
   0  10  -6    0.70    0.37
   0  10  -6   -0.05    0.32
  12   0  -7   -0.31    0.31
  11   0  -7    0.22    0.29
  10   0  -7   -0.03    0.23
   9   0  -7   44.96    1.37
   8   0  -7   -0.16    0.09
   8   0  -7   -0.21    0.18
   7   0  -7    0.76    0.12
   7   0  -7    1.08    0.23
   6   0  -7   -0.14    0.15
   4   0  -7    0.12    0.15
   3   0  -7  242.88    5.25
   3   0  -7  241.22    5.16
   2   0  -7    0.24    0.12
   2   0  -7   -0.03    0.14
   1   0  -7  411.00    8.54
   1   0  -7  386.38    8.33
  -1   0  -7    2.21    0.35
   1   0   7    2.83    0.35
   2   0   7    0.05    0.21
   2   0   7   -0.18    0.12
  -2   0  -7    0.07    0.17
   3   0   7   -0.14    0.16
  -3   0  -7    0.13    0.17
   3   0   7    0.15    0.21
   4   0   7    0.08    0.20
   5   0   7   28.77    1.38
  -6   0  -7   -0.32    0.24
   6   0   7    0.20    0.30
   7   0   7   50.91    1.73
  -7   0  -7   50.70    1.63
   8   0   7   -0.66    0.38
  12  -1  -7   15.23    0.93
  12   1  -7   14.46    0.91
  11   1  -7   27.97    1.19
  10  -1  -7   15.19    0.80
  10   1  -7   14.25    0.75
   9  -1  -7   13.95    0.72
   9   1  -7   12.74    0.65
   8  -1  -7   38.58    0.95
   8  -1  -7   38.66    1.20
   7  -1  -7   59.85    1.61
   7   1  -7   58.55    1.54
   7   1  -7   59.78    1.38
   6  -1  -7    1.01    0.15
   6  -1  -7    0.64    0.22
   6   1  -7    0.87    0.18
   6   1  -7    0.86    0.24
   5   1  -7   72.26    1.78
   5   1  -7   74.06    1.72
   4  -1  -7   95.66    2.19
   4   1  -7   97.44    2.16
   4   1  -7   94.86    2.21
   3  -1  -7   54.36    1.27
   3  -1  -7   54.46    1.35
   3   1  -7   54.56    1.33
   3   1  -7   55.40    1.28
   2  -1  -7   19.50    0.65
   2  -1  -7   19.75    0.51
   2   1  -7   20.13    0.58
   2   1  -7   18.80    0.69
   2   1  -7   20.14    0.59
   1  -1  -7  123.01    2.84
   1   1  -7  123.83    2.73
   1   1  -7  127.81    2.77
   0  -1   7  130.13    2.80
   0  -1  -7  125.63    3.00
   0   1  -7  131.24    3.00
   0   1  -7  129.89    2.81
  -1  -1  -7   11.09    0.54
   1  -1   7   10.68    0.41
   1  -1   7   10.75    0.48
  -1   1  -7   10.61    0.37
  -1   1  -7   10.42    0.54
   1   1   7   10.66    0.56
   2  -1   7   20.23    0.75
  -2  -1  -7   22.14    0.79
  -2   1  -7   21.63    0.80
   2   1   7   21.69    0.82
  -3  -1  -7   18.49    0.74
   3  -1   7   17.30    0.88
   3   1   7   18.56    0.77
  -4  -1  -7    7.17    0.52
   4  -1   7    6.18    0.54
   4   1   7    7.84    0.57
  -5  -1  -7    9.18    0.77
  -5   1  -7    8.42    0.64
  -6  -1  -7   72.35    2.05
   6  -1   7   75.57    2.10
   6   1   7   71.26    2.25
  -6   1  -7   73.13    2.05
  -7  -1  -7    8.88    0.70
   7  -1   7    9.08    0.82
  -7   1  -7    7.85    0.69
   7   1   7    8.11    0.80
  -8  -1  -7    5.87    0.79
   8  -1   7    5.73    0.85
   8   1   7    6.00    0.86
  12  -2  -7   21.38    1.08
  12   2  -7   22.27    1.08
  11  -2  -7    0.29    0.31
  11   2  -7    0.48    0.29
  10   2  -7  165.89    4.04
  10   2  -7  180.75    4.75
   9  -2  -7    0.10    0.13
   9   2  -7    0.18    0.22
   9   2  -7    0.18    0.22
   8  -2  -7  177.71    4.27
   8  -2  -7  172.38    3.86
   8   2  -7  182.23    4.03
   8   2  -7  177.10    4.10
   7  -2  -7    3.29    0.42
   7  -2  -7    3.68    0.30
   7   2  -7    3.38    0.36
   7   2  -7    2.74    0.39
   7   2  -7    3.97    0.30
   6  -2  -7  173.62    3.82
   6   2  -7  172.24    3.91
   6   2  -7  172.34    3.79
   5  -2  -7    0.57    0.14
   5  -2  -7    0.31    0.13
   5   2  -7    0.22    0.13
   5   2  -7    0.26    0.24
   4  -2  -7    8.47    0.44
   4  -2  -7    9.52    0.37
   4   2  -7    8.83    0.47
   4   2  -7    9.30    0.32
   3  -2  -7   53.96    1.30
   3  -2  -7   53.04    1.23
   3   2  -7   52.53    1.34
   2  -2  -7  172.56    3.79
   2   2  -7  172.26    3.78
   1  -2  -7   12.25    0.51
   1   2  -7   11.58    0.56
   1   2  -7   11.91    0.47
   1   2  -7   12.11    0.47
   0  -2  -7  167.79    3.73
   0  -2   7  163.19    3.59
   0   2  -7  164.60    3.77
   0   2  -7  169.80    3.60
   0   2  -7  164.96    3.63
  -1  -2  -7   31.46    0.96
   1  -2   7   30.76    0.87
  -1   2  -7   30.94    0.99
  -1   2  -7   30.53    0.85
   2  -2   7    8.21    0.48
  -2  -2  -7    8.69    0.50
  -2   2  -7    9.02    0.40
   2   2   7    8.31    0.55
  -2   2  -7    8.51    0.62
  -3  -2  -7    0.50    0.21
   3  -2   7    0.07    0.24
   3   2   7    0.42    0.23
   4  -2   7  326.16    7.14
  -4  -2  -7  326.86    7.19
   4   2   7  320.50    7.69
   5  -2   7   27.34    1.02
  -5  -2  -7   26.27    1.02
   5   2   7   25.68    1.08
  -5   2  -7   26.64    1.03
  -6  -2  -7    1.32    0.32
   6   2   7    2.01    0.40
  -6   2  -7    1.97    0.36
  -7  -2  -7    0.72    0.31
   7  -2   7    0.47    0.36
  -7   2  -7    0.54    0.31
   7   2   7    1.04    0.36
   8  -2   7   18.06    1.10
  -8  -2  -7   21.60    1.03
   8   2   7   19.94    1.71
  -8   2  -7   20.14    1.35
  12  -3  -7   -0.30    0.34
  12   3  -7    0.41    0.39
  12   3  -7    0.14    0.39
  11  -3  -7   53.16    1.76
  11   3  -7   51.04    1.66
  11   3  -7   53.47    1.61
  10  -3  -7    4.59    0.41
  10   3  -7    5.37    0.58
  10   3  -7    4.49    0.51
   9  -3  -7    5.02    0.36
   9  -3  -7    4.53    0.54
   9   3  -7    5.20    0.52
   9   3  -7    4.49    0.51
   8  -3  -7   22.13    0.71
   8  -3  -7   21.41    0.91
   8   3  -7   22.62    0.88
   8   3  -7   22.40    0.79
   7  -3  -7   67.56    1.50
   7  -3  -7   66.19    1.65
   7   3  -7   67.77    1.64
   7   3  -7   65.78    1.78
   6  -3  -7   18.53    0.51
   6  -3  -7   19.34    0.53
   6  -3  -7   18.72    0.67
   6   3  -7   18.42    0.59
   6   3  -7   18.54    0.75
   5  -3  -7  153.33    3.72
   5  -3  -7  160.88    3.43
   5   3  -7  165.12    3.66
   4  -3  -7   98.57    2.54
   4  -3  -7  106.68    2.28
   3  -3  -7   22.49    0.65
   3  -3  -7   22.77    0.78
   3  -3  -7   22.84    0.64
   3   3  -7   22.99    0.78
   2  -3  -7  129.02    3.13
   2  -3  -7  129.72    2.91
   2  -3  -7  134.14    2.87
   2   3  -7  130.31    2.98
   1  -3  -7  446.86    9.50
   1   3  -7  440.60    9.50
   1   3  -7  455.27    9.61
   0  -3  -7   60.71    1.56
   0  -3   7   61.31    1.39
   0   3  -7   60.31    1.53
   0   3  -7   64.56    1.41
   0   3  -7   60.45    1.62
   1  -3   7    0.59    0.16
  -1  -3  -7    0.20    0.18
  -1   3  -7    0.37    0.19
  -1   3  -7    0.07    0.18
  -2  -3  -7   13.05    0.59
   2  -3   7   12.81    0.55
  -2   3  -7   13.55    0.63
   2   3   7   12.36    0.66
  -2   3  -7   13.13    0.54
   3  -3   7   45.61    1.27
  -3  -3  -7   46.21    1.33
   3   3   7   44.11    1.40
  -3   3  -7   43.26    1.32
   4  -3   7    1.92    0.32
  -4  -3  -7    1.78    0.32
  -4   3  -7    2.69    0.45
   5  -3   7   73.67    2.01
  -5  -3  -7   73.06    2.43
   5   3   7   76.15    2.24
  -5   3  -7   74.56    2.23
  -6  -3  -7    1.75    0.34
   6   3   7    2.09    0.40
  -6   3  -7    1.72    0.35
   7  -3   7   19.90    1.06
  -7  -3  -7   20.11    1.00
  -7   3  -7   19.14    0.98
   7   3   7   19.20    1.10
  11  -4  -7    1.00    0.36
  11   4  -7    0.96    0.47
  11   4  -7    0.99    0.38
  10  -4  -7    3.23    0.45
  10  -4  -7    4.07    0.61
  10   4  -7    3.60    0.47
  10   4  -7    2.69    0.49
   9  -4  -7   10.56    0.53
   9  -4  -7   10.51    1.06
   9   4  -7   10.34    0.83
   9   4  -7   10.03    0.61
   8  -4  -7    7.94    0.47
   8  -4  -7    6.34    0.71
   8   4  -7    8.34    0.60
   8   4  -7    7.46    0.48
   7  -4  -7   10.54    0.52
   7   4  -7   10.94    0.47
   7   4  -7   10.96    0.64
   6  -4  -7   22.49    0.77
   6   4  -7   21.62    0.85
   6   4  -7   21.47    0.61
   5  -4  -7    5.06    0.40
   5   4  -7    5.67    0.49
   4  -4  -7    5.86    0.27
   4  -4  -7    5.77    0.42
   4   4  -7    5.43    0.50
   3  -4  -7  358.38    7.61
   3  -4  -7  363.73    7.81
   3   4  -7  358.61    7.79
   2  -4  -7  213.10    4.40
   2  -4  -7  203.80    4.48
   2  -4  -7  203.39    4.64
   1  -4  -7   84.74    2.13
   1  -4  -7   85.68    2.01
   0  -4  -7    2.44    0.36
   0   4  -7    2.25    0.35
   0   4  -7    2.21    0.36
   1  -4   7   70.18    1.60
  -1  -4  -7   69.33    1.75
  -1   4  -7   67.38    1.86
  -1   4  -7   69.59    1.75
   2  -4   7   29.03    0.87
  -2  -4  -7   31.00    1.16
  -2  -4  -7   30.40    0.98
  -2   4  -7   29.62    0.93
  -2   4  -7   29.74    1.11
   3  -4   7    0.69    0.22
  -3   4  -7    0.43    0.19
  -4  -4  -7    7.48    0.56
  -4  -4  -7    6.95    0.52
  -4   4  -7    6.56    0.56
   4   4   7    6.34    0.63
  -4   4  -7    6.65    0.46
  -5  -4  -7   21.63    0.93
   5  -4   7   22.99    0.99
  -5  -4  -7   22.84    0.92
  -5   4  -7   23.44    1.03
   5   4   7   21.47    1.04
  -6  -4  -7    0.22    0.27
  -6  -4  -7    0.39    0.26
   6   4   7    0.36    0.36
  -6   4  -7    0.98    0.50
  -7  -4  -7   12.19    0.78
   7  -4   7   12.16    0.89
  -7   4  -7   12.75    0.86
  11   5  -7    0.60    0.32
  11   5  -7    1.05    0.39
  10  -5  -7   15.78    0.94
  10  -5  -7   14.28    0.64
  10   5  -7   15.26    0.87
  10   5  -7   14.46    0.71
   9  -5  -7    4.68    0.45
   9  -5  -7    5.76    0.66
   9   5  -7    5.20    0.63
   8  -5  -7   22.84    1.57
   8  -5  -7   26.87    0.87
   8   5  -7   25.88    0.82
   7  -5  -7    1.87    0.25
   7   5  -7    2.36    0.30
   7   5  -7    1.94    0.35
   6  -5  -7   76.97    1.96
   6   5  -7   76.37    2.04
   5   5  -7    0.59    0.25
   4  -5  -7    0.88    0.20
   4   5  -7    1.39    0.29
   3  -5  -7    6.57    0.46
   3  -5  -7    7.61    0.32
   3   5  -7    7.27    0.52
   2  -5  -7   15.43    0.68
   2  -5  -7   15.99    0.53
   2   5  -7   16.00    0.70
   1  -5  -7   -0.13    0.14
   1  -5  -7    0.14    0.15
   1   5  -7    0.00    0.35
   0   5  -7   25.69    0.92
   0   5  -7   27.18    0.89
  -1  -5  -7    2.11    0.33
   1  -5   7    2.25    0.27
  -1   5  -7    1.99    0.29
  -2  -5  -7    9.02    0.64
  -2  -5  -7    9.06    0.51
   2  -5   7    8.91    0.47
  -2   5  -7    9.42    0.53
  -3  -5  -7    5.59    0.49
   3  -5   7    4.98    0.47
  -3  -5  -7    4.67    0.46
  -3   5  -7    4.97    0.50
  -3   5  -7    5.12    0.45
  -4  -5  -7    7.66    0.70
  -4  -5  -7    7.22    0.57
   4  -5   7    7.47    0.58
   4   5   7    7.47    0.69
  -4   5  -7    7.69    0.73
  -4   5  -7    7.48    0.53
  -5  -5  -7   -0.16    0.24
  -5  -5  -7   -0.01    0.25
   5  -5   7    0.08    0.43
  -5   5  -7   -0.19    0.28
   5   5   7    0.11    0.30
  -6  -5  -7   93.69    2.51
   6  -5   7   90.95    2.48
  -6  -5  -7   93.44    2.77
   6   5   7   92.45    2.68
  -6   5  -7   91.57    2.49
  10  -6  -7   19.22    0.80
   9  -6  -7   26.39    1.15
   9  -6  -7   25.89    0.94
   9   6  -7   25.83    1.12
   8  -6  -7    7.17    0.51
   8   6  -7    6.04    0.66
   7  -6  -7    0.23    0.20
   7   6  -7    0.34    0.36
   6  -6  -7    2.96    0.42
   6   6  -7    3.24    0.51
   5  -6  -7   27.57    1.01
   5   6  -7   27.72    1.05
   4  -6  -7    0.49    0.19
   4   6  -7    0.45    0.27
  -3  -6   7   14.18    0.63
   3  -6  -7   13.41    0.42
   3  -6  -7   13.01    0.65
   3   6  -7   13.12    0.69
   2  -6  -7   35.00    0.92
   2  -6  -7   34.80    1.14
  -2  -6   7   35.39    1.11
   2   6  -7   34.95    1.14
   1  -6  -7   52.35    1.33
   1   6  -7   52.61    1.50
   0  -6  -7    0.53    0.22
   0   6  -7    0.77    0.27
  -1  -6  -7    6.17    0.42
  -1  -6  -7    6.32    0.52
  -1   6  -7    6.50    0.76
  -1   6  -7    4.97    0.50
  -2  -6  -7    9.13    0.53
  -2  -6  -7    8.97    0.62
   2  -6   7    9.86    0.50
  -2   6  -7   10.20    0.60
  -2   6  -7    9.86    0.61
  -3  -6  -7    0.23    0.22
   3  -6   7   -0.15    0.22
  -3  -6  -7    0.45    0.21
  -3   6  -7    0.61    0.23
  -3   6  -7   -0.13    0.27
   4  -6   7   16.23    0.77
  -4  -6  -7   18.43    0.94
  -4  -6  -7   17.02    0.87
  -4   6  -7   17.99    0.81
  -4   6  -7   18.01    0.87
  -5  -6  -7   31.63    1.20
  -5  -6  -7   32.36    1.18
   5  -6   7   29.92    1.11
  -5   6  -7   31.99    1.14
  -5   6  -7   29.90    1.19
   6  -6   7    5.59    0.72
  -6  -6  -7    8.39    0.95
  -6  -6  -7    5.20    0.67
  -6   6  -7    6.03    0.72
   6   6   7    7.64    0.80
   9  -7  -7    7.10    0.73
   8   7  -7   -0.07    0.34
   7  -7  -7   16.74    0.82
   7   7  -7   16.13    0.88
   6  -7  -7   -0.14    0.20
   6   7  -7   -0.02    0.32
  -5  -7   7   25.89    0.92
   5  -7  -7   26.02    0.99
   5   7  -7   26.99    1.37
   4  -7  -7    2.73    0.46
  -4  -7   7    2.15    0.34
   4   7  -7    2.79    0.40
   3  -7  -7   20.45    0.88
   3   7  -7   21.28    0.91
  -2  -7   7    0.65    0.23
   2  -7  -7    0.28    0.16
   2  -7  -7    0.02    0.20
   2   7  -7    0.13    0.27
   1  -7  -7   96.64    2.27
  -1  -7   7   99.55    2.52
   1   7  -7   97.16    2.51
   0  -7  -7   15.06    0.66
   0  -7  -7   12.82    0.85
   0   7  -7   13.81    0.72
   0   7   7   15.17    0.54
   0   7  -7   13.29    0.80
  -1  -7  -7   18.63    0.71
  -1  -7  -7   18.75    0.86
   1  -7   7   18.27    0.87
  -1   7  -7   20.66    0.93
  -1   7  -7   17.63    0.83
  -2  -7  -7    1.26    0.25
  -2  -7  -7    0.95    0.27
  -2   7  -7    1.34    0.37
  -3  -7  -7    2.79    0.46
  -3  -7  -7    1.95    0.34
  -3   7  -7    2.23    0.38
  -3   7  -7    3.45    0.52
  -4  -7  -7   12.69    0.81
  -4  -7  -7   13.44    0.75
  -4   7  -7   11.77    0.77
  -4   7  -7   14.24    0.77
  -5  -7  -7   17.06    0.90
  -5  -7  -7   17.25    0.92
  -5   7  -7   16.10    0.86
  -5   7  -7   15.74    0.89
   8  -8  -7   20.00    0.94
   8   8  -7   20.45    1.09
   7  -8  -7    1.74    0.32
   7   8  -7    1.18    0.42
   6  -8  -7   15.37    0.82
   6   8  -7   15.43    0.90
   5  -8  -7    1.96    0.32
  -5  -8   7    1.85    0.29
   5   8  -7    2.70    0.45
  -4  -8   7    7.47    0.59
   4  -8  -7    7.45    0.63
   4   8  -7    8.19    0.72
   3  -8  -7   36.88    1.30
  -3  -8   7   38.53    1.31
   3   8  -7   36.70    1.31
  -2  -8   7   85.15    2.33
   2  -8  -7   84.00    2.31
   2   8  -7   85.82    2.32
  -1  -8   7    1.54    0.31
   1   8  -7    2.40    0.40
   0  -8  -7   10.84    0.53
   0  -8   7   10.24    0.72
   0  -8  -7   10.55    0.70
   0   8  -7    9.20    0.69
   0   8  -7   10.49    0.72
  -1  -8  -7    2.49    0.35
   1  -8   7    2.12    0.37
  -1  -8  -7    2.73    0.42
  -1   8  -7    2.68    0.38
   2  -8   7    6.75    0.69
  -2  -8  -7    6.70    0.65
  -2  -8  -7    6.03    0.65
  -2   8  -7    6.91    0.64
  -2   8  -7    6.31    0.62
  -3  -8  -7    1.78    0.32
  -3  -8  -7    1.46    0.35
  -3   8  -7    1.35    0.36
  -3   8  -7    2.13    0.39
   6  -9  -7    8.56    0.80
   6   9  -7    8.24    0.82
   5  -9  -7   15.46    0.90
  -5  -9   7   15.16    0.82
   4  -9  -7    3.92    0.63
  -4  -9   7    2.46    0.44
   4   9  -7    3.11    0.48
   3  -9  -7    8.73    0.75
  -3  -9   7    9.06    0.73
   3   9  -7    9.55    0.78
  -2  -9   7    7.02    0.71
   2  -9  -7    6.42    0.70
   2   9  -7    7.41    0.72
  -2   9   7    6.72    0.51
   1  -9  -7   33.36    1.29
  -1  -9   7   33.47    1.27
   1   9  -7   33.31    1.28
   0  -9  -7    3.62    0.61
   0  -9   7    3.09    0.44
   0   9  -7    3.46    0.47
   0   9  -7    5.17    0.67
   1  -9   7    2.66    0.50
  -1  -9  -7    2.54    0.48
  -1   9  -7    2.80    0.48
  -1   9  -7    2.98    0.41
  12   0  -8    1.72    0.45
  11   0  -8   -0.16    0.27
  10   0  -8   56.55    1.67
   9   0  -8    0.36    0.21
   8   0  -8   26.23    0.92
   8   0  -8   25.82    0.71
   7   0  -8   -0.19    0.20
   7   0  -8    0.02    0.12
   6   0  -8  192.77    4.30
   5   0  -8   -0.13    0.16
   4   0  -8   46.48    1.18
   4   0  -8   47.26    1.26
   3   0  -8    0.07    0.19
   3   0  -8    0.16    0.15
   2   0  -8   80.21    1.99
   2   0  -8   80.63    1.79
   1   0  -8    0.14    0.17
   0   0  -8   47.16    1.32
   1   0   8    0.07    0.20
  -1   0  -8   -0.03    0.19
   2   0   8    1.42    0.28
  -2   0  -8    2.03    0.30
   3   0   8   -0.23    0.20
  -3   0  -8   -0.09    0.20
   4   0   8   36.68    1.18
  -4   0  -8   30.15    1.18
  -5   0  -8   -0.07    0.26
   5   0   8    0.06    0.27
  -6   0  -8   13.70    0.81
   6   0   8   12.80    0.87
  -7   0  -8   -0.77    0.60
   7   0   8   -0.40    0.32
  12  -1  -8    4.96    0.69
  12   1  -8    4.75    0.71
  11   1  -8   20.68    0.96
  10  -1  -8    7.95    0.63
  10   1  -8    8.78    0.60
   9  -1  -8    3.43    0.48
   9  -1  -8    4.29    0.28
   9   1  -8    3.93    0.44
   8  -1  -8   30.10    0.83
   8  -1  -8   31.60    1.05
   8   1  -8   31.33    0.83
   7  -1  -8    0.55    0.16
   7  -1  -8    0.79    0.22
   7   1  -8    0.42    0.21
   7   1  -8    0.88    0.22
   6  -1  -8  117.29    2.69
   6   1  -8  118.82    2.70
   6   1  -8  117.17    2.76
   5  -1  -8   20.40    0.67
   5   1  -8   20.70    0.65
   5   1  -8   20.43    0.72
   4  -1  -8   51.87    1.36
   4  -1  -8   52.09    1.34
   4   1  -8   56.07    1.38
   4   1  -8   51.18    1.34
   3  -1  -8   12.59    0.53
   3  -1  -8   12.69    0.42
   3   1  -8   12.16    0.48
   3   1  -8   12.41    0.47
   3   1  -8   12.20    0.57
   2  -1  -8    4.12    0.39
   2   1  -8    4.45    0.36
   2   1  -8    4.14    0.40
   2   1  -8    4.69    0.31
   1  -1  -8  102.97    2.41
   1   1  -8  100.20    2.24
   1   1  -8   99.47    2.43
   0  -1  -8   28.93    0.94
   0   1  -8   29.87    0.96
   0   1  -8   29.13    0.76
  -1  -1  -8   62.86    1.68
   1  -1   8   63.28    1.46
   1  -1   8   62.05    1.60
  -1   1  -8   65.66    1.46
  -1   1  -8   63.22    1.70
  -2  -1  -8    2.52    0.40
   2  -1   8    2.36    0.41
   2   1   8    2.87    0.40
   3  -1   8   45.07    1.34
  -3  -1  -8   46.74    1.38
   3   1   8   44.62    1.37
   4  -1   8   31.38    1.30
  -4  -1  -8   31.40    1.13
  -5  -1  -8   39.34    1.36
  -5   1  -8   40.69    1.37
   5   1   8   41.60    1.41
  -6  -1  -8    8.43    0.69
  -6   1  -8    8.40    0.69
   6   1   8    8.04    0.79
  -7  -1  -8   -0.14    0.36
   7  -1   8   -0.27    0.35
   7   1   8    0.38    0.38
  12  -2  -8    0.20    0.34
  11  -2  -8    6.84    0.78
  11   2  -8    6.76    0.65
  11   2  -8    8.08    0.65
  10  -2  -8    3.26    0.55
  10   2  -8    2.15    0.33
   9  -2  -8   -0.08    0.14
   9  -2  -8   -0.25    0.22
   9   2  -8    0.26    0.24
   9   2  -8   -0.01    0.27
   8  -2  -8    0.35    0.21
   8  -2  -8    0.11    0.15
   8   2  -8    0.28    0.22
   8   2  -8   -0.14    0.20
   7  -2  -8   92.63    2.21
   7  -2  -8   96.02    2.39
   7   2  -8   94.31    2.21
   7   2  -8   93.42    2.35
   6  -2  -8    0.62    0.17
   6  -2  -8    0.63    0.19
   6   2  -8    1.03    0.18
   6   2  -8    0.62    0.21
   5  -2  -8    8.80    0.71
   5  -2  -8    9.18    0.41
   5   2  -8    8.82    0.53
   5   2  -8   10.25    0.38
   4  -2  -8    0.81    0.17
   4   2  -8    0.63    0.12
   4   2  -8    0.68    0.24
   3  -2  -8  118.39    2.55
   3  -2  -8  116.57    2.68
   3   2  -8  118.00    2.69
   2  -2  -8    0.63    0.20
   2   2  -8    0.73    0.21
   2   2  -8    0.85    0.21
   1   2  -8   18.15    0.72
   1   2  -8   18.59    0.56
   1   2  -8   18.66    0.62
   0  -2  -8   10.53    0.55
   0   2  -8   10.17    0.56
   0   2  -8   11.47    0.46
  -1  -2  -8    5.85    0.44
   1  -2   8    6.42    0.40
  -1   2  -8    5.97    0.34
  -2  -2  -8   20.87    0.80
   2  -2   8   20.11    0.73
   2   2   8   20.47    0.83
  -2   2  -8   21.06    0.65
   3  -2   8   47.90    1.35
  -3  -2  -8   46.29    1.40
   3   2   8   43.92    1.43
   4  -2   8   43.45    1.35
  -4  -2  -8   44.29    1.41
  -4   2  -8   42.97    1.68
   4   2   8   43.75    1.47
  -5  -2  -8    2.07    0.38
  -5   2  -8    1.88    0.35
   6  -2   8   14.80    0.89
  -6  -2  -8   14.24    0.85
   6   2   8   15.58    0.97
  -6   2  -8   14.30    0.86
  -7  -2  -8   19.04    0.98
   7  -2   8   17.55    1.05
   7   2   8   19.23    1.25
  -7   2  -8   16.17    1.13
  12  -3  -8   34.41    1.95
  12   3  -8   32.11    1.42
  12   3  -8   35.09    1.33
  11  -3  -8    7.13    0.71
  11   3  -8    6.73    0.62
  11   3  -8    7.93    0.75
  10  -3  -8    8.23    0.69
  10   3  -8    8.11    0.66
  10   3  -8    7.53    0.58
   9  -3  -8   27.28    0.86
   9   3  -8   28.48    1.22
   8  -3  -8   38.47    0.95
   8   3  -8   39.46    1.33
   8   3  -8   38.77    1.11
   7  -3  -8    0.08    0.17
   7  -3  -8    0.17    0.14
   7   3  -8   -0.07    0.18
   7   3  -8    0.48    0.24
   6  -3  -8  134.42    3.10
   6  -3  -8  132.69    2.93
   6   3  -8  134.84    2.92
   6   3  -8  134.80    3.20
   5  -3  -8   26.85    0.87
   5  -3  -8   25.95    0.74
   5   3  -8   28.15    0.92
   4  -3  -8   41.18    1.18
   4  -3  -8   40.18    1.05
   4   3  -8   42.19    1.19
   3  -3  -8   16.56    0.68
   3  -3  -8   16.40    0.58
   3  -3  -8   16.92    0.51
   3   3  -8   17.22    0.76
   2  -3  -8   38.09    1.05
   2   3  -8   39.41    1.11
   2   3  -8   38.31    1.16
   1   3  -8    4.51    0.40
   1   3  -8    4.45    0.44
   0  -3  -8   41.74    1.18
   0   3  -8   42.55    1.02
   0   3  -8   41.47    1.13
   1  -3   8   23.04    0.70
  -1  -3  -8   23.72    0.83
  -1   3  -8   23.30    0.76
  -2  -3  -8   27.36    0.95
   2  -3   8   27.00    0.86
  -2   3  -8   27.45    0.85
  -3  -3  -8   32.36    1.10
  -3   3  -8   30.76    1.11
  -3   3  -8   31.73    0.99
   4  -3   8   72.48    1.91
  -4   3  -8   70.92    2.05
   4   3   8   70.57    2.07
   5  -3   8    0.09    0.26
  -5  -3  -8   -0.42    0.25
  -5   3  -8   -0.23    0.26
   5   3   8    0.44    0.36
  -6  -3  -8   14.87    0.88
   6  -3   8   15.98    0.90
   6   3   8   15.84    1.01
  -6   3  -8   15.68    0.93
  11  -4  -8   27.29    1.23
  11   4  -8   24.34    1.00
  11   4  -8   26.40    1.66
  10  -4  -8    3.51    0.45
  10  -4  -8    4.88    0.62
  10   4  -8    4.27    0.59
  10   4  -8    4.06    0.51
   9  -4  -8   10.50    0.80
   9  -4  -8   10.66    0.54
   9   4  -8   10.57    0.71
   9   4  -8   10.98    0.62
   8  -4  -8    1.68    0.35
   8  -4  -8    2.03    0.32
   8   4  -8    2.10    0.37
   8   4  -8    1.93    0.36
   7  -4  -8   42.66    1.21
   7   4  -8   41.90    1.14
   7   4  -8   43.09    1.34
   6  -4  -8   16.89    0.68
   6   4  -8   17.99    0.78
   5  -4  -8  115.39    2.75
   5  -4  -8  115.36    2.50
   5   4  -8  114.17    2.87
   4  -4  -8    6.40    0.33
   4  -4  -8    6.50    0.45
   4   4  -8    6.94    0.50
   3  -4  -8   40.20    1.05
   3  -4  -8   41.06    1.22
   3   4  -8   42.28    1.21
   2  -4  -8    0.36    0.16
   2  -4  -8    0.32    0.17
   2   4  -8    0.40    0.23
   1  -4  -8  138.49    3.40
   1  -4  -8  143.71    3.39
   1   4  -8  150.60    3.32
   0  -4  -8   35.76    1.05
   0   4  -8   34.68    1.05
   1  -4   8    0.61    0.16
  -1  -4  -8    0.31    0.19
  -1   4  -8    0.26    0.20
  -2  -4  -8   21.98    0.85
   2  -4   8   21.86    0.73
  -2   4  -8   22.31    0.77
  -2   4  -8   22.37    0.90
   3  -4   8   28.13    0.97
  -3  -4  -8   30.04    1.17
  -3   4  -8   27.69    1.21
  -3   4  -8   27.69    0.90
  -4  -4  -8   37.30    1.27
   4  -4   8   37.02    1.17
  -4   4  -8   36.17    1.27
   4   4   8   35.91    1.35
  -4   4  -8   35.62    1.28
   5  -4   8   -0.06    0.28
  -5  -4  -8    0.12    0.27
  -5  -4  -8   -0.03    0.38
  -5   4  -8   -0.06    0.29
   5   4   8   -0.01    0.32
   6  -4   8   17.66    0.94
  -6  -4  -8   18.27    1.12
  -6  -4  -8   16.44    0.90
  -6   4  -8   18.20    1.00
   6   4   8   18.57    1.26
  11  -5  -8   17.68    1.04
  11   5  -8   16.28    1.01
  10  -5  -8    0.87    0.36
  10  -5  -8    0.10    0.23
  10   5  -8    0.02    0.34
   9  -5  -8   41.88    1.45
   9  -5  -8   40.45    1.20
   9   5  -8   39.71    1.40
   8  -5  -8    0.46    0.20
   8   5  -8    0.98    0.32
   7  -5  -8    2.44    0.38
   7   5  -8    3.56    0.52
   6  -5  -8    6.92    0.48
   6   5  -8    6.52    0.64
   5  -5  -8  222.53    5.05
   5   5  -8  216.22    5.00
   4  -5  -8    8.85    0.35
   4  -5  -8    9.25    0.54
   4   5  -8    9.01    0.89
   3  -5  -8    4.77    0.45
   3  -5  -8    5.76    0.32
   3   5  -8    5.46    0.70
   2  -5  -8   32.03    1.06
   2  -5  -8   31.16    0.89
   2   5  -8   30.70    1.02
   1  -5  -8   69.18    1.83
   1   5  -8   67.19    1.78
   0  -5  -8    0.72    0.21
   0   5  -8    0.72    0.25
   0   5  -8    0.79    0.30
  -1  -5  -8   24.04    0.83
  -1  -5  -8   21.03    0.88
  -1   5  -8   23.58    0.84
  -1   5  -8   22.66    0.90
  -2  -5  -8   -0.11    0.21
   2  -5   8    0.03    0.22
  -2   5  -8    0.09    0.26
  -2   5  -8    0.30    0.21
   3  -5   8    1.78    0.31
  -3  -5  -8    1.02    0.27
  -3  -5  -8    0.92    0.27
  -3   5  -8    1.30    0.31
  -3   5  -8    0.97    0.26
   4  -5   8    1.06    0.29
  -4  -5  -8    0.96    0.32
  -4  -5  -8    0.85    0.31
  -4   5  -8    1.49    0.29
  -4   5  -8    1.26    0.34
  -5  -5  -8   16.41    0.89
  -5  -5  -8   17.85    0.92
   5  -5   8   16.99    0.85
   5   5   8   17.30    1.07
  -5   5  -8   16.67    0.92
  10  -6  -8    2.15    0.32
  10  -6  -8    2.63    0.44
  10   6  -8    2.55    0.47
   9  -6  -8    1.43    0.39
   9  -6  -8    1.45    0.28
   9   6  -8    1.39    0.41
   8  -6  -8   30.35    1.05
   8   6  -8   30.63    1.20
   7  -6  -8   15.25    0.71
   7   6  -8   15.17    0.83
   6  -6  -8   32.63    1.11
   5   6  -8    7.27    0.61
   4  -6  -8   41.73    1.31
   4   6  -8   41.04    1.33
   3  -6  -8   14.76    0.72
   3  -6  -8   14.33    0.48
   2  -6  -8   38.94    1.05
   2  -6  -8   38.47    1.27
   2   6  -8   39.85    1.25
   1  -6  -8   35.89    1.28
   1   6  -8   42.17    1.30
   1   6  -8   40.98    1.26
   0  -6  -8   14.90    0.60
   0   6  -8   15.31    0.82
   0   6  -8   14.28    0.72
  -1  -6  -8    7.91    0.49
  -1  -6  -8    7.62    0.60
  -1   6  -8    7.34    0.55
  -1   6  -8    6.99    0.90
  -2  -6  -8   13.52    0.72
  -2  -6  -8   14.40    0.78
  -2   6  -8   14.71    0.79
  -2   6  -8   13.83    0.68
  -3  -6  -8    9.56    0.71
  -3   6  -8    8.75    0.71
  -3   6  -8   10.61    0.62
  -4  -6  -8   39.46    1.34
  -4  -6  -8   39.45    1.40
  -4   6  -8   40.93    1.34
  -4   6  -8   39.30    1.41
  -5  -6  -8    0.37    0.33
  -5  -6  -8    0.03    0.32
  -5   6  -8   -0.07    0.37
   9  -7  -8    2.28    0.44
   9  -7  -8    2.42    0.39
   9   7  -8    2.41    0.48
   8  -7  -8   24.28    0.98
   8   7  -8   23.91    1.13
   7   7  -8    0.11    0.34
   6  -7  -8   45.61    1.43
   6   7  -8   43.89    1.49
   5  -7  -8    0.48    0.27
   5   7  -8    0.62    0.30
   4  -7  -8   27.22    1.05
   4   7  -8   28.12    1.14
   3  -7  -8    0.95    0.25
   2  -7  -8   29.57    0.85
   2  -7  -8   29.70    1.12
   1  -7  -8    3.88    0.48
   1  -7  -8    3.32    0.53
   1   7  -8    3.09    0.52
   1   7  -8    3.43    0.51
   0  -7  -8    2.70    0.38
   0  -7  -8    2.39    0.33
   0   7  -8    4.35    0.67
   0   7  -8    3.36    0.55
  -1  -7  -8    6.01    0.60
  -1  -7  -8    4.59    0.47
  -1   7  -8    5.64    0.88
  -1   7  -8    6.82    0.72
  -2  -7  -8   26.25    1.08
  -2  -7  -8   26.84    0.97
  -2   7  -8   24.15    1.07
  -2   7  -8   26.80    1.03
  -3  -7  -8    0.64    0.30
  -3  -7  -8    0.25    0.30
  -3   7  -8    0.72    0.29
  -3   7  -8   -0.01    0.30
  -4  -7  -8   16.26    0.85
  -4   7  -8   12.97    0.92
  -4   7  -8   15.66    0.85
   7  -8  -8   12.94    0.77
   7   8  -8   11.77    1.02
   6  -8  -8    2.82    0.39
   6   8  -8    4.41    0.68
   5  -8  -8   26.76    1.09
   5   8  -8   28.34    1.17
   4  -8  -8    0.42    0.27
   4   8  -8   -0.07    0.32
   3  -8  -8   29.24    1.15
   3   8  -8   27.36    1.14
   2  -8  -8    4.39    0.59
   2   8  -8    3.08    0.44
   1  -8  -8   49.84    1.63
   1   8  -8   51.03    1.61
   1   8  -8   51.99    1.62
   0  -8  -8    0.68    0.28
   0  -8  -8    0.46    0.23
   0   8  -8    0.55    0.32
   0   8  -8    0.11    0.30
  -1  -8  -8    7.26    0.55
  -1  -8  -8    8.04    0.81
  -1   8  -8    6.38    0.66
  -1   8  -8    7.34    0.67
  -2  -8  -8    5.55    0.76
  -2   8  -8    7.31    0.67
  -2   8  -8    5.65    0.70
  -4  -9   8    1.58    0.33
   4  -9  -8    0.97    0.35
   4   9  -8    0.61    0.37
   3  -9  -8    7.55    0.74
  -3  -9   8    7.58    0.72
  -2  -9   8   25.43    1.14
   2  -9  -8   24.38    1.11
   1  -9  -8    0.17    0.30
   1   9  -8    0.23    0.42
  12   0  -9    0.35    0.36
  11   0  -9   27.17    1.10
  10   0  -9   -0.18    0.24
   9   0  -9   10.29    0.60
   9   0  -9    9.72    0.45
   8   0  -9    0.00    0.14
   8   0  -9    0.29    0.21
   7   0  -9    6.84    0.47
   6   0  -9    0.15    0.20
   6   0  -9    0.45    0.18
   5   0  -9  150.54    3.37
   4   0  -9   -0.09    0.16
   4   0  -9    0.01    0.16
   3   0  -9    0.56    0.17
   2   0  -9   -0.05    0.13
   2   0  -9   -0.18    0.18
   1   0  -9  316.44    6.93
   0   0  -9    0.29    0.21
  -1   0  -9   52.15    1.50
   2   0   9   -0.11    0.21
  -2   0  -9    0.12    0.25
  -3   0  -9  177.65    4.51
   3   0   9  172.00    4.14
  -4   0  -9    0.03    0.27
  -5   0  -9   15.58    0.88
   6   0   9    0.10    0.34
  -6   0  -9   -0.18    0.37
  12  -1  -9   -0.02    0.33
  12   1  -9    0.34    0.37
  11  -1  -9    6.20    0.76
  10  -1  -9   43.83    1.44
  10   1  -9   44.52    1.37
  10   1  -9   43.11    1.49
   9  -1  -9    2.89    0.30
   9  -1  -9    2.87    0.47
   9   1  -9    3.48    0.45
   9   1  -9    2.74    0.32
   8  -1  -9    0.64    0.22
   8  -1  -9    0.51    0.23
   8   1  -9    0.51    0.24
   8   1  -9    0.61    0.15
   7  -1  -9   27.18    0.84
   7  -1  -9   26.70    0.91
   7   1  -9   25.67    0.89
   7   1  -9   26.64    0.86
   6  -1  -9   60.99    1.72
   6  -1  -9   65.73    1.66
   6   1  -9   66.91    1.67
   6   1  -9   64.17    1.59
   5  -1  -9    3.99    0.34
   5  -1  -9    3.98    0.45
   5   1  -9    3.18    0.32
   5   1  -9    4.18    0.42
   4  -1  -9   27.24    0.76
   4  -1  -9   26.25    0.97
   4   1  -9   27.43    0.89
   4   1  -9   28.23    0.84
   3  -1  -9   99.25    2.18
   3  -1  -9  100.16    2.37
   3   1  -9   98.36    2.41
   3   1  -9   98.93    2.27
   2  -1  -9   37.72    1.09
   2   1  -9   36.93    0.95
   2   1  -9   35.81    1.12
   1  -1  -9    0.95    0.23
   1   1  -9    0.66    0.16
   1   1  -9    0.57    0.21
   0  -1  -9   50.31    1.42
   0   1  -9   49.09    1.17
   0   1  -9   50.86    1.53
  -1  -1  -9    5.70    0.49
  -1   1  -9    5.63    0.50
   2  -1   9   18.25    0.77
  -2  -1  -9   19.61    0.91
   2   1   9   19.49    0.88
  -2   1  -9   19.49    0.84
  -3  -1  -9   27.68    1.19
   3  -1   9   26.35    0.97
  -4  -1  -9   99.94    2.62
  -4   1  -9   98.75    2.61
   4   1   9   98.24    2.61
  -5  -1  -9    1.29    0.37
   5  -1   9    2.32    0.38
   5   1   9    2.13    0.40
  -5   1  -9    1.98    0.37
   6  -1   9    3.17    0.49
  -6  -1  -9    3.83    0.55
   6   1   9    2.90    0.48
  -6   1  -9    3.29    0.50
  11  -2  -9    4.88    0.69
  11   2  -9    6.89    0.66
  11   2  -9    5.09    0.64
  10  -2  -9   13.23    0.92
  10   2  -9   13.64    0.74
  10   2  -9   11.42    0.67
   9  -2  -9    2.33    0.35
   9  -2  -9    3.23    0.36
   9   2  -9    3.90    0.60
   9   2  -9    2.55    0.34
   8  -2  -9   97.78    2.47
   8   2  -9   93.87    2.41
   8   2  -9   93.87    2.28
   7  -2  -9    2.76    0.37
   7  -2  -9    2.24    0.32
   7   2  -9    2.33    0.34
   7   2  -9    2.83    0.42
   6  -2  -9  203.02    4.53
   6  -2  -9  200.74    4.43
   6   2  -9  205.92    4.57
   6   2  -9  202.01    4.38
   5  -2  -9    1.31    0.21
   5  -2  -9    0.95    0.21
   5   2  -9    1.03    0.16
   5   2  -9    1.38    0.27
   4  -2  -9  156.56    3.48
   4  -2  -9  156.17    3.37
   4   2  -9  150.97    3.50
   3  -2  -9    0.24    0.12
   3   2  -9    0.41    0.21
   3   2  -9    0.21    0.19
   2  -2  -9   49.02    1.33
   2   2  -9   49.69    1.17
   2   2  -9   49.67    1.41
   2   2  -9   47.74    1.25
   1  -2  -9    0.26    0.19
   1   2  -9    0.52    0.18
   1   2  -9   -0.01    0.19
   0  -2  -9    8.91    0.52
   0   2  -9    8.49    0.56
   0   2  -9    9.51    0.41
   1  -2   9   14.77    0.61
  -1  -2  -9   15.16    0.71
  -1   2  -9   15.59    0.53
  -2  -2  -9   26.33    0.99
   2  -2   9   25.78    0.98
  -3  -2  -9   -0.38    0.38
   3  -2   9    0.04    0.22
  -3   2  -9    0.31    0.25
   3   2   9    0.12    0.30
  -4  -2  -9   32.44    1.22
   4  -2   9   33.89    1.14
  -4   2  -9   32.64    1.23
  -5  -2  -9   14.83    0.96
   5  -2   9   12.92    0.84
   5   2   9   14.91    0.91
  -5   2  -9   13.60    0.86
   6  -2   9   12.93    0.88
  -6  -2  -9   13.91    0.90
   6   2   9   15.26    1.00
  -6   2  -9   13.69    0.92
  11  -3  -9   16.25    0.94
  11   3  -9   15.44    0.79
  11   3  -9   15.79    0.91
  10  -3  -9   42.00    1.50
  10   3  -9   40.07    1.39
  10   3  -9   41.84    1.26
   9  -3  -9   16.07    0.85
   9  -3  -9   16.12    0.64
   9   3  -9   15.67    0.73
   9   3  -9   16.76    0.92
   8  -3  -9    2.78    0.49
   8  -3  -9    3.28    0.36
   8  -3  -9    3.21    0.43
   8   3  -9    2.64    0.39
   8   3  -9    2.80    0.46
   7  -3  -9   47.51    1.31
   7  -3  -9   48.20    1.33
   7   3  -9   46.06    1.40
   7   3  -9   46.77    1.17
   6  -3  -9    2.03    0.33
   6  -3  -9    1.61    0.20
   6   3  -9    1.81    0.32
   5  -3  -9   40.26    1.16
   5  -3  -9   38.38    1.03
   5   3  -9   38.97    1.18
   4  -3  -9   12.11    0.51
   4  -3  -9   12.88    0.75
   4   3  -9   12.60    0.61
   3  -3  -9  114.80    2.65
   3  -3  -9  115.89    2.78
   3   3  -9  113.59    2.71
   2  -3  -9   14.41    0.60
   2   3  -9   13.11    0.65
   2   3  -9   12.61    0.66
   1  -3  -9   34.06    1.03
   1   3  -9   34.07    1.01
   0  -3  -9   13.66    0.61
   0   3  -9   13.26    0.58
   1  -3   9    5.61    0.40
  -1  -3  -9    4.74    0.47
  -1   3  -9    5.82    0.43
   2  -3   9   26.90    0.88
  -2  -3  -9   29.70    1.32
   3  -3   9   46.83    1.35
  -3   3  -9   47.07    1.52
   4  -3   9    9.95    0.70
  -4  -3  -9   11.26    0.72
  -4   3  -9   11.18    0.74
   4   3   9   10.59    0.80
  -5  -3  -9    5.89    0.67
   5  -3   9    6.43    0.86
   5   3   9    6.57    0.76
  -5   3  -9    6.34    0.73
  11  -4  -9   44.02    1.82
  11   4  -9   41.14    1.56
  10  -4  -9   -0.19    0.21
  10  -4  -9    0.36    0.30
  10   4  -9    0.01    0.33
   9  -4  -9    0.28    0.28
   9  -4  -9    0.04    0.19
   9   4  -9   -0.10    0.31
   8  -4  -9    8.09    0.50
   7  -4  -9    1.83    0.25
   7   4  -9    2.45    0.41
   6  -4  -9    0.24    0.14
   6  -4  -9   -0.15    0.16
   6   4  -9   -0.03    0.24
   5  -4  -9   19.55    0.60
   5  -4  -9   19.49    0.78
   5   4  -9   19.58    0.81
   4  -4  -9    0.31    0.19
   4  -4  -9    0.71    0.17
   4   4  -9    0.65    0.24
   3  -4  -9   12.88    0.52
   3  -4  -9   12.89    0.63
   3   4  -9   14.04    0.63
   2  -4  -9    0.08    0.17
   2   4  -9    0.40    0.21
   1  -4  -9   38.35    1.11
   1  -4  -9   37.13    1.31
   1   4  -9   38.10    1.12
   0  -4  -9    4.04    0.40
   0   4  -9    4.96    0.41
  -1  -4  -9   54.10    1.53
  -1  -4  -9   52.46    1.97
  -1   4  -9   56.47    2.05
  -1   4  -9   53.73    1.44
  -2  -4  -9   25.46    0.96
   2  -4   9   25.64    0.90
  -2   4  -9   26.11    0.85
  -2   4  -9   25.31    1.02
  -3  -4  -9   19.12    0.90
  -3   4  -9   19.21    0.74
  -3   4  -9   18.97    0.92
  -4  -4  -9    0.84    0.34
  -4   4  -9    0.71    0.31
  -5  -4  -9   16.77    1.06
  -5  -4  -9   15.40    0.91
   5   4   9   16.44    1.21
  10  -5  -9    4.74    0.50
  10  -5  -9    6.36    0.76
  10   5  -9    4.48    0.96
   9  -5  -9   -0.21    0.22
   9  -5  -9    0.64    0.31
   9   5  -9   -0.29    0.32
   8  -5  -9   10.63    0.59
   8   5  -9    9.60    0.72
   7  -5  -9    0.77    0.22
   6  -5  -9   58.62    1.64
   6   5  -9   57.99    1.73
   5  -5  -9    0.61    0.21
   5   5  -9    0.99    0.31
   4  -5  -9   29.13    0.79
   4  -5  -9   28.16    1.01
   4   5  -9   29.19    1.03
   3  -5  -9    6.00    0.39
   3  -5  -9    6.05    0.50
   3   5  -9    5.90    0.53
   2  -5  -9  141.98    3.44
   2   5  -9  143.16    3.35
   1  -5  -9    0.94    0.28
   1  -5  -9    1.01    0.21
   1   5  -9    0.97    0.38
   1   5  -9    1.13    0.27
   0  -5  -9    9.59    0.54
   0  -5  -9    9.90    0.66
   0   5  -9    9.17    0.78
   0   5  -9    9.87    0.56
  -1  -5  -9   -0.13    0.21
  -1  -5  -9    0.16    0.22
  -1   5  -9    0.05    0.25
  -1   5  -9    0.31    0.22
  -2  -5  -9   -0.13    0.23
  -2  -5  -9   -0.20    0.22
  -2   5  -9   -0.35    0.25
  -2   5  -9    0.20    0.23
  -3  -5  -9    4.48    0.60
  -3  -5  -9    4.57    0.58
  -3   5  -9    4.10    0.62
  -3   5  -9    4.16    0.50
  -4  -5  -9   64.58    1.89
  -4  -5  -9   65.07    1.94
  -4   5  -9   65.00    1.99
  -4   5  -9   63.62    1.76
   9  -6  -9    0.20    0.32
   9  -6  -9    0.29    0.66
   8  -6  -9    7.41    0.71
   8   6  -9    7.85    0.71
   7  -6  -9    0.16    0.28
   7   6  -9    0.40    0.31
   6  -6  -9    0.21    0.37
   6   6  -9   -0.03    0.35
   4   6  -9   24.59    0.99
   3  -6  -9    8.12    0.61
   3  -6  -9    7.85    0.41
   3   6  -9    7.72    0.61
   2  -6  -9    0.42    0.22
   2  -6  -9    0.09    0.23
   2   6  -9    0.37    0.27
   1  -6  -9   29.38    1.14
   1  -6  -9   30.71    0.95
   1   6  -9   32.00    1.08
   1   6  -9   30.15    1.14
   0  -6  -9    0.13    0.23
   0  -6  -9   -0.06    0.21
   0   6  -9    0.19    0.26
   0   6  -9   -0.05    0.26
  -1  -6  -9    3.69    0.56
  -1  -6  -9    2.86    0.45
  -1   6  -9    2.92    0.41
  -1   6  -9    4.24    0.49
  -2  -6  -9   10.24    0.74
  -2   6  -9   10.72    0.64
  -2   6  -9   10.01    0.76
  -3  -6  -9   10.08    0.68
  -3  -6  -9    9.01    0.80
  -3   6  -9    9.76    0.78
  -3   6  -9   10.36    0.80
   8  -7  -9    2.74    0.38
   8   7  -9    2.30    0.57
   7  -7  -9    8.16    0.65
   7   7  -9    8.33    0.76
   6  -7  -9    3.32    0.41
   6   7  -9    3.79    0.62
   4  -7  -9    0.96    0.28
   4   7  -9    1.28    0.37
   3  -7  -9   57.36    1.74
   3   7  -9   56.58    1.73
   2  -7  -9    1.06    0.32
   2   7  -9    0.69    0.32
   1  -7  -9    8.72    0.70
   1  -7  -9    9.02    0.51
   1   7  -9    8.69    0.70
   1   7  -9   10.30    0.69
   0  -7  -9    0.42    0.26
   0  -7  -9    0.67    0.25
   0   7  -9    0.49    0.30
   0   7  -9    0.46    0.45
  -1  -7  -9   16.35    0.91
  -1  -7  -9   15.16    0.75
  -1   7  -9   17.12    0.87
  -1   7  -9   16.95    0.90
  -2  -7  -9    1.93    0.35
  -2  -7  -9    1.24    0.41
  -2   7  -9    1.58    0.46
  -2   7  -9    1.84    0.38
   6  -8  -9    4.23    0.64
   6   8  -9    4.06    0.61
   5   8  -9    1.56    0.47
   4  -8  -9    1.97    0.36
   4   8  -9    2.03    0.59
   3  -8  -9    6.20    0.76
   3   8  -9    7.91    0.70
   2   8  -9   15.74    0.88
   1  -8  -9    0.24    0.34
   1   8  -9    0.06    0.32
   1   8  -9    0.46    0.38
   0  -8  -9    3.79    0.63
   0   8  -9    4.01    0.63
  10   0 -10   26.03    1.02
   9   0 -10    0.04    0.22
   9   0 -10   -0.15    0.19
   9   0 -10   -0.26    0.23
   8   0 -10    0.14    0.22
   8   0 -10    0.61    0.24
   8   0 -10    0.49    0.21
   7   0 -10   -0.07    0.22
   7   0 -10   -0.18    0.19
   6   0 -10  150.90    3.45
   6   0 -10  153.01    3.49
   6   0 -10  150.79    3.47
   5   0 -10   -0.32    0.19
   5   0 -10    0.16    0.18
   4   0 -10    1.51    0.22
   3   0 -10   -0.25    0.14
   3   0 -10    0.07    0.21
   2   0 -10   11.81    0.62
   1   0 -10    0.33    0.21
   0   0 -10  148.56    3.69
  -1   0 -10    0.33    0.24
  -2   0 -10   15.64    0.82
  -3   0 -10    0.49    0.29
  -4   0 -10   48.92    1.62
   4   0  10   47.48    1.56
   5   0  10    0.33    0.35
  -5   0 -10   -0.61    0.33
  11  -1 -10   10.42    0.79
  11   1 -10   11.28    0.75
  10  -1 -10    8.93    0.67
  10   1 -10    7.92    0.60
  10   1 -10    7.83    0.64
   9  -1 -10    0.79    0.27
   9  -1 -10    1.27    0.23
   9   1 -10    1.19    0.30
   9   1 -10    0.57    0.27
   8  -1 -10   54.20    1.56
   8  -1 -10   55.16    1.43
   8   1 -10   54.41    1.55
   7  -1 -10   65.45    1.66
   7  -1 -10   64.88    1.75
   7  -1 -10   64.66    1.66
   7   1 -10   65.36    1.72
   7   1 -10   65.16    1.66
   6  -1 -10    8.47    0.48
   6   1 -10    8.38    0.51
   6   1 -10    8.18    0.45
   5  -1 -10    0.21    0.19
   5  -1 -10    0.27    0.19
   5   1 -10   -0.10    0.18
   5   1 -10    0.22    0.17
   4  -1 -10   30.00    0.82
   4  -1 -10   31.71    0.97
   4   1 -10   30.19    0.90
   3  -1 -10   -0.25    0.17
   3   1 -10   -0.03    0.18
   3   1 -10    0.15    0.17
   2  -1 -10    3.54    0.41
   2   1 -10    4.11    0.43
   2   1 -10    3.96    0.31
   1  -1 -10   75.72    1.99
   1   1 -10   75.33    1.71
   1   1 -10   76.03    2.01
   0  -1 -10    2.52    0.35
   0   1 -10    2.79    0.46
  -1  -1 -10    8.98    0.63
  -1   1 -10    9.63    0.66
   2  -1  10    0.15    0.23
  -2  -1 -10    0.24    0.31
  -2   1 -10    0.44    0.27
   3  -1  10   51.63    1.51
  -3  -1 -10   52.31    1.63
  -3   1 -10   51.06    1.62
   3   1  10   50.61    1.59
   4  -1  10    2.30    0.37
  -4  -1 -10    1.56    0.40
  -4   1 -10    2.38    0.41
   4   1  10    2.04    0.39
   5  -1  10    6.46    0.73
  -5  -1 -10    4.63    0.70
   5   1  10    4.72    0.70
  -5   1 -10    4.82    0.71
  11  -2 -10   -0.08    0.33
  11   2 -10    0.23    0.32
  10  -2 -10    0.00    0.32
  10   2 -10   -0.46    0.26
  10   2 -10   -0.11    0.30
   9  -2 -10   -0.05    0.19
   9  -2 -10    0.13    0.26
   9   2 -10   -0.34    0.40
   8  -2 -10    7.54    0.46
   8  -2 -10    6.92    0.54
   8  -2 -10    8.84    0.59
   8   2 -10    6.67    0.48
   8   2 -10    8.20    0.58
   7  -2 -10   18.80    0.71
   7  -2 -10   19.43    0.79
   7   2 -10   19.60    0.82
   7   2 -10   19.55    0.66
   6  -2 -10   18.01    0.70
   6   2 -10   17.17    0.57
   6   2 -10   17.51    0.73
   5  -2 -10    0.64    0.18
   5  -2 -10    0.37    0.21
   5  -2 -10    0.80    0.20
   5   2 -10    0.72    0.23
   4  -2 -10   12.60    0.56
   4  -2 -10   11.80    0.43
   4   2 -10   11.42    0.61
   3  -2 -10   33.52    1.01
   3   2 -10   33.47    1.09
   3   2 -10   31.56    0.96
   2  -2 -10   11.06    0.56
   2   2 -10   10.73    0.49
   2   2 -10   10.58    0.62
   1  -2 -10    9.52    0.55
   1   2 -10    9.79    0.44
   1   2 -10    9.59    0.63
   0   2 -10    1.44    0.29
   0   2 -10    1.81    0.29
  -1  -2 -10   68.84    2.16
  -1   2 -10   66.82    1.61
  -1   2 -10   69.21    2.15
   2  -2  10    0.46    0.24
  -2  -2 -10    0.59    0.30
  -2   2 -10    0.28    0.27
   3  -2  10    0.58    0.26
  -3  -2 -10    0.30    0.29
  -3   2 -10    0.44    0.29
  -4  -2 -10    3.77    0.63
  -4   2 -10    5.53    0.65
   4   2  10    4.18    0.72
  -5  -2 -10    1.99    0.41
  -5   2 -10    0.94    0.37
  11  -3 -10    0.46    0.36
  10  -3 -10    2.60    0.40
  10   3 -10    2.53    0.43
   9  -3 -10    0.32    0.36
   9  -3 -10    0.30    0.19
   9   3 -10    0.51    0.45
   8  -3 -10   55.20    1.69
   8  -3 -10   55.14    1.50
   8   3 -10   57.54    1.65
   7  -3 -10   11.29    0.57
   7  -3 -10   11.33    0.50
   7   3 -10   11.53    0.67
   6  -3 -10    0.18    0.18
   6  -3 -10   -0.05    0.18
   6   3 -10   -0.25    0.23
   5  -3 -10   35.27    1.03
   5  -3 -10   36.85    1.15
   5   3 -10   36.90    1.13
   4  -3 -10    8.81    0.67
   4  -3 -10    8.56    0.74
   4  -3 -10    9.50    0.36
   4   3 -10    9.75    0.54
   3  -3 -10    0.57    0.21
   3  -3 -10    0.78    0.27
   3   3 -10    1.21    0.27
   3   3 -10    0.70    0.24
   2  -3 -10   14.95    0.63
   2   3 -10   14.90    0.73
   2   3 -10   15.30    0.65
   1  -3 -10    0.51    0.20
   1   3 -10    0.39    0.22
   0  -3 -10    0.48    0.23
   0   3 -10    0.83    0.25
  -1  -3 -10    1.63    0.30
  -1   3 -10    1.06    0.29
  -1   3 -10    1.70    0.32
  -2  -3 -10   29.60    1.11
   2  -3  10   26.65    1.25
  -2   3 -10   26.96    1.21
  -2   3 -10   27.56    1.12
   3  -3  10    2.77    0.38
  -3  -3 -10    2.77    0.54
  -3   3 -10    3.36    0.46
   4  -3  10    0.56    0.35
  10  -4 -10   11.30    0.84
  10   4 -10   11.99    0.82
   9  -4 -10   38.23    1.39
   9  -4 -10   39.15    1.20
   9   4 -10   37.89    1.36
   8  -4 -10    3.20    0.43
   8   4 -10    2.27    0.43
   7  -4 -10   34.53    1.11
   7   4 -10   34.71    1.20
   6  -4 -10   45.92    1.37
   6   4 -10   47.15    1.43
   5  -4 -10   11.62    0.51
   5  -4 -10   12.74    0.65
   5   4 -10   12.10    0.66
   4  -4 -10    9.27    0.58
   4  -4 -10    9.88    0.52
   4   4 -10    9.73    0.58
   3  -4 -10    3.44    0.39
   3  -4 -10    3.38    0.44
   3   4 -10    2.99    0.47
   3   4 -10    3.00    0.42
   2  -4 -10    0.43    0.19
   2  -4 -10    0.65    0.28
   2   4 -10    0.72    0.22
   1  -4 -10   20.29    0.76
   1  -4 -10   20.34    0.92
   1   4 -10   21.06    0.75
   1   4 -10   19.71    0.90
   0  -4 -10   22.01    0.85
   0  -4 -10   22.72    0.94
   0   4 -10   20.73    0.95
   0   4 -10   21.44    0.77
  -1  -4 -10   14.65    0.72
  -1  -4 -10   14.74    0.78
  -1   4 -10   14.98    0.61
  -1   4 -10   12.12    0.78
  -2  -4 -10   -0.01    0.26
  -2   4 -10    0.44    0.29
  -2   4 -10    0.03    0.23
  -3  -4 -10    1.07    0.33
  -3   4 -10    0.24    0.35
  -4  -4 -10   18.91    1.21
  -4  -4 -10   16.39    0.99
  -4   4 -10   16.90    1.00
   9  -5 -10    6.71    0.74
   9  -5 -10    8.01    0.59
   9   5 -10    6.81    0.72
   8  -5 -10    2.57    0.33
   8   5 -10    2.73    0.45
   7  -5 -10   20.08    0.84
   7   5 -10   20.57    1.24
   6  -5 -10    0.68    0.24
   6   5 -10    0.59    0.49
   5  -5 -10   58.71    1.96
   5   5 -10   57.64    1.68
   4  -5 -10    0.04    0.19
   4  -5 -10   -0.17    0.26
   4   5 -10   -0.35    0.25
   3  -5 -10    2.74    0.46
   3   5 -10    2.76    0.47
   3   5 -10    3.06    0.50
   2  -5 -10    0.87    0.26
   2   5 -10    1.12    0.27
   2   5 -10    0.61    0.29
   1  -5 -10  145.22    3.60
   1  -5 -10  149.54    3.47
   1   5 -10  145.73    3.43
   1   5 -10  145.95    3.60
   0  -5 -10    0.32    0.22
   0  -5 -10    0.20    0.23
   0   5 -10   -0.33    0.26
   0   5 -10    0.29    0.25
  -1  -5 -10    4.99    0.60
  -1  -5 -10    6.23    0.57
  -1   5 -10    4.41    0.61
  -1   5 -10    3.93    0.47
  -2  -5 -10    4.70    0.58
  -2  -5 -10    3.78    0.62
  -2   5 -10    4.12    0.65
  -2   5 -10    4.76    0.59
  -3  -5 -10   42.34    1.55
  -3  -5 -10   43.39    1.43
  -3   5 -10   43.07    1.59
  -3   5 -10   42.99    1.31
   8  -6 -10    0.07    0.27
   8   6 -10    0.06    0.36
   7  -6 -10    9.19    0.65
   7   6 -10    7.72    0.71
   6  -6 -10   76.60    2.09
   6   6 -10   73.40    2.12
   5  -6 -10    4.54    0.57
   5   6 -10    5.55    0.62
   4  -6 -10    0.10    0.24
   3  -6 -10   16.61    0.83
   3   6 -10   16.65    0.86
   2  -6 -10   49.84    1.35
   2  -6 -10   50.24    1.61
   2   6 -10   50.88    1.51
   2   6 -10   50.41    1.61
   1  -6 -10    2.22    0.33
   1  -6 -10    3.70    0.44
   1   6 -10    3.85    0.54
   1   6 -10    2.66    0.40
   0  -6 -10   24.25    1.05
   0  -6 -10   23.87    0.89
   0   6 -10   23.78    0.93
   0   6 -10   22.80    1.05
  -1  -6 -10   12.81    1.16
  -1   6 -10   12.92    0.96
  -2  -6 -10    9.35    0.69
  -2  -6 -10    9.07    0.77
  -2   6 -10    9.33    0.78
  -2   6 -10    8.40    0.68
   6  -7 -10   -0.13    0.27
   6   7 -10   -0.11    0.35
   5  -7 -10    2.26    0.37
   5   7 -10    3.08    0.47
   4  -7 -10   15.95    0.88
   4   7 -10   14.18    0.86
   3  -7 -10   16.59    0.91
   3   7 -10   16.19    0.87
   2  -7 -10   21.55    1.16
   2   7 -10   21.63    1.20
   2   7 -10   20.02    0.94
   1  -7 -10    2.16    0.52
   1   7 -10    2.69    0.42
   0  -7 -10    3.08    0.59
   0  -7 -10    3.21    0.43
   0   7 -10    5.14    0.71
   0   7 -10    4.81    0.60
  10   0 -11    0.64    0.35
  10   0 -11    0.03    0.30
   9   0 -11    5.93    0.53
   9   0 -11    4.81    0.54
   8   0 -11   -0.10    0.22
   8   0 -11    0.28    0.19
   7   0 -11   59.02    1.59
   7   0 -11   57.88    1.57
   7   0 -11   58.97    1.59
   6   0 -11    0.12    0.21
   6   0 -11   -0.26    0.23
   5   0 -11    7.53    0.53
   5   0 -11    7.50    0.48
   4   0 -11   -0.29    0.18
   4   0 -11   -0.25    0.20
   3   0 -11   13.29    0.68
   3   0 -11   13.67    0.53
   2   0 -11    0.02    0.22
   1   0 -11  129.18    3.18
   0   0 -11   -0.10    0.33
  -1   0 -11    2.22    0.36
  -2   0 -11    0.53    0.30
  -3   0 -11  115.80    3.12
  10  -1 -11   16.40    0.88
  10   1 -11   17.73    0.80
  10   1 -11   17.83    0.87
   9  -1 -11    1.40    0.22
   9  -1 -11    1.63    0.30
   9  -1 -11    1.14    0.30
   9   1 -11    1.25    0.53
   9   1 -11    1.05    0.30
   8  -1 -11   16.79    0.67
   8  -1 -11   14.65    0.63
   8  -1 -11   14.63    0.68
   8  -1 -11   15.35    0.74
   8   1 -11   15.25    0.71
   7  -1 -11   10.16    0.54
   7  -1 -11   10.17    0.58
   7  -1 -11    9.87    0.53
   7  -1 -11   10.63    0.55
   7   1 -11    9.85    0.59
   7   1 -11    9.80    0.54
   6  -1 -11  105.01    2.53
   6   1 -11  105.86    2.53
   6   1 -11  108.28    2.62
   6   1 -11  102.11    2.44
   5  -1 -11    9.86    0.56
   5  -1 -11    9.13    0.48
   5   1 -11   10.25    0.60
   5   1 -11    9.71    0.47
   5   1 -11   10.09    0.56
   4  -1 -11    7.85    0.51
   4  -1 -11    6.87    0.37
   4   1 -11    7.61    0.45
   4   1 -11    8.21    0.55
   3  -1 -11   41.44    1.26
   3   1 -11   42.13    1.57
   3   1 -11   41.58    1.08
   2  -1 -11   36.93    1.18
   2   1 -11   36.45    1.22
   2   1 -11   36.15    0.96
   1  -1 -11   16.21    0.79
   1   1 -11   18.59    1.20
   0   1 -11   22.55    0.97
  -1  -1 -11   42.92    1.42
  -1   1 -11   43.52    1.44
  -2  -1 -11    8.24    0.71
  -2   1 -11    8.43    0.69
  -3  -1 -11   11.54    0.83
  10  -2 -11    9.47    0.76
  10   2 -11    9.97    0.72
   9  -2 -11   -0.02    0.28
   9  -2 -11   -0.03    0.19
   9   2 -11    0.11    0.29
   8  -2 -11   24.30    0.81
   8  -2 -11   22.58    0.83
   8  -2 -11   23.97    1.07
   8   2 -11   22.25    0.92
   7  -2 -11    8.12    0.52
   7  -2 -11    8.46    0.49
   7  -2 -11    7.89    0.51
   7   2 -11    9.07    0.58
   6  -2 -11    2.52    0.42
   6  -2 -11    3.44    0.40
   6  -2 -11    3.34    0.38
   6   2 -11    2.68    0.43
   5  -2 -11    5.14    0.36
   5  -2 -11    4.07    0.40
   5   2 -11    4.11    0.44
   4  -2 -11   57.80    1.54
   4   2 -11   56.60    1.64
   4   2 -11   55.94    1.49
   3  -2 -11    2.43    0.41
   3   2 -11    2.46    0.31
   3   2 -11    1.67    0.30
   2  -2 -11    6.28    0.51
   2   2 -11    6.93    0.42
   1  -2 -11    6.82    0.54
   1   2 -11    7.05    0.41
   1   2 -11    7.88    0.61
   0  -2 -11   16.12    0.81
   0   2 -11   16.52    0.83
  -1  -2 -11    0.68    0.30
  -1   2 -11    1.30    0.34
  -2  -2 -11    7.06    0.98
  -2   2 -11    6.21    0.69
  -3  -2 -11   -0.35    0.31
  -3   2 -11    0.06    0.35
  10  -3 -11   16.34    0.95
  10   3 -11   15.86    0.92
   9  -3 -11   22.31    1.15
   9  -3 -11   20.81    0.81
   9   3 -11   20.31    0.96
   8  -3 -11    2.28    0.29
   8   3 -11    2.34    0.58
   7  -3 -11    1.20    0.23
   7  -3 -11    1.58    0.31
   7   3 -11    1.13    0.33
   6  -3 -11   45.94    1.36
   6  -3 -11   42.70    1.31
   6   3 -11   44.79    1.34
   5  -3 -11    1.56    0.28
   5  -3 -11    1.07    0.25
   5   3 -11    1.46    0.29
   4  -3 -11   10.02    0.52
   4   3 -11    8.65    0.75
   4   3 -11   10.18    0.56
   3  -3 -11    7.26    0.48
   3   3 -11    8.20    0.61
   3   3 -11    8.38    0.50
   2  -3 -11   -0.06    0.21
   2   3 -11    0.01    0.25
   2   3 -11    0.32    0.24
   1  -3 -11    3.14    0.49
   1   3 -11    4.46    0.51
   1   3 -11    3.87    0.55
   0  -3 -11    1.08    0.27
   0   3 -11    0.97    0.30
  -1  -3 -11   32.05    1.16
  -1   3 -11   30.13    1.20
  -2  -3 -11    0.33    0.31
  -2   3 -11    0.49    0.38
  -3  -3 -11    0.83    0.39
  -3   3 -11    0.03    0.32
   9  -4 -11    0.87    0.25
   9  -4 -11    0.99    0.33
   9   4 -11    0.46    0.37
   8  -4 -11   16.46    0.77
   8   4 -11   16.00    0.87
   7  -4 -11   30.58    1.09
   6  -4 -11    0.79    0.33
   6   4 -11    1.33    0.33
   5  -4 -11    4.50    0.61
   5   4 -11    4.01    0.48
   4  -4 -11    4.90    0.44
   4  -4 -11    4.83    0.76
   4   4 -11    4.85    0.55
   4   4 -11    4.19    0.49
   3  -4 -11    5.71    0.57
   3  -4 -11    7.18    0.47
   3   4 -11    5.81    0.60
   3   4 -11    6.56    0.50
   2  -4 -11    1.83    0.32
   2  -4 -11    1.85    0.29
   2   4 -11    2.86    0.42
   2   4 -11    1.83    0.33
   1  -4 -11   24.51    1.05
   1  -4 -11   23.73    0.96
   1   4 -11   25.22    0.85
   1   4 -11   24.40    1.03
   0  -4 -11    5.71    0.62
   0  -4 -11    5.86    0.72
   0   4 -11    6.85    0.47
   0   4 -11    4.34    0.63
  -1  -4 -11    1.14    0.31
  -1  -4 -11    1.10    0.32
  -2  -4 -11   -0.13    0.29
  -2  -4 -11   -0.03    0.31
  -2   4 -11    0.10    0.34
   8  -5 -11    0.32    0.27
   8   5 -11    0.14    0.35
   7  -5 -11    0.48    0.28
   7   5 -11   -0.50    0.33
   6  -5 -11   26.85    1.05
   6   5 -11   25.78    1.06
   5  -5 -11    0.91    0.27
   5   5 -11    1.03    0.45
   4  -5 -11    0.37    0.23
   4   5 -11    0.13    0.27
   4   5 -11    0.03    0.27
   3  -5 -11    2.04    0.27
   3  -5 -11    1.42    0.28
   3   5 -11    2.49    0.35
   3   5 -11    2.16    0.37
   2  -5 -11   33.67    1.06
   2  -5 -11   33.36    1.27
   2   5 -11   35.97    1.17
   2   5 -11   36.45    1.31
   1  -5 -11    0.72    0.29
   1  -5 -11    0.41    0.26
   1   5 -11    0.96    0.29
   1   5 -11    0.69    0.31
   0  -5 -11   19.70    1.42
   0  -5 -11   17.74    0.98
   0   5 -11   20.64    0.82
   0   5 -11   17.45    1.28
  -1  -5 -11    0.35    0.32
  -1  -5 -11    0.72    0.30
  -1   5 -11    0.13    0.34
  -1   5 -11    0.45    0.31
   7  -6 -11    2.92    0.38
   7   6 -11    4.41    0.55
   6  -6 -11    0.15    0.27
   6   6 -11    0.32    0.35
   5  -6 -11   22.14    0.98
   5   6 -11   21.10    1.00
   4  -6 -11   40.02    1.38
   4   6 -11   37.15    1.31
   3  -6 -11    4.70    0.64
   3   6 -11    4.12    0.73
   3   6 -11    5.04    0.62
   2   6 -11    1.01    0.35
   1  -6 -11   43.22    1.40
   1  -6 -11   44.75    1.56
   1   6 -11   45.23    1.59
   1   6 -11   46.01    1.60
   0  -6 -11    6.39    0.70
   0   6 -11    6.54    0.75
   9   0 -12    0.28    0.29
   9   0 -12    0.10    0.28
   9   0 -12   -0.01    0.34
   8   0 -12   31.53    1.07
   8   0 -12   27.74    0.99
   8   0 -12   28.90    1.03
   8   0 -12   30.49    1.00
   7   0 -12   -0.16    0.25
   7   0 -12   -0.12    0.27
   7   0 -12   -0.18    0.25
   6   0 -12   39.27    1.17
   6   0 -12   41.24    1.27
   6   0 -12   40.82    1.22
   5   0 -12   -0.59    0.30
   5   0 -12   -0.36    0.37
   3   0 -12    0.22    0.30
   2   0 -12   47.64    1.51
   1   0 -12   -0.29    0.28
   0   0 -12    1.18    0.33
  -1   0 -12   -0.23    0.30
  -2   0 -12    1.08    0.38
   9  -1 -12    3.58    0.48
   9  -1 -12    3.06    0.52
   9   1 -12    3.72    0.59
   8  -1 -12    3.97    0.47
   8  -1 -12    4.64    0.56
   8  -1 -12    3.63    0.48
   8  -1 -12    4.61    0.50
   8   1 -12    4.66    0.64
   7  -1 -12   21.22    0.86
   7  -1 -12   21.43    0.98
   7  -1 -12   21.21    0.83
   7  -1 -12   21.60    0.78
   7   1 -12   21.88    0.86
   6  -1 -12   15.43    0.71
   6   1 -12   16.17    0.88
   6   1 -12   15.27    0.67
   5  -1 -12    2.96    0.35
   5   1 -12    3.56    0.46
   5   1 -12    4.78    0.70
   4  -1 -12   27.46    1.20
   3  -1 -12   13.69    0.72
   3   1 -12   14.39    0.78
   2   1 -12    8.33    0.69
   1  -1 -12   29.20    1.13
   1   1 -12   30.93    1.17
   0  -1 -12   24.35    1.03
   0   1 -12   23.94    1.06
  -1  -1 -12    4.49    0.74
  -1   1 -12    2.30    0.41
  -2  -1 -12    0.98    0.42
  -2   1 -12    0.32    0.35
   9  -2 -12   10.08    0.88
   9  -2 -12   11.38    0.64
   9  -2 -12    8.95    0.58
   9   2 -12   10.06    0.74
   8  -2 -12    7.97    0.53
   8  -2 -12    8.19    0.66
   8  -2 -12    6.66    0.54
   8  -2 -12    7.25    0.62
   8   2 -12    6.58    0.71
   7  -2 -12   13.77    0.65
   7  -2 -12   12.68    0.61
   7  -2 -12   13.49    0.69
   7   2 -12   12.69    0.71
   6  -2 -12    1.56    0.28
   6  -2 -12    1.10    0.26
   6   2 -12    1.08    0.29
   6   2 -12    1.04    0.31
   5  -2 -12    4.82    0.49
   5   2 -12    5.95    0.57
   5   2 -12    3.54    0.46
   4  -2 -12    0.32    0.25
   4   2 -12    0.37    0.26
   3  -2 -12   26.81    0.97
   3   2 -12   25.42    1.04
   2  -2 -12   22.25    0.90
   2   2 -12   21.88    0.97
   1  -2 -12   16.29    0.92
   1   2 -12   18.73    0.90
   0  -2 -12    1.17    0.35
   0   2 -12    0.57    0.33
  -1  -2 -12    8.90    0.72
  -1   2 -12    8.65    1.17
   8  -3 -12    1.95    0.31
   8   3 -12    2.36    0.42
   7   3 -12    0.60    0.32
   6  -3 -12   10.44    0.55
   6  -3 -12   10.10    0.65
   6   3 -12   10.29    0.71
   6   3 -12   10.25    0.71
   5  -3 -12   -0.27    0.23
   5  -3 -12   -0.13    0.22
   5   3 -12   -0.36    0.26
   5   3 -12    0.16    0.28
   4  -3 -12    9.51    0.62
   4  -3 -12    9.59    0.69
   4   3 -12    9.11    0.55
   4   3 -12    8.78    0.68
   3  -3 -12    1.72    0.30
   3  -3 -12    1.47    0.30
   3   3 -12    1.22    0.33
   2  -3 -12    7.77    0.59
   2   3 -12    6.37    0.64
   1  -3 -12   -0.54    0.28
   1   3 -12    0.05    0.30
   0  -3 -12   12.33    0.75
   0   3 -12    9.71    1.15
  -1  -3 -12    0.39    0.31
   8  -4 -12   13.55    0.77
   8   4 -12   11.96    0.83
   7  -4 -12    1.17    0.45
   7   4 -12    1.38    0.41
   6  -4 -12   10.21    0.67
   6   4 -12    9.74    0.86
   5  -4 -12    5.42    0.58
   5   4 -12    4.34    0.57
   5   4 -12    5.61    0.65
   4  -4 -12    2.07    0.29
   4  -4 -12    1.42    0.34
   4   4 -12    1.76    0.38
   4   4 -12    1.44    0.36
   3  -4 -12    8.12    0.56
   3  -4 -12    9.01    0.69
   3   4 -12    8.43    0.72
   3   4 -12    8.98    0.73
   2  -4 -12   23.90    1.07
   2  -4 -12   24.47    0.93
   2   4 -12   24.05    0.87
   2   4 -12   25.31    1.12
   1  -4 -12   10.27    0.82
   0  -4 -12    0.50    0.31
   0  -4 -12    0.80    0.32
   0   4 -12    0.44    0.35
   6  -5 -12    1.67    0.31
   6   5 -12    1.08    0.38
   5  -5 -12    4.69    0.62
   5   5 -12    5.51    0.75
   5   5 -12    4.61    0.63
   4   5 -12    0.65    0.40
   3   5 -12    5.30    0.72
   3   5 -12    4.34    0.56
   2  -5 -12    1.33    0.32
   2  -5 -12    1.04    0.33
   2   5 -12    1.68    0.34
   2   5 -12    1.22    0.36
   8   0 -13   -0.39    0.25
   8   0 -13    0.24    0.36
   8   0 -13   -0.08    0.30
   7   0 -13   47.32    1.48
   6   0 -13    0.10    0.29
   5   0 -13    2.20    0.37
   4   0 -13    0.08    0.30
   3   0 -13   40.95    1.38
   1   0 -13    3.58    0.48
   8  -1 -13    9.51    0.76
   8  -1 -13    9.81    0.66
   8  -1 -13   10.87    1.03
   8   1 -13   10.15    0.70
   8   1 -13   10.02    0.73
   7  -1 -13    3.83    0.57
   7  -1 -13    4.45    0.57
   7   1 -13    3.13    0.50
   7   1 -13    3.58    0.60
   6  -1 -13   30.06    1.09
   6   1 -13   32.86    1.15
   5   1 -13    0.42    0.29
   4  -1 -13   15.00    0.82
   4   1 -13   16.98    0.87
   3  -1 -13    6.21    0.77
   3   1 -13    6.83    0.66
   2  -1 -13   16.05    0.87
   2   1 -13   17.10    0.91
   1  -1 -13    7.90    0.72
   1   1 -13    8.83    1.03
   7  -2 -13    1.54    0.32
   7  -2 -13    1.80    0.31
   7   2 -13    1.97    0.36
   7   2 -13    1.47    0.34
   6  -2 -13   19.95    0.92
   6  -2 -13   20.62    1.06
   6   2 -13   20.24    0.94
   6   2 -13   19.87    0.85
   5  -2 -13    2.05    0.33
   5  -2 -13    1.75    0.32
   5   2 -13    3.48    0.58
   4  -2 -13    5.27    0.72
   4   2 -13    6.24    0.63
   3  -2 -13    0.13    0.29
   2  -2 -13    8.35    0.69
   2   2 -13    8.46    1.00
   1  -2 -13    3.36    0.44
   1   2 -13    3.18    0.46
   6  -3 -13    6.95    0.65
   6   3 -13    6.27    0.81
   6   3 -13    6.39    0.61
   5  -3 -13   16.58    0.87
   5  -3 -13   16.13    0.84
   5   3 -13   16.46    1.16
   5   3 -13   14.61    0.86
   4  -3 -13    4.31    0.63
   4  -3 -13    4.50    0.56
   4   3 -13    5.60    0.93
   2  -3 -13    0.77    0.33
   2   3 -13    1.04    0.37
   0   0   0    0.00    0.00
;
_shelx_hkl_checksum              81304
_shelx_res_file
;
    25.res created by SHELXL-2014/7
TITL 25 in P2(1)/n
CELL 0.71073   9.8504   8.5234  10.3120  90.000 109.673  90.000
ZERR   2.00   0.0004   0.0004   0.0004   0.000   0.001   0.000
LATT 1
SYMM 0.5-X, 0.5+Y, 0.5-Z
SFAC C  H  N  Si
UNIT 28  40  8  4
L.S. 20
ACTA
BOND $H
FMAP 2
PLAN 4
mpla C1 c2 c3 c4 c5 n1
mpla si1 si1a n2 n2a
SIZE 0.3 0.3 0.2
CONF
TEMP -73.160
WGHT    0.044800    0.360400
FVAR       0.60824
MOLE 1
SI1   4    0.396803    0.098514    0.941285    11.00000    0.02209    0.02372 =
         0.02890    0.00351    0.00666    0.00267
N2    3    0.580674    0.076822    0.965730    11.00000    0.02373    0.02540 =
         0.03584    0.00658    0.01061    0.00214
N1    3    0.819846    0.111733    0.991103    11.00000    0.02633    0.03268 =
         0.03863   -0.00032    0.01123   -0.00096
C1    1    0.684252    0.165063    0.937078    11.00000    0.02731    0.02367 =
         0.02632   -0.00342    0.01134   -0.00152
C7    1    0.278304    0.089415    0.759356    11.00000    0.04156    0.04731 =
         0.03335    0.00288    0.00028   -0.00132
AFIX 137
H7A   2    0.305350   -0.000862    0.714462    11.00000   -1.50000
H7B   2    0.288858    0.186003    0.712075    11.00000   -1.50000
H7C   2    0.177852    0.078276    0.755031    11.00000   -1.50000
AFIX   0
C2    1    0.650378    0.301678    0.856712    11.00000    0.03809    0.03128 =
         0.03509    0.00534    0.01563    0.00312
AFIX  43
H2    2    0.553205    0.335530    0.817425    11.00000   -1.20000
AFIX   0
C5    1    0.924797    0.196444    0.968120    11.00000    0.02831    0.04800 =
         0.04825   -0.00476    0.01530   -0.00686
AFIX  43
H5    2    1.021084    0.159382    1.005991    11.00000   -1.20000
AFIX   0
C6    1    0.358088    0.272963    1.029186    11.00000    0.03871    0.03048 =
         0.04380    0.00051    0.01579    0.00627
AFIX 137
H6A   2    0.255723    0.273859    1.019786    11.00000   -1.50000
H6B   2    0.381167    0.368065    0.987398    11.00000   -1.50000
H6C   2    0.416831    0.269535    1.127018    11.00000   -1.50000
AFIX   0
C4    1    0.901325    0.333141    0.893314    11.00000    0.04551    0.04578 =
         0.05077   -0.00730    0.02767   -0.01753
AFIX  43
H4    2    0.979253    0.389912    0.881334    11.00000   -1.20000
AFIX   0
C3    1    0.760626    0.385864    0.835802    11.00000    0.05863    0.03251 =
         0.04252    0.00460    0.02700   -0.00488
AFIX  43
H3    2    0.740377    0.479253    0.782419    11.00000   -1.20000
AFIX   0
HKLF 4
REM  25 in P2(1)/n
REM R1 =  0.0321 for    1850 Fo > 4sig(Fo)  and  0.0350 for all    1999 data
REM     93 parameters refined using      0 restraints
END
WGHT      0.0430      0.2817
REM Highest difference peak  0.289,  deepest hole -0.232,  1-sigma level  0.043
Q1    1   0.5953  0.0047  1.0028  11.00000  0.05    0.29
Q2    1   0.3283  0.0915  0.8445  11.00000  0.05    0.28
Q3    1   0.6648  0.2232  0.8859  11.00000  0.05    0.27
Q4    1   0.6750  0.2500  0.9169  11.00000  0.05    0.26
;
_shelx_res_checksum              80681
loop_
_space_group_symop_operation_xyz
'x, y, z'
'-x+1/2, y+1/2, -z+1/2'
'-x, -y, -z'
'x-1/2, -y-1/2, z-1/2'
loop_
_atom_site_type_symbol
_atom_site_label
_atom_site_fract_x
_atom_site_fract_y
_atom_site_fract_z
_atom_site_U_iso_or_equiv
_atom_site_adp_type
_atom_site_calc_flag
_atom_site_occupancy
Si Si1 0.39680(3) 0.09851(4) 0.94129(3) 0.02539(12) Uani d 1
N N2 0.58067(11) 0.07682(12) 0.96573(11) 0.0282(2) Uani d 1
N N1 0.81985(12) 0.11173(13) 0.99110(12) 0.0325(2) Uani d 1
C C1 0.68425(12) 0.16506(13) 0.93708(12) 0.0252(2) Uani d 1
C C7 0.27830(17) 0.08941(19) 0.75936(15) 0.0439(3) Uani d 1
H H7A 0.3053 -0.0009 0.7145 0.066 Uiso calc 1
H H7B 0.2889 0.1860 0.7121 0.066 Uiso calc 1
H H7C 0.1779 0.0783 0.7550 0.066 Uiso calc 1
C C2 0.65038(15) 0.30168(16) 0.85671(14) 0.0340(3) Uani d 1
H H2 0.5532 0.3355 0.8174 0.041 Uiso calc 1
C C5 0.92480(15) 0.19644(18) 0.96812(16) 0.0409(3) Uani d 1
H H5 1.0211 0.1594 1.0060 0.049 Uiso calc 1
C C6 0.35809(16) 0.27296(16) 1.02919(15) 0.0372(3) Uani d 1
H H6A 0.2557 0.2739 1.0198 0.056 Uiso calc 1
H H6B 0.3812 0.3681 0.9874 0.056 Uiso calc 1
H H6C 0.4168 0.2695 1.1270 0.056 Uiso calc 1
C C4 0.90132(17) 0.33314(19) 0.89331(17) 0.0445(4) Uani d 1
H H4 0.9793 0.3899 0.8813 0.053 Uiso calc 1
C C3 0.76063(19) 0.38586(17) 0.83580(16) 0.0420(3) Uani d 1
H H3 0.7404 0.4793 0.7824 0.050 Uiso calc 1
loop_
_atom_site_aniso_label
_atom_site_aniso_U_11
_atom_site_aniso_U_22
_atom_site_aniso_U_33
_atom_site_aniso_U_12
_atom_site_aniso_U_13
_atom_site_aniso_U_23
Si1 0.02209(18) 0.02372(18) 0.02890(19) 0.00267(10) 0.00666(13) 0.00351(11)
N2 0.0237(5) 0.0254(5) 0.0358(5) 0.0021(4) 0.0106(4) 0.0066(4)
N1 0.0263(5) 0.0327(6) 0.0386(6) -0.0010(4) 0.0112(4) -0.0003(4)
C1 0.0273(5) 0.0237(5) 0.0263(5) -0.0015(4) 0.0113(4) -0.0034(4)
C7 0.0416(8) 0.0473(8) 0.0334(7) -0.0013(6) 0.0003(6) 0.0029(6)
C2 0.0381(7) 0.0313(6) 0.0351(6) 0.0031(5) 0.0156(5) 0.0053(5)
C5 0.0283(6) 0.0480(8) 0.0482(8) -0.0069(6) 0.0153(6) -0.0048(6)
C6 0.0387(7) 0.0305(6) 0.0438(7) 0.0063(5) 0.0158(6) 0.0005(5)
C4 0.0455(8) 0.0458(8) 0.0508(8) -0.0175(6) 0.0277(7) -0.0073(7)
C3 0.0586(9) 0.0325(7) 0.0425(7) -0.0049(6) 0.0270(7) 0.0046(6)
loop_
_atom_type_symbol
_atom_type_description
_atom_type_scat_dispersion_real
_atom_type_scat_dispersion_imag
_atom_type_scat_source
C C 0.0033 0.0016 'International Tables Vol C Tables 4.2.6.8 and 6.1.1.4'
H H 0.0000 0.0000 'International Tables Vol C Tables 4.2.6.8 and 6.1.1.4'
N N 0.0061 0.0033 'International Tables Vol C Tables 4.2.6.8 and 6.1.1.4'
Si Si 0.0817 0.0704 'International Tables Vol C Tables 4.2.6.8 and 6.1.1.4'
loop_
_geom_angle_atom_site_label_1
_geom_angle_atom_site_label_2
_geom_angle_atom_site_label_3
_geom_angle_site_symmetry_1
_geom_angle_site_symmetry_3
_geom_angle
N2 Si1 N2 3_657 . 84.08(5)
N2 Si1 C6 3_657 . 115.34(6)
N2 Si1 C6 . . 112.86(6)
N2 Si1 C7 3_657 . 116.17(6)
N2 Si1 C7 . . 114.25(7)
C6 Si1 C7 . . 111.59(7)
N2 Si1 Si1 3_657 3_657 42.09(3)
N2 Si1 Si1 . 3_657 41.99(3)
C6 Si1 Si1 . 3_657 123.34(5)
C7 Si1 Si1 . 3_657 124.99(6)
C1 N2 Si1 . 3_657 128.16(8)
C1 N2 Si1 . . 135.72(8)
Si1 N2 Si1 3_657 . 95.92(5)
C1 N1 C5 . . 117.48(12)
N1 C1 N2 . . 115.58(11)
N1 C1 C2 . . 122.15(11)
N2 C1 C2 . . 122.27(11)
Si1 C7 H7A . . 109.5
Si1 C7 H7B . . 109.5
H7A C7 H7B . . 109.5
Si1 C7 H7C . . 109.5
H7A C7 H7C . . 109.5
H7B C7 H7C . . 109.5
C3 C2 C1 . . 118.78(13)
C3 C2 H2 . . 120.6
C1 C2 H2 . . 120.6
N1 C5 C4 . . 124.06(14)
N1 C5 H5 . . 118.0
C4 C5 H5 . . 118.0
Si1 C6 H6A . . 109.5
Si1 C6 H6B . . 109.5
H6A C6 H6B . . 109.5
Si1 C6 H6C . . 109.5
H6A C6 H6C . . 109.5
H6B C6 H6C . . 109.5
C5 C4 C3 . . 118.06(13)
C5 C4 H4 . . 121.0
C3 C4 H4 . . 121.0
C2 C3 C4 . . 119.44(13)
C2 C3 H3 . . 120.3
C4 C3 H3 . . 120.3
loop_
_geom_bond_atom_site_label_1
_geom_bond_atom_site_label_2
_geom_bond_site_symmetry_2
_geom_bond_distance
Si1 N2 3_657 1.7489(10)
Si1 N2 . 1.7524(11)
Si1 C6 . 1.8468(14)
Si1 C7 . 1.8476(14)
Si1 Si1 3_657 2.6004(6)
N2 C1 . 1.3773(15)
N2 Si1 3_657 1.7489(10)
N1 C1 . 1.3416(15)
N1 C5 . 1.3458(17)
C1 C2 . 1.4028(17)
C7 H7A . 0.9800
C7 H7B . 0.9800
C7 H7C . 0.9800
C2 C3 . 1.378(2)
C2 H2 . 0.9500
C5 C4 . 1.373(2)
C5 H5 . 0.9500
C6 H6A . 0.9800
C6 H6B . 0.9800
C6 H6C . 0.9800
C4 C3 . 1.386(2)
C4 H4 . 0.9500
C3 H3 . 0.9500
loop_
_geom_torsion_atom_site_label_1
_geom_torsion_atom_site_label_2
_geom_torsion_atom_site_label_3
_geom_torsion_atom_site_label_4
_geom_torsion_site_symmetry_1
_geom_torsion_site_symmetry_4
_geom_torsion
N2 Si1 N2 C1 3_657 . -174.97(16)
C6 Si1 N2 C1 . . -59.93(14)
C7 Si1 N2 C1 . . 68.96(14)
Si1 Si1 N2 C1 3_657 . -174.97(16)
N2 Si1 N2 Si1 3_657 3_657 0.000000
C6 Si1 N2 Si1 . 3_657 115.03(6)
C7 Si1 N2 Si1 . 3_657 -116.07(7)
C5 N1 C1 N2 . . -178.56(11)
C5 N1 C1 C2 . . 1.45(18)
Si1 N2 C1 N1 3_657 . -2.22(16)
Si1 N2 C1 N1 . . 171.41(10)
Si1 N2 C1 C2 3_657 . 177.76(9)
Si1 N2 C1 C2 . . -8.61(19)
N1 C1 C2 C3 . . -1.76(19)
N2 C1 C2 C3 . . 178.25(12)
C1 N1 C5 C4 . . 0.0(2)
N1 C5 C4 C3 . . -1.2(2)
C1 C2 C3 C4 . . 0.6(2)
C5 C4 C3 C2 . . 0.8(2)

_cod_database_fobs_code 1545587
