#------------------------------------------------------------------------------
#$Date: 2017-03-02 08:10:33 +0200 (Thu, 02 Mar 2017) $
#$Revision: 192770 $
#$URL: file:///home/coder/svn-repositories/cod/cif/1/54/53/1545385.cif $
#------------------------------------------------------------------------------
#
# This file is available in the Crystallography Open Database (COD),
# http://www.crystallography.net/. The original data for this entry
# were provided by IUCr Journals, http://journals.iucr.org/.
#
# The file may be used within the scientific community so long as
# proper attribution is given to the journal article from which the
# data were obtained.
#
data_1545385
loop_
_publ_author_name
'Ma, Xiuming'
_publ_section_title
;
 Dibromido(<i>N</i>-phenylbenzamidine-\k<i>N</i>')tin(II)
;
_journal_coeditor_code           ZQ4017
_journal_issue                   2
_journal_name_full               IUCrData
_journal_page_first              x170316
_journal_paper_doi               10.1107/S2414314617003169
_journal_volume                  2
_journal_year                    2017
_chemical_formula_iupac          '[Sn Br2 (C13 H12 N2)]'
_chemical_formula_moiety         'C13 H12 Br2 N2 Sn'
_chemical_formula_sum            'C13 H12 Br2 N2 Sn'
_chemical_formula_weight         474.76
_chemical_name_systematic
;
Dibromido(<i>N</i>-phenylbenzamidine-\k<i>N</i>')tin(II)
;
_space_group_crystal_system      triclinic
_space_group_IT_number           2
_space_group_name_Hall           '-P 1'
_space_group_name_H-M_alt        'P -1'
_symmetry_space_group_name_Hall  '-P 1'
_symmetry_space_group_name_H-M   'P -1'
_atom_sites_solution_hydrogens   geom
_audit_creation_method           SHELXL-2014/7
_cell_angle_alpha                111.205(4)
_cell_angle_beta                 90.226(5)
_cell_angle_gamma                109.381(4)
_cell_formula_units_Z            2
_cell_length_a                   8.0315(11)
_cell_length_b                   9.7147(14)
_cell_length_c                   10.7577(15)
_cell_measurement_reflns_used    5984
_cell_measurement_temperature    200(2)
_cell_measurement_theta_max      28.279
_cell_measurement_theta_min      2.916
_cell_volume                     730.81(18)
_computing_cell_refinement
;
SAINT (Bruker, 2000)
;
_computing_data_collection
;
SMART (Bruker, 2000)
;
_computing_data_reduction
;
SAINT (Bruker, 2000)
;
_computing_publication_material
;
SHELXL2014 (Sheldrick, 2015)
;
_computing_structure_refinement
;
SHELXL2014 (Sheldrick, 2015)
;
_computing_structure_solution
;
SHELXS97 (Sheldrick, 2008)
;
_diffrn_ambient_temperature      200(2)
_diffrn_measured_fraction_theta_full 0.995
_diffrn_measured_fraction_theta_max 0.995
_diffrn_measurement_device_type  'Bruker SMART area-detector'
_diffrn_measurement_method       '\f and \w scan'
_diffrn_radiation_type           MoK\a
_diffrn_radiation_wavelength     0.71073
_diffrn_reflns_av_R_equivalents  0.0229
_diffrn_reflns_limit_h_max       9
_diffrn_reflns_limit_h_min       -9
_diffrn_reflns_limit_k_max       10
_diffrn_reflns_limit_k_min       -11
_diffrn_reflns_limit_l_max       12
_diffrn_reflns_limit_l_min       -12
_diffrn_reflns_number            7880
_diffrn_reflns_theta_full        24.996
_diffrn_reflns_theta_max         24.996
_diffrn_reflns_theta_min         2.915
_exptl_absorpt_coefficient_mu    7.199
_exptl_absorpt_correction_T_max  0.7148
_exptl_absorpt_correction_T_min  0.6719
_exptl_absorpt_correction_type   multi-scan
_exptl_absorpt_process_details
;
(SADABS; Sheldrick, 1996)
;
_exptl_crystal_colour            colorless
_exptl_crystal_density_diffrn    2.157
_exptl_crystal_description       block
_exptl_crystal_F_000             448
_exptl_crystal_size_max          0.060
_exptl_crystal_size_mid          0.060
_exptl_crystal_size_min          0.050
_refine_diff_density_max         0.643
_refine_diff_density_min         -0.565
_refine_ls_extinction_coef       0.0035(4)
_refine_ls_extinction_expression Fc^*^=kFc[1+0.001xFc^2^\l^3^/sin(2\q)]^-1/4^
_refine_ls_extinction_method
;
SHELXL2014 (Sheldrick, 2015)
;
_refine_ls_goodness_of_fit_ref   1.047
_refine_ls_hydrogen_treatment    constr
_refine_ls_matrix_type           full
_refine_ls_number_parameters     164
_refine_ls_number_reflns         2558
_refine_ls_number_restraints     0
_refine_ls_restrained_S_all      1.047
_refine_ls_R_factor_all          0.0313
_refine_ls_R_factor_gt           0.0248
_refine_ls_shift/su_max          0.001
_refine_ls_shift/su_mean         0.000
_refine_ls_structure_factor_coef Fsqd
_refine_ls_weighting_details
'w=1/[\s^2^(Fo^2^)+(0.0169P)^2^+1.8927P] where P=(Fo^2^+2Fc^2^)/3'
_refine_ls_weighting_scheme      calc
_refine_ls_wR_factor_gt          0.0525
_refine_ls_wR_factor_ref         0.0553
_reflns_number_gt                2278
_reflns_number_total             2558
_reflns_threshold_expression     'I > 2\s(I)'
_cod_data_source_file            zq4017sup1.cif
_cod_data_source_block           I
_cod_database_code               1545385
_shelx_space_group_comment
;
The symmetry employed for this shelxl refinement is uniquely defined
by the following loop, which should always be used as a source of
symmetry information in preference to the above space-group names.
They are only intended as comments.
;
_shelx_estimated_absorpt_t_min   0.672
_shelx_estimated_absorpt_t_max   0.715
_shelx_hkl_file
;
  -2   0   0   32.07    0.95
  -2   0   0   31.65    0.89
   2   0   0   31.93    0.95
   2   0   0   32.36    0.88
  -3   0   0   45.51    1.31
  -3   0   0   45.89    1.23
   3   0   0   45.27    1.31
   3   0   0   44.73    1.22
  -4   0   0  264.52    6.77
  -4   0   0  254.33    6.88
   4   0   0  253.66    6.75
   4   0   0  259.77    6.76
  -5   0   0  161.23    4.47
  -5   0   0  176.33    4.67
   5   0   0  164.98    4.32
   5   0   0  162.79    4.47
   5   0   0  165.19    4.47
  -6   0   0    1.98    0.75
  -6   0   0    1.28    0.38
   6   0   0    1.57    0.41
   6   0   0    1.47    0.39
  -7   0   0    0.90    0.72
   7   0   0    0.48    0.52
  -8   0   0   34.53    1.83
   8   0   0   26.44    1.32
  -9   0   0   30.79    2.69
   9   0   0   30.14    1.47
  10   0   0    1.67    0.67
 -10   1   0    3.73    1.99
   9  -1   0   20.94    1.22
  -9   1   0   20.05    1.95
   8  -1   0    1.26    0.45
  -8   1   0    0.69    1.87
   7  -1   0   41.87    1.46
   7  -1   0   40.65    1.47
  -7   1   0   41.99    1.92
  -7   1   0   39.82    1.50
   6  -1   0    3.96    0.43
   6  -1   0    4.67    0.40
  -6   1   0    3.28    0.76
  -6   1   0    3.89    0.47
   5  -1   0  233.26    6.08
   5  -1   0  225.78    6.19
  -5   1   0  247.97    6.37
  -5   1   0  232.67    6.21
   4  -1   0  118.11    3.24
   4  -1   0  116.81    3.15
  -4   1   0  129.61    3.38
  -4   1   0  118.34    3.25
   3  -1   0   15.60    0.51
   3  -1   0   17.77    0.76
   3  -1   0   16.20    0.58
  -3   1   0   16.18    0.59
  -3   1   0   14.32    0.73
   2  -1   0   17.75    0.57
   2  -1   0   17.34    0.67
  -2   1   0   17.60    0.57
  -2   1   0   15.57    1.16
  -1   1   0  157.17    4.23
  -1  -1   0  151.32    3.94
  -1  -1   0  153.87    3.93
  -1  -1   0  150.20    3.90
   1   1   0  152.08    3.91
   1   1   0  150.25    3.93
  -2  -1   0   12.84    0.44
  -2  -1   0   12.29    0.49
   2   1   0   12.65    0.42
   2   1   0   12.27    0.49
  -3  -1   0   41.74    1.25
  -3  -1   0   40.94    1.22
   3   1   0   42.36    1.26
   3   1   0   42.92    1.25
   3   1   0   41.57    1.15
  -4  -1   0  265.99    6.88
  -4  -1   0  265.98    6.77
   4   1   0  260.92    6.88
   4   1   0  254.84    6.76
   4   1   0  262.24    6.88
  -5  -1   0  123.35    3.25
  -5  -1   0  121.65    3.40
   5   1   0  123.03    3.41
   5   1   0  122.28    3.23
  -6  -1   0    0.95    0.82
  -6  -1   0    1.79    0.31
  -6  -1   0    1.34    0.39
   6   1   0    1.50    0.43
   6   1   0    1.28    0.41
   6   1   0    1.70    0.25
  -7  -1   0   25.03    1.63
   7   1   0   23.80    1.17
  -8  -1   0   35.40    2.04
   8   1   0   35.51    1.59
  -9  -1   0   22.80    1.99
   9   1   0   20.10    1.32
  10  -2   0    0.00    0.53
 -10   2   0    2.93    2.04
   9  -2   0    2.63    0.59
  -9   2   0    2.51    1.62
   8  -2   0   10.42    1.41
  -8   2   0   13.70    1.76
   7  -2   0   99.33    2.88
  -7   2   0  102.03    3.34
  -7   2   0   99.65    2.92
   6  -2   0   20.66    0.91
   6  -2   0   21.38    0.73
  -6   2   0   18.16    0.94
  -6   2   0   20.52    1.45
   5  -2   0   10.56    0.49
   5  -2   0   11.38    0.62
  -5   2   0   11.94    0.65
  -5   2   0   10.92    1.11
   4  -2   0    5.86    0.65
   4  -2   0    6.34    0.44
  -4   2   0    6.95    0.47
  -4   2   0    5.94    0.84
   3  -2   0  202.41    5.18
   3  -2   0  190.54    5.30
  -3   2   0  205.99    5.36
  -3   2   0  197.44    5.19
   2  -2   0  185.20    4.82
   2  -2   0  179.08    4.84
   2  -2   0  192.21    4.98
  -2   2   0  188.13    4.97
   1  -2   0  117.34    3.24
   1  -2   0  119.24    3.14
  -1   2   0  121.81    3.14
   0  -2   0  159.87    4.42
   0  -2   0  171.23    4.33
   0   2   0  172.42    4.38
   0   2   0  165.70    4.35
   0   2   0  169.20    4.33
  -1  -2   0    0.13    0.19
  -1  -2   0    0.09    0.14
  -1  -2   0    0.24    0.16
   1   2   0    0.16    0.13
   1   2   0    0.17    0.16
   1   2   0    0.20    0.15
  -2  -2   0   10.18    0.54
  -2  -2   0   10.65    0.49
  -2  -2   0   10.91    0.44
   2   2   0   11.06    0.42
   2   2   0   10.48    0.52
   2   2   0   10.72    0.49
  -3  -2   0   21.52    0.79
  -3  -2   0   21.41    0.72
   3   2   0   21.95    0.82
   3   2   0   21.88    0.80
   3   2   0   21.26    0.69
  -4  -2   0   37.52    1.14
  -4  -2   0   37.51    1.26
   4   2   0   38.44    1.27
   4   2   0   37.48    1.27
   4   2   0   38.91    1.12
  -5  -2   0    3.61    0.52
  -5  -2   0    3.48    0.41
   5   2   0    4.09    0.66
   5   2   0    4.20    0.66
  -6  -2   0    9.16    0.59
   6   2   0    7.09    0.77
  -7  -2   0   -0.96    1.05
   7   2   0    0.65    0.45
  -8  -2   0   12.11    1.79
   8   2   0   12.70    1.12
  -9  -2   0   11.65    2.00
   9   2   0    8.94    1.33
 -10   3   0    5.13    2.04
   9  -3   0    0.96    0.45
  -9   3   0    1.75    1.64
   8  -3   0   43.20    1.56
  -8   3   0   41.88    1.66
  -8   3   0   53.23    2.45
   7  -3   0  101.97    2.90
   7  -3   0  102.72    2.77
  -7   3   0  101.23    2.94
  -7   3   0  101.82    3.39
   6  -3   0   30.52    1.01
   6  -3   0   31.87    1.11
   6  -3   0   30.45    1.49
  -6   3   0   31.71    1.16
  -6   3   0   31.14    1.71
   5  -3   0    2.73    0.55
   5  -3   0    2.87    0.45
  -5   3   0    3.54    0.93
   4  -3   0   83.52    2.25
   4  -3   0   81.12    2.54
  -4   3   0   82.71    2.27
  -4   3   0   84.46    2.60
   3  -3   0  281.09    7.26
   3  -3   0  264.13    7.26
   3  -3   0  290.61    7.45
  -3   3   0  284.43    7.46
   2  -3   0  144.93    4.01
   2  -3   0  148.67    3.85
  -2   3   0  148.12    3.85
  -2   3   0  143.70    4.02
   1  -3   0   23.51    0.66
   1  -3   0   22.55    0.74
   1  -3   0   23.96    0.85
  -1   3   0   22.90    0.77
   0  -3   0   31.13    0.98
   0  -3   0   30.36    0.87
   0   3   0   30.67    0.96
   0   3   0   29.71    0.87
   0   3   0   29.56    0.90
  -1  -3   0   21.63    0.80
  -1  -3   0   21.53    0.72
  -1  -3   0   21.67    0.71
   1   3   0   22.09    0.71
   1   3   0   22.44    0.78
   1   3   0   21.42    0.71
  -2  -3   0   94.98    2.65
  -2  -3   0   94.80    2.56
  -2  -3   0   90.42    2.65
   2   3   0   97.70    2.63
   2   3   0   94.74    2.60
   2   3   0   97.13    2.55
  -3  -3   0    9.69    0.58
  -3  -3   0    9.52    0.53
  -3  -3   0    8.96    0.70
   3   3   0   10.23    0.65
   3   3   0    9.73    0.60
  -4  -3   0   17.55    0.75
  -4  -3   0   17.95    0.85
   4   3   0   17.58    0.76
   4   3   0   18.74    0.89
   4   3   0   17.36    0.89
  -5  -3   0   23.40    0.92
  -5  -3   0   21.55    1.03
   5   3   0   22.77    1.07
   5   3   0   22.35    1.09
   5   3   0   23.14    0.82
  -6  -3   0   10.65    0.71
   6   3   0   10.88    0.58
   6   3   0   10.76    0.94
  -7  -3   0    1.95    0.42
   7   3   0    1.34    0.36
   7   3   0    0.74    0.57
  -8  -3   0    2.47    1.42
   8   3   0    3.75    0.79
  10  -4   0    0.17    0.52
 -10   4   0    3.12    2.03
   9  -4   0    3.01    0.50
  -9   4   0    4.13    1.73
   8  -4   0   37.03    1.37
   8  -4   0   38.55    1.22
  -8   4   0   38.06    1.41
   7  -4   0   29.93    1.06
   7  -4   0   30.31    1.15
  -7   4   0   33.43    1.20
  -7   4   0   33.02    1.91
   6  -4   0   36.22    1.57
   6  -4   0   39.05    1.24
  -6   4   0   38.02    1.86
   5  -4   0   45.05    1.66
   5  -4   0   39.88    1.30
   5  -4   0   39.86    1.24
  -5   4   0   38.25    1.79
   4  -4   0   58.03    2.01
   4  -4   0   60.38    1.65
   4  -4   0   58.81    1.71
  -4   4   0   58.88    2.07
   3  -4   0   84.37    2.67
   3  -4   0   86.16    2.35
  -3   4   0   84.98    2.63
   2  -4   0  140.18    3.85
   2  -4   0  147.71    4.08
   2  -4   0  142.34    3.88
  -2   4   0  150.76    3.87
   1  -4   0  238.90    6.01
   1  -4   0  231.65    6.12
   1  -4   0  225.03    6.08
  -1   4   0  235.98    6.11
   0  -4   0  125.54    3.40
   0  -4   0  126.88    3.35
   0   4   0  130.12    3.45
   0   4   0  125.65    3.35
  -1  -4   0   14.20    0.62
  -1  -4   0   13.59    0.72
  -1  -4   0   14.32    0.59
   1   4   0   14.48    0.67
   1   4   0   12.93    0.65
   1   4   0   13.26    0.60
  -2  -4   0   17.43    0.72
  -2  -4   0   17.46    0.88
  -2  -4   0   16.95    0.72
   2   4   0   18.58    0.80
   2   4   0   17.08    0.74
   2   4   0   17.36    0.68
  -3  -4   0   84.23    2.42
  -3  -4   0   83.33    2.41
  -3  -4   0   83.32    2.52
   3   4   0   84.55    2.44
   3   4   0   86.79    2.35
   3   4   0   85.23    2.53
  -4  -4   0   97.74    2.81
  -4  -4   0  102.38    2.90
   4   4   0  102.91    3.05
   4   4   0   99.74    2.92
   4   4   0  102.35    2.78
  -5  -4   0   19.48    0.92
   5   4   0   21.16    1.11
   5   4   0   20.05    0.80
  -6  -4   0    3.07    0.49
   6   4   0    2.65    0.59
   6   4   0    2.55    0.36
  -7  -4   0    8.17    0.83
   7   4   0    6.27    0.76
   8   4   0   25.46    2.30
  10  -5   0    0.07    0.50
 -10   5   0    0.50    1.53
   9  -5   0    0.98    0.54
  -9   5   0    2.42    1.33
   8  -5   0    3.67    0.56
   8  -5   0    2.25    0.44
  -8   5   0    3.39    1.26
   7  -5   0    1.29    0.40
   7  -5   0    2.27    0.71
   7  -5   0    1.71    0.39
  -7   5   0    1.97    1.10
   6  -5   0    1.39    0.76
   6  -5   0    1.71    0.31
   6  -5   0    1.44    0.36
  -6   5   0    1.88    1.06
   5  -5   0   55.66    2.16
   5  -5   0   57.72    1.63
   5  -5   0   57.63    1.74
  -5   5   0   56.90    2.24
   4  -5   0    5.37    0.82
   4  -5   0    4.79    0.41
   4  -5   0    3.65    0.53
  -4   5   0    5.54    0.87
   3  -5   0    8.41    1.01
   3  -5   0    7.60    0.59
   3  -5   0    7.81    0.57
  -3   5   0    9.05    0.55
   2  -5   0   36.54    1.49
   2  -5   0   37.82    1.04
   2  -5   0   35.33    1.17
   2  -5   0   36.83    1.25
  -2   5   0   36.53    1.22
   1  -5   0  178.21    4.55
   1  -5   0  169.90    4.66
  -1   5   0  171.44    4.70
   0  -5   0   75.13    2.20
   0  -5   0   72.60    2.11
   0  -5   0   75.59    2.04
   0   5   0   74.60    2.16
   0   5   0   72.14    2.04
  -1  -5   0    2.77    0.43
  -1  -5   0    3.47    0.54
  -1  -5   0    3.33    0.45
   1   5   0    2.23    0.31
   1   5   0    2.31    0.36
   1   5   0    3.01    0.34
  -2  -5   0    6.66    0.65
  -2  -5   0    6.71    0.59
  -2  -5   0    8.16    0.90
   2   5   0    6.21    0.68
   2   5   0    5.73    0.54
   2   5   0    6.89    0.88
  -3  -5   0  121.15    3.36
  -3  -5   0  118.61    3.49
  -3  -5   0  121.32    3.34
   3   5   0  119.88    3.38
   3   5   0  120.42    3.43
   3   5   0  121.00    3.30
  -4  -5   0  116.76    3.28
  -4  -5   0  105.75    3.10
  -4  -5   0  108.51    3.37
   4   5   0  111.79    3.06
   4   5   0  110.38    3.21
  -5  -5   0    7.83    0.85
   5   5   0    9.34    0.99
   5   5   0    9.68    0.65
  -6  -5   0   -0.65    0.53
   6   5   0    0.52    0.60
   7   5   0   13.11    1.44
  10  -6   0    0.49    0.53
  10  -6   0   -0.12    0.46
 -10   6   0    1.23    1.59
   9  -6   0    7.18    0.98
   9  -6   0    5.39    0.76
   9  -6   0    5.48    0.77
  -9   6   0    6.60    1.56
   8  -6   0   19.16    0.92
   8  -6   0   18.35    0.92
   8  -6   0   19.24    1.08
  -8   6   0   17.05    1.95
   7  -6   0   21.89    0.90
   7  -6   0   22.94    1.08
   7  -6   0   21.03    0.97
  -7   6   0   22.54    2.12
   6  -6   0    0.23    0.39
   6  -6   0    0.25    0.35
   6  -6   0    0.48    0.29
   6  -6   0    0.19    0.84
  -6   6   0   -0.33    1.01
   5  -6   0    3.69    0.46
   5  -6   0    3.08    0.46
   5  -6   0    3.80    0.93
   5  -6   0    3.19    0.42
   4  -6   0   24.34    1.01
   4  -6   0   25.39    1.49
   4  -6   0   23.70    0.83
   4  -6   0   25.36    1.05
   3  -6   0   59.14    1.63
   3  -6   0   57.81    1.82
   3  -6   0   60.03    2.23
   3  -6   0   60.99    1.89
  -3   6   0   62.75    1.84
   2  -6   0    6.43    0.63
   2  -6   0    7.11    0.77
   2  -6   0    7.04    0.41
   2  -6   0    6.21    1.02
  -2   6   0    6.85    0.67
   1  -6   0   66.44    1.84
   1  -6   0   65.69    2.08
  -1   6   0   67.08    2.03
   0  -6   0    0.98    0.26
   0  -6   0    1.32    0.39
   0  -6   0    1.06    0.47
   0   6   0    1.35    0.39
   0   6   0    1.43    0.31
  -1  -6   0   52.56    1.67
  -1  -6   0   52.99    1.59
  -1  -6   0   50.67    1.81
   1   6   0   51.96    1.72
   1   6   0   50.94    1.61
  -2  -6   0   -0.05    0.34
  -2  -6   0    0.64    0.51
  -2  -6   0    0.47    0.48
   2   6   0    0.34    0.39
   2   6   0   -0.40    0.37
  -3  -6   0   49.62    1.68
  -3  -6   0   51.53    1.72
  -3  -6   0   51.34    2.17
   3   6   0   51.26    1.74
  -4  -6   0   32.50    1.61
  -4  -6   0   30.52    1.31
   4   6   0   31.84    1.41
  -5  -6   0    0.67    0.55
   5   6   0    0.84    0.61
  -6  -6   0   -0.40    1.20
   6   6   0   -0.34    0.66
  10  -7   0    3.44    0.74
  10  -7   0    1.99    0.52
 -10   7   0    1.82    1.63
   9  -7   0    6.63    1.02
   9  -7   0    5.11    0.75
   9  -7   0    4.42    0.64
  -9   7   0    5.50    1.61
   8  -7   0   71.37    2.28
   8  -7   0   70.50    2.06
   8  -7   0   68.91    2.16
  -8   7   0   67.35    3.03
   7  -7   0   43.17    1.62
   7  -7   0   43.72    1.55
   7  -7   0   44.20    1.38
  -7   7   0   46.09    2.43
   6  -7   0    0.48    0.27
   6  -7   0    0.60    1.39
   6  -7   0    0.41    0.40
   6  -7   0    0.72    0.45
   5  -7   0   10.30    0.87
   5  -7   0    9.14    1.59
   5  -7   0   11.16    0.90
   4  -7   0  135.93    3.77
   4  -7   0  130.72    4.15
   4  -7   0  138.03    3.83
  -4   7   0  135.49    3.74
   3  -7   0  104.40    3.02
   3  -7   0  106.14    2.80
   3  -7   0  108.83    3.11
   3  -7   0  105.27    3.43
  -3   7   0  103.85    3.02
   2  -7   0   -0.29    0.73
   2  -7   0    0.77    0.43
   2  -7   0    0.07    0.48
   2  -7   0    0.23    0.22
  -2   7   0    0.23    0.38
   1  -7   0    4.81    0.47
   1  -7   0    2.75    0.58
   1  -7   0    3.37    0.52
  -1   7   0    4.71    0.76
   0  -7   0   31.38    1.47
   0  -7   0   30.69    1.09
   0  -7   0   31.86    1.29
   0   7   0   31.53    1.15
   0   7   0   31.77    1.32
  -1  -7   0   75.53    2.19
  -1  -7   0   75.19    2.31
  -1  -7   0   74.57    2.46
   1   7   0   73.95    2.36
   1   7   0   74.58    2.22
  -2  -7   0   18.18    1.30
  -2  -7   0   17.41    1.06
  -2  -7   0   16.79    0.97
   2   7   0   18.11    1.00
  -3  -7   0    5.40    0.82
  -3  -7   0    4.35    0.74
   3   7   0    6.09    0.91
  -4  -7   0    0.56    0.63
  -4  -7   0    0.59    0.68
   4   7   0    0.43    0.57
  -5  -7   0    4.81    0.74
   5   7   0    5.54    0.76
  10  -8   0    0.31    0.60
   9  -8   0    8.85    0.86
   9  -8   0   10.43    1.15
   9  -8   0   10.17    1.02
   8  -8   0   43.11    1.73
   8  -8   0   43.14    1.61
   8  -8   0   42.35    1.38
   7  -8   0   16.48    1.17
   7  -8   0   15.95    0.72
   7  -8   0   14.81    1.72
   6  -8   0    0.65    0.54
   6  -8   0    0.31    0.50
   5  -8   0    3.71    0.59
   5  -8   0    5.91    0.88
   4  -8   0   73.33    2.32
   4  -8   0   75.57    2.40
  -4   8   0   72.38    2.27
   3  -8   0  152.16    4.26
   3  -8   0  148.73    4.01
   3  -8   0  158.84    4.36
  -3   8   0  150.17    4.24
   2  -8   0    0.19    0.57
   2  -8   0    0.05    0.29
   2  -8   0    0.23    0.50
  -2   8   0   -0.21    0.41
   1  -8   0    4.72    0.72
   1  -8   0    2.86    0.65
   1  -8   0    4.08    0.53
  -1   8   0    3.41    0.50
   0  -8   0   82.95    2.86
   0  -8   0   77.57    2.75
   0  -8   0   80.66    2.37
   0   8   0   84.17    2.42
   0   8   0   88.74    3.24
  -1  -8   0   60.26    1.93
  -1  -8   0   62.80    2.12
  -1  -8   0   63.19    2.30
   1   8   0   64.97    2.01
  -2  -8   0   17.39    1.20
  -2  -8   0   15.41    1.77
   2   8   0   15.46    1.19
  -3  -8   0    1.70    0.76
  -3  -8   0    1.74    0.77
   3   8   0    1.49    0.60
  -4  -8   0    9.31    1.30
  -4  -8   0   11.22    1.60
   4   8   0   11.58    1.30
   9  -9   0    1.97    0.68
   9  -9   0    1.14    0.66
   8  -9   0   11.88    1.27
   8  -9   0   12.43    1.10
   7  -9   0    0.03    0.59
   7  -9   0    0.61    0.59
   6  -9   0   -0.29    0.57
   6  -9   0    0.58    0.62
   5  -9   0   13.54    1.22
   5  -9   0   15.21    2.06
   4  -9   0   38.85    1.61
   4  -9   0   38.03    1.70
  -4   9   0   39.18    1.70
   3  -9   0   14.29    1.11
   3  -9   0   11.93    1.23
  -3   9   0   13.26    1.37
   2  -9   0    1.58    0.64
   2  -9   0    0.70    0.29
   2  -9   0    0.59    0.75
   1  -9   0    1.66    0.69
   1  -9   0    2.21    0.37
   1  -9   0    2.20    0.70
   0  -9   0   21.93    1.26
   0  -9   0   20.54    1.56
   0  -9   0   22.87    1.38
  -1  -9   0   26.08    1.47
  -1  -9   0   24.78    1.76
   1   9   0   25.83    1.90
  -2  -9   0   10.84    1.57
  -2  -9   0    8.65    1.30
   2   9   0    8.67    1.14
  -3  -9   0    4.88    0.97
  -3  -9   0    4.46    1.00
   3   9   0    6.50    0.79
   8 -10   0    1.24    0.69
   8 -10   0    0.48    0.79
   7 -10   0    2.64    0.76
   7 -10   0    3.28    0.74
   6 -10   0    7.61    1.24
   6 -10   0    9.18    1.32
   5 -10   0    2.83    0.74
   5 -10   0    3.01    0.79
   4 -10   0    2.60    0.77
   4 -10   0    1.84    0.74
   3 -10   0    0.22    0.73
   3 -10   0    1.22    0.74
   2 -10   0    0.90    0.38
   2 -10   0    1.08    0.78
   2 -10   0    0.68    0.77
   1 -10   0   -0.22    0.75
   1 -10   0    0.37    0.77
   1 -10   0   -0.32    0.36
   0 -10   0    1.25    0.85
   0 -10   0    0.07    0.43
   0 -10   0    1.02    0.86
  -1 -10   0    0.36    0.87
  -1 -10   0    1.76    0.89
  -2 -10   0    1.66    1.00
  -2 -10   0    0.25    0.97
   2  10   0    1.34    0.78
   7 -11   0    7.11    0.92
   7 -11   0    5.28    1.02
   6 -11   0   10.39    1.38
   6 -11   0    8.90    1.48
   5 -11   0    4.50    0.90
   5 -11   0    4.87    0.96
   4 -11   0    6.97    1.00
   4 -11   0    8.54    1.06
   3 -11   0    3.24    0.98
   3 -11   0    5.47    1.01
   2 -11   0    2.19    0.94
   2 -11   0    2.52    0.94
   1 -11   0    6.03    1.09
   1 -11   0    5.58    1.01
   0 -11   0    0.63    0.98
   0 -11   0    2.53    1.00
   4 -12   0   15.20    1.88
   3 -12   0    3.50    1.09
   2 -12   1    4.32    1.79
   2 -12   1    2.05    1.01
   3 -12   1    8.95    1.23
   3 -12   1    5.32    1.09
   4 -12   1    4.97    1.11
   5 -12   1   -0.51    0.87
   5 -12   1   -0.85    0.96
   6 -12   1   -1.57    1.04
   6 -12   1   -0.87    0.96
  -1 -11   1   21.03    1.77
  -1 -11   1   20.81    2.13
   0 -11   1    3.94    1.05
   0 -11   1    5.27    1.04
   1 -11   1    1.04    0.88
   1 -11   1    0.42    0.84
   2 -11   1   15.25    1.69
   2 -11   1   17.02    1.56
   3 -11   1   38.45    1.91
   3 -11   1   38.46    2.04
   4 -11   1   17.87    1.51
   4 -11   1   17.19    1.60
   5 -11   1   -0.42    0.79
   5 -11   1   -1.30    0.75
   6 -11   1    3.87    0.88
   6 -11   1    3.49    0.87
   7 -11   1   10.92    1.52
   7 -11   1    7.96    0.95
   2  10  -1   17.24    1.38
  -2 -10   1   14.40    1.99
  -2 -10   1   16.28    1.82
   1  10  -1   20.47    1.24
  -1 -10   1   18.15    1.48
  -1 -10   1   17.95    1.75
   0 -10   1    0.94    0.78
   0 -10   1    0.21    0.80
   0 -10   1   -0.21    0.46
   1 -10   1    1.17    0.37
   1 -10   1    1.99    0.79
   1 -10   1    0.62    0.78
   2 -10   1   22.13    1.47
   2 -10   1   21.71    0.84
   2 -10   1   21.71    1.62
   3 -10   1   32.31    1.64
   3 -10   1   32.74    1.81
   4 -10   1   14.69    1.36
   4 -10   1   15.69    1.31
   5 -10   1    2.80    0.75
   5 -10   1    2.10    0.73
   6 -10   1   10.74    1.32
   6 -10   1   12.90    1.25
   7 -10   1   20.16    1.44
   7 -10   1   21.57    1.53
   8 -10   1   12.16    1.26
   8 -10   1   11.78    1.41
   4   9  -1    5.00    0.85
  -4  -9   1    4.18    0.91
  -4  -9   1    5.88    1.80
   3   9  -1    0.39    0.63
  -3  -9   1    0.20    0.84
  -3  -9   1   -0.96    0.80
   2   9  -1    1.78    0.57
  -2  -9   1    0.60    0.69
  -2  -9   1    0.37    0.77
   1   9  -1    0.10    0.48
  -1  -9   1    0.22    0.72
  -1  -9   1    0.32    0.41
  -1  -9   1    0.13    0.68
   0   9  -1    2.26    0.46
   0  -9   1    1.44    0.37
   0  -9   1    1.54    0.68
   0  -9   1    1.29    0.71
   1  -9   1    0.29    0.62
   1  -9   1   -0.24    0.66
   1  -9   1   -0.37    0.30
   2  -9   1    1.66    1.12
   2  -9   1    0.97    0.28
   2  -9   1    1.37    0.63
  -3   9  -1   12.50    1.48
   3  -9   1   13.41    1.11
   3  -9   1   13.74    1.26
   4  -9   1    2.58    0.72
   4  -9   1    2.87    0.65
   5  -9   1   21.83    1.57
   5  -9   1   21.77    1.29
   6  -9   1    5.00    0.74
   6  -9   1    5.18    0.71
   7  -9   1    0.54    0.57
   7  -9   1    0.89    0.60
   8  -9   1    4.93    0.73
   8  -9   1    2.95    0.70
   9  -9   1    8.89    1.24
   9  -9   1   10.87    1.18
   5   8  -1    4.70    0.85
  -5  -8   1    4.51    0.83
   4   8  -1   13.80    1.29
  -4  -8   1   15.54    1.57
  -4  -8   1   14.91    1.25
   3   8  -1   12.69    1.11
  -3  -8   1   15.65    1.57
  -3  -8   1   13.82    1.19
   2   8  -1   15.06    1.00
  -2  -8   1   14.41    1.09
  -2  -8   1   13.91    1.38
  -2  -8   1   11.92    0.88
   1   8  -1   15.46    0.91
  -1  -8   1   13.77    1.32
  -1  -8   1   14.05    0.81
  -1  -8   1   14.84    1.23
   0   8  -1    9.15    0.73
   0   8  -1    6.80    0.88
   0  -8   1    7.73    1.17
   0  -8   1    8.90    0.94
   0  -8   1    8.33    0.63
  -1   8  -1   17.91    1.04
   1  -8   1   19.05    1.11
   1  -8   1   16.83    0.72
   1  -8   1   18.23    1.30
  -2   8  -1    7.61    0.86
   2  -8   1    9.05    1.05
   2  -8   1    8.49    0.92
   2  -8   1    7.33    1.29
   2  -8   1    7.35    0.48
  -3   8  -1   24.37    1.15
   3  -8   1   26.00    1.34
   3  -8   1   26.33    1.26
   3  -8   1   26.38    1.61
  -4   8  -1    3.10    0.47
   4  -8   1    3.06    0.55
   4  -8   1    2.90    0.56
   5  -8   1    1.18    0.51
   5  -8   1    2.33    0.59
   6  -8   1    0.93    0.50
   6  -8   1    1.35    0.56
   7  -8   1   11.49    1.04
  -8   8  -1    1.66    1.34
   8  -8   1    0.41    0.53
   8  -8   1    0.18    0.53
  -9   8  -1    8.42    1.64
   9  -8   1    8.96    1.01
   9  -8   1    7.34    1.15
 -10   8  -1    6.24    1.84
  10  -8   1    5.04    0.76
  10  -8   1    5.90    0.77
   6   7  -1   19.88    1.59
   5   7  -1    9.95    1.23
  -5  -7   1    7.27    0.98
   4   7  -1   10.26    1.09
  -4  -7   1   10.60    1.34
  -4  -7   1    9.30    1.01
   3   7  -1   15.76    1.45
  -3  -7   1   16.95    1.36
  -3  -7   1   15.82    1.04
   2   7  -1   82.01    2.35
  -2  -7   1   81.87    2.39
  -2  -7   1   79.29    2.31
  -2  -7   1   67.05    3.29
   1   7  -1   50.70    1.63
   1   7  -1   52.21    1.80
  -1  -7   1   53.53    1.62
  -1  -7   1   51.88    1.75
  -1  -7   1   52.04    1.94
   0   7  -1    8.51    0.81
   0   7  -1    7.72    0.64
   0  -7   1    7.79    0.55
   0  -7   1    7.52    1.05
   0  -7   1    8.16    0.80
  -1   7  -1   47.18    1.62
   1  -7   1   45.68    1.73
   1  -7   1   48.26    1.60
   1  -7   1   47.31    1.37
  -2   7  -1  111.03    3.19
   2  -7   1  112.34    2.95
   2  -7   1  109.83    3.51
   2  -7   1  112.91    3.18
   2  -7   1  112.46    3.26
  -3   7  -1   90.64    2.64
   3  -7   1   89.77    2.65
   3  -7   1   90.61    2.70
   3  -7   1   88.98    2.99
  -4   7  -1    2.99    0.42
   4  -7   1    4.21    0.93
   4  -7   1    2.96    0.53
   4  -7   1    2.93    0.48
   5  -7   1    0.07    0.38
   5  -7   1   -1.08    0.86
  -6   7  -1   44.46    2.24
   6  -7   1   40.35    1.52
   6  -7   1   40.16    2.06
  -7   7  -1   74.12    2.95
   7  -7   1   71.93    2.01
   7  -7   1   67.73    2.40
  -8   7  -1   11.82    1.90
   8  -7   1   12.28    1.03
   8  -7   1   11.31    0.72
  -9   7  -1    4.50    1.55
   9  -7   1    3.43    0.63
   9  -7   1    6.08    0.75
   9  -7   1    5.05    0.70
 -10   7  -1    3.86    1.80
  10  -7   1    2.04    0.63
   6   6  -1    9.64    1.27
  -6  -6   1    9.40    1.28
   5   6  -1    0.07    0.58
  -5  -6   1    0.06    0.49
   4   6  -1    1.74    0.49
  -4  -6   1    1.02    0.49
  -4  -6   1    0.92    0.63
   3   6  -1   30.77    1.22
  -3  -6   1   29.62    1.18
  -3  -6   1   28.48    1.48
  -3  -6   1   30.19    1.19
   2   6  -1   95.91    2.86
   2   6  -1   94.67    2.72
  -2  -6   1   97.15    2.71
  -2  -6   1   93.75    2.91
  -2  -6   1   96.36    2.74
   1   6  -1   20.02    0.98
   1   6  -1   20.36    0.85
  -1  -6   1   19.19    0.92
  -1  -6   1   20.30    1.14
  -1  -6   1   20.05    0.81
   0   6  -1    1.75    0.28
   0   6  -1    1.90    0.37
   0  -6   1    2.24    0.41
   0  -6   1    1.98    0.47
   0  -6   1    1.72    0.26
  -1   6  -1   59.29    1.80
  -1   6  -1   57.07    1.60
   1  -6   1   57.20    1.76
   1  -6   1   55.04    1.85
   1  -6   1   58.70    1.59
  -2   6  -1  301.99    7.91
   2  -6   1  293.72    7.89
   2  -6   1  302.14    7.94
   2  -6   1  303.39    8.15
  -3   6  -1  108.54    2.99
   3  -6   1  105.72    3.28
   3  -6   1  104.97    3.01
   4  -6   1    1.47    0.81
   4  -6   1    1.75    0.37
  -5   6  -1    5.59    1.06
   5  -6   1    5.07    0.95
   5  -6   1    5.49    0.67
  -6   6  -1  121.06    3.90
   6  -6   1  111.26    3.71
   6  -6   1  123.90    3.39
   6  -6   1  121.17    3.19
   7  -6   1  122.47    3.33
   7  -6   1  123.74    3.52
  -8   6  -1    9.36    1.83
   8  -6   1    9.89    0.94
   8  -6   1   10.15    0.72
   8  -6   1    9.90    0.71
  -9   6  -1    0.99    1.44
   9  -6   1    0.70    0.48
   9  -6   1    1.06    0.40
 -10   6  -1   12.66    2.32
  10  -6   1   13.49    0.99
  10  -6   1   12.36    1.21
   7   5  -1    3.86    0.73
   6   5  -1    0.47    0.58
  -6  -5   1   -0.62    0.45
   5   5  -1   38.94    1.53
  -5  -5   1   37.52    1.32
   4   5  -1   23.87    1.11
  -4  -5   1   24.85    0.99
  -4  -5   1   22.60    1.05
  -4  -5   1   22.65    1.29
   3   5  -1   27.22    1.13
   3   5  -1   25.75    1.09
  -3  -5   1   26.74    1.06
  -3  -5   1   25.70    1.29
  -3  -5   1   26.53    1.03
   2   5  -1   33.29    1.33
   2   5  -1   31.72    1.13
  -2  -5   1   32.15    1.10
  -2  -5   1   32.66    1.32
  -2  -5   1   32.15    1.12
   1   5  -1    9.11    0.65
   1   5  -1    8.53    0.53
  -1  -5   1    9.55    0.59
  -1  -5   1    8.63    0.57
  -1  -5   1    8.26    0.77
   0   5  -1   85.59    2.32
   0   5  -1   87.07    2.45
   0  -5   1   85.67    2.31
   0  -5   1   84.86    2.39
   0  -5   1   86.17    2.49
  -1   5  -1    3.87    0.34
  -1   5  -1    4.39    0.52
   1  -5   1    3.47    0.49
   1  -5   1    3.93    0.59
   1  -5   1    4.66    0.41
  -2   5  -1  241.24    6.32
   2  -5   1  237.53    6.34
   2  -5   1  240.30    6.52
  -3   5  -1   13.97    1.09
  -3   5  -1   15.20    0.67
   3  -5   1   14.99    0.70
   3  -5   1   14.85    1.06
  -4   5  -1   12.30    1.15
   4  -5   1   11.91    1.07
   4  -5   1   12.52    0.65
  -5   5  -1    2.57    0.94
   5  -5   1    2.42    1.04
   5  -5   1    2.59    0.38
   5  -5   1    1.79    0.33
  -6   5  -1   55.92    2.38
   6  -5   1   56.17    1.63
   6  -5   1   55.62    2.04
   6  -5   1   55.26    1.77
  -7   5  -1   89.17    3.17
   7  -5   1   88.30    2.99
   7  -5   1   93.45    2.68
   7  -5   1   90.70    2.53
  -8   5  -1    0.89    0.42
  -8   5  -1    1.24    1.15
   8  -5   1    0.93    0.35
  -9   5  -1   -0.21    1.71
  -9   5  -1    0.73    0.52
   9  -5   1    0.28    0.41
   9  -5   1    0.09    0.36
 -10   5  -1   21.82    2.56
  10  -5   1   25.23    1.24
   8   4  -1    4.77    0.82
  -8  -4   1    4.13    1.55
   7   4  -1    1.48    0.64
   6   4  -1    8.02    0.92
  -6  -4   1    6.30    0.67
   5   4  -1  141.32    4.71
  -5  -4   1  156.11    4.01
   4   4  -1  149.10    4.07
   4   4  -1  147.90    4.09
  -4  -4   1  146.21    3.94
  -4  -4   1  146.01    4.13
  -4  -4   1  145.96    4.04
   3   4  -1    2.73    0.36
   3   4  -1    3.97    0.57
  -3  -4   1    3.30    0.49
  -3  -4   1    2.67    0.36
  -3  -4   1    2.64    0.45
   2   4  -1    1.50    0.27
   2   4  -1    1.93    0.30
  -2  -4   1    1.66    0.26
  -2  -4   1    1.26    0.34
  -2  -4   1    2.12    0.29
   1   4  -1  333.73    8.85
   1   4  -1  348.30    8.93
  -1  -4   1  350.02    8.86
  -1  -4   1  337.88    8.87
   0   4  -1  126.29    3.31
   0   4  -1  120.04    3.20
   0  -4   1  122.64    3.19
   0  -4   1  120.66    3.31
   0  -4   1  119.36    3.25
  -1   4  -1    0.87    0.21
  -1   4  -1    0.59    0.12
   1  -4   1    1.58    0.48
   1  -4   1    1.12    0.26
  -2   4  -1   70.67    1.96
   2  -4   1   68.49    2.16
  -3   4  -1   61.57    2.05
   3  -4   1   59.51    1.68
   3  -4   1   54.63    2.12
  -4   4  -1  134.21    3.87
   4  -4   1  133.31    3.48
   4  -4   1  133.20    3.84
   4  -4   1  131.40    3.58
   5  -4   1    5.77    0.45
   5  -4   1    5.08    0.80
  -6   4  -1   11.51    0.70
  -6   4  -1   12.64    1.48
   6  -4   1   12.97    0.66
   6  -4   1   12.60    1.11
  -7   4  -1    4.10    0.65
   7  -4   1    4.76    0.60
   7  -4   1    5.19    0.56
  -8   4  -1    1.39    0.44
  -8   4  -1    1.63    1.46
   8  -4   1    0.22    0.37
   8  -4   1    1.32    0.34
  -9   4  -1    0.66    1.68
   9  -4   1    0.57    0.43
   9  -4   1    0.69    0.38
 -10   4  -1    4.81    2.21
  10  -4   1    2.46    0.59
   8   3  -1    1.13    0.69
  -8  -3   1    1.14    1.16
   7   3  -1    0.24    0.52
   6   3  -1   46.20    1.67
  -6  -3   1   45.27    1.38
   5   3  -1  136.97    3.68
   5   3  -1  133.83    3.83
   5   3  -1  141.03    3.85
  -5  -3   1  136.91    3.64
  -5  -3   1  135.15    3.81
   4   3  -1   87.70    2.34
   4   3  -1   86.14    2.52
   4   3  -1   86.73    2.51
  -4  -3   1   86.17    2.36
   3   3  -1    0.65    0.26
   3   3  -1    0.38    0.18
   3   3  -1    0.41    0.26
  -3  -3   1    0.02    0.27
  -3  -3   1    0.61    0.22
  -3  -3   1    0.40    0.26
   2   3  -1   44.02    1.36
   2   3  -1   44.42    1.32
   2   3  -1   42.20    1.24
  -2  -3   1   44.77    1.27
  -2  -3   1   44.39    1.31
  -2  -3   1   46.30    1.43
   1   3  -1  393.89   10.14
   1   3  -1  395.31   10.10
  -1  -3   1  394.45   10.10
  -1  -3   1  385.74   10.09
  -1  -3   1  391.80   10.16
   0   3  -1  335.68    8.68
   0   3  -1  343.34    8.61
   0  -3   1  336.12    8.69
   0  -3   1  321.54    8.64
   0  -3   1  339.83    8.61
  -1   3  -1   17.41    0.64
   1  -3   1   16.57    0.84
   1  -3   1   17.16    0.66
  -2   3  -1   31.08    0.94
  -2   3  -1   31.05    1.16
   2  -3   1   29.99    0.93
   2  -3   1   31.48    1.20
  -3   3  -1  139.67    3.83
  -3   3  -1  133.32    3.55
   3  -3   1  131.77    3.61
   3  -3   1  140.29    3.54
   3  -3   1  135.88    3.80
  -4   3  -1  215.91    5.71
  -4   3  -1  221.73    5.98
   4  -3   1  217.68    5.68
   4  -3   1  219.38    5.88
  -5   3  -1   44.37    1.86
  -5   3  -1   40.30    1.45
   5  -3   1   45.31    1.33
   5  -3   1   41.43    1.31
   5  -3   1   50.99    1.67
  -6   3  -1   38.92    1.92
  -6   3  -1   38.50    1.29
   6  -3   1   37.34    1.25
  -7   3  -1   12.15    1.58
  -7   3  -1   12.04    0.94
   7  -3   1   13.40    0.67
   7  -3   1   12.21    0.77
  -8   3  -1    5.31    0.82
  -8   3  -1    7.04    1.34
   8  -3   1    5.13    0.54
   8  -3   1    4.05    0.50
  -9   3  -1    5.52    1.72
   9  -3   1    3.37    0.54
 -10   3  -1    3.47    2.04
  10  -3   1    3.64    0.61
   9   2  -1    5.55    0.76
   8   2  -1    5.42    0.65
  -8  -2   1    7.83    1.69
   7   2  -1    1.07    0.49
  -7  -2   1    1.57    1.27
   6   2  -1    6.96    0.79
   6   2  -1    6.52    0.77
   5   2  -1   99.11    2.89
   5   2  -1  103.64    2.92
   4   2  -1   31.81    1.13
   4   2  -1   33.18    1.15
   4   2  -1   34.30    0.96
  -4  -2   1   32.60    0.98
  -4  -2   1   32.74    1.12
   3   2  -1    0.37    0.14
   3   2  -1    0.21    0.22
   3   2  -1    0.21    0.23
  -3  -2   1    0.28    0.22
  -3  -2   1    0.56    0.17
  -3  -2   1    0.07    0.24
   2   2  -1  109.75    2.90
   2   2  -1  111.31    2.89
   2   2  -1  105.54    2.81
  -2  -2   1  110.18    2.89
  -2  -2   1  108.01    2.91
  -2  -2   1  101.60    2.84
   1   2  -1  292.72    7.48
   1   2  -1  289.67    7.50
  -1  -2   1  291.00    7.51
  -1  -2   1  286.73    7.45
  -1  -2   1  290.16    7.47
   0   2  -1  144.22    3.78
   0   2  -1  145.41    3.72
   0  -2   1  142.47    3.79
   0  -2   1  144.39    3.72
  -1   2  -1   89.23    2.43
  -1   2  -1   87.43    2.33
   1  -2   1   88.66    2.42
   1  -2   1   85.88    2.33
  -2   2  -1   34.05    0.90
  -2   2  -1   31.57    1.17
   2  -2   1   35.01    0.90
   2  -2   1   30.26    1.20
  -3   2  -1   60.54    1.82
  -3   2  -1   56.35    1.57
   3  -2   1   57.68    1.56
   3  -2   1   54.83    1.73
  -4   2  -1   67.81    1.90
  -4   2  -1   65.91    2.16
   4  -2   1   67.22    1.87
   4  -2   1   68.74    1.89
   4  -2   1   71.56    2.15
  -5   2  -1  115.38    3.23
  -5   2  -1  102.51    2.91
   5  -2   1  103.08    2.89
   5  -2   1  103.64    2.84
  -6   2  -1   97.83    3.07
  -6   2  -1   92.11    2.71
   6  -2   1   95.79    2.58
   6  -2   1   92.49    2.66
  -7   2  -1   61.61    1.98
  -7   2  -1   63.91    2.50
   7  -2   1   61.34    2.00
   7  -2   1   63.53    1.94
  -8   2  -1    2.63    1.16
   8  -2   1    1.60    0.49
   8  -2   1    2.25    0.33
  -9   2  -1   14.44    1.88
   9  -2   1   11.19    1.00
 -10   2  -1   17.58    2.51
  10  -2   1   17.17    1.20
   9   1  -1    0.64    0.60
  -9  -1   1    3.35    1.30
   8   1  -1   18.46    1.19
  -8  -1   1   21.40    1.58
   7   1  -1   16.49    1.04
  -7  -1   1   19.15    1.40
   6   1  -1    0.58    0.35
   6   1  -1    0.59    0.41
  -6  -1   1    1.14    0.73
  -6  -1   1    0.88    0.40
   5   1  -1    0.65    0.28
   5   1  -1    0.83    0.35
  -5  -1   1    0.88    0.31
  -5  -1   1    1.16    0.64
   4   1  -1    2.48    0.31
   4   1  -1    2.65    0.43
  -4  -1   1    2.12    0.30
   3   1  -1    0.20    0.21
   3   1  -1    0.27    0.19
  -3  -1   1    0.32    0.21
   2   1  -1    0.42    0.17
   2   1  -1    0.26    0.17
  -2  -1   1    0.19    0.16
  -2  -1   1   -0.08    0.16
   1   1  -1   21.49    0.66
  -1  -1   1   19.91    0.60
  -1  -1   1   21.32    0.66
  -1  -1   1   21.69    0.66
  -1   1  -1    2.17    0.29
   1  -1   1    2.41    0.25
   1  -1   1    3.08    0.15
  -2   1  -1  271.75    7.00
  -2   1  -1  269.85    7.10
   2  -1   1  266.43    7.00
   2  -1   1  280.16    7.00
  -3   1  -1    1.67    0.20
  -3   1  -1    1.87    0.38
   3  -1   1    1.53    0.19
   3  -1   1    1.81    0.21
  -4   1  -1    3.09    0.50
  -4   1  -1    2.05    0.32
   4  -1   1    2.70    0.34
   4  -1   1    2.67    0.39
  -5   1  -1  118.59    3.55
  -5   1  -1  121.65    3.34
   5  -1   1  121.39    3.33
   5  -1   1  126.50    3.24
  -6   1  -1  111.76    3.20
  -6   1  -1  110.63    3.44
   6  -1   1  114.16    3.19
   6  -1   1  119.35    3.06
  -7   1  -1    7.74    0.80
  -7   1  -1   10.17    1.22
   7  -1   1    9.31    0.76
   7  -1   1   10.24    0.82
  -8   1  -1    2.17    1.03
   8  -1   1    2.42    0.33
   8  -1   1    2.34    0.47
  -9   1  -1   12.77    2.14
   9  -1   1   13.25    1.06
 -10   1  -1   38.06    2.69
  10  -1   1   38.77    1.74
  10   0  -1    8.59    1.19
 -10   0   1    6.28    1.62
   9   0  -1   16.91    1.22
  -9   0   1   17.88    1.92
   8   0  -1    7.88    0.91
  -8   0   1    9.10    1.58
   7   0  -1   35.17    1.41
   7   0  -1   35.09    1.36
  -7   0   1   36.48    1.69
   6   0  -1   72.32    2.22
   6   0  -1   71.91    2.20
  -6   0   1   75.95    2.39
   5   0  -1  122.24    3.37
   5   0  -1  125.05    3.35
  -5   0   1  122.98    3.38
  -5   0   1  118.23    3.49
   4   0  -1   20.80    0.79
   4   0  -1   17.18    0.96
  -4   0   1   21.18    0.79
  -4   0   1   20.82    0.92
   3   0  -1    0.83    0.20
   3   0  -1    0.37    0.17
  -3   0   1    0.86    0.32
  -3   0   1    0.67    0.20
  -2   0   1  147.43    4.01
  -2   0   1  157.99    4.01
   1   0  -1   47.35    1.22
   1   0  -1   45.19    1.25
  -1   0  -1    7.03    0.27
  -1   0  -1    7.23    0.27
   1   0   1    7.24    0.27
   1   0   1    6.88    0.27
  -2   0  -1   15.29    0.54
  -2   0  -1   14.25    0.53
   2   0   1   16.03    0.52
   2   0   1   15.35    0.54
  -3   0  -1  317.04    8.05
  -3   0  -1  319.65    8.09
   3   0   1  305.08    8.04
   3   0   1  307.05    8.08
  -4   0  -1   72.27    2.06
  -4   0  -1   73.60    1.99
   4   0   1   72.95    1.98
   4   0   1   72.53    2.06
  -5   0  -1   34.19    1.54
  -5   0  -1   34.67    1.21
  -5   0  -1   35.33    1.10
   5   0   1   34.99    1.20
   5   0   1   34.02    1.21
   5   0   1   35.92    1.06
  -6   0  -1   42.96    1.48
  -6   0  -1   42.91    1.86
   6   0   1   43.95    1.49
   6   0   1   43.95    1.53
   6   0   1   44.78    1.31
  -7   0  -1    4.87    0.97
   7   0   1    3.27    0.43
   7   0   1    3.61    0.55
  -8   0  -1   21.70    1.69
   8   0   1   22.08    1.17
   9   0   1    3.49    0.67
  10  -1  -1    9.21    1.14
 -10   1   1    6.52    2.05
   9  -1  -1   12.57    1.07
  -9   1   1   12.10    2.21
   8  -1  -1    1.53    0.45
  -8   1   1    3.05    1.40
   7  -1  -1   30.28    1.24
   7  -1  -1   29.89    1.25
  -7   1   1   29.87    1.24
  -7   1   1   30.40    1.90
   6  -1  -1  122.22    3.43
  -6   1   1  124.24    3.70
  -6   1   1  123.04    3.46
   5  -1  -1  186.75    5.13
  -5   1   1  197.51    5.17
  -5   1   1  193.68    5.31
   4  -1  -1   10.12    0.56
  -4   1   1   11.13    0.84
  -4   1   1    9.99    0.65
   3  -1  -1    0.32    0.18
   3  -1  -1    0.08    0.28
  -3   1   1   -0.05    0.43
  -3   1   1    0.44    0.20
   2  -1  -1  694.98   17.56
   2  -1  -1  638.10   17.34
  -2   1   1  695.40   17.55
   1  -1  -1  483.65   12.43
   1  -1  -1  483.47   12.44
  -1   1   1  473.52   12.43
  -1   1   1  495.47   12.45
   0  -1  -1  131.59    3.41
   0  -1  -1  130.48    3.42
   0  -1  -1  132.12    3.41
   0   1   1  132.44    3.42
   0   1   1  132.26    3.41
   0   1   1  132.58    3.41
  -1  -1  -1    6.57    0.47
  -1  -1  -1    7.55    0.38
   1   1   1    7.66    0.38
   1   1   1    7.95    0.35
   1   1   1    8.21    0.41
  -2  -1  -1  109.84    2.88
  -2  -1  -1  106.33    2.85
   2   1   1  106.47    2.84
   2   1   1  109.44    2.89
   2   1   1  107.98    2.88
  -3  -1  -1  483.15   12.26
  -3  -1  -1  483.01   12.20
   3   1   1  473.01   12.24
   3   1   1  471.83   12.19
   3   1   1  461.46   12.27
  -4  -1  -1  132.13    3.56
  -4  -1  -1  133.73    3.49
   4   1   1  130.34    3.58
   4   1   1  130.44    3.56
   4   1   1  129.13    3.46
  -5  -1  -1    7.43    0.56
  -5  -1  -1    7.28    0.66
   5   1   1    7.66    0.66
   5   1   1    8.22    0.47
   5   1   1    7.75    0.70
  -6  -1  -1    6.43    0.71
  -6  -1  -1    6.19    0.58
   6   1   1    6.26    0.48
   6   1   1    7.19    0.75
   6   1   1    5.87    0.75
  -7  -1  -1   62.72    2.56
  -7  -1  -1   60.89    1.83
   7   1   1   60.67    2.04
   7   1   1   62.73    1.78
  -8  -1  -1   43.43    2.29
   8   1   1   40.92    1.71
  -9  -1  -1    0.22    1.37
   9   1   1   -1.38    0.60
  10  -2  -1    5.16    0.68
 -10   2   1    4.06    2.00
   9  -2  -1    0.59    0.46
  -9   2   1    1.60    1.60
   8  -2  -1   18.95    1.18
  -8   2   1   17.39    1.75
   7  -2  -1    9.95    0.82
  -7   2   1    9.90    0.83
  -7   2   1   10.87    1.49
   6  -2  -1  177.59    4.87
  -6   2   1  185.15    4.92
  -6   2   1  180.73    5.19
   5  -2  -1   58.20    1.74
   5  -2  -1   56.54    1.90
  -5   2   1   59.84    2.08
  -5   2   1   61.08    1.78
   4  -2  -1   23.15    0.93
   4  -2  -1   22.63    0.82
  -4   2   1   23.57    0.84
  -4   2   1   24.33    1.19
   3  -2  -1    1.28    0.49
   3  -2  -1    0.62    0.20
   3  -2  -1    0.34    0.18
  -3   2   1    0.75    0.44
  -3   2   1    0.80    0.43
   2  -2  -1  279.15    7.26
   2  -2  -1  279.42    7.12
   2  -2  -1  269.19    7.13
  -2   2   1  278.67    7.27
   1  -2  -1  611.81   15.65
   1  -2  -1  594.05   15.60
  -1   2   1  621.98   15.66
  -1   2   1  609.28   15.66
   0  -2  -1    0.38    0.17
   0  -2  -1    0.36    0.14
   0   2   1    0.24    0.15
   0   2   1    0.40    0.16
   0   2   1    0.16    0.14
  -1  -2  -1   25.31    0.92
  -1  -2  -1   25.64    0.80
  -1  -2  -1   26.63    0.80
   1   2   1   25.54    0.80
   1   2   1   26.16    0.79
   1   2   1   25.60    0.83
  -2  -2  -1  172.60    4.61
  -2  -2  -1  171.53    4.57
  -2  -2  -1  177.91    4.59
   2   2   1  175.31    4.61
   2   2   1  177.19    4.56
   2   2   1  172.82    4.59
  -3  -2  -1  444.59   11.72
   3   2   1  463.24   11.72
   3   2   1  458.55   11.79
   3   2   1  453.07   11.78
  -4  -2  -1   92.97    2.55
  -4  -2  -1   90.76    2.48
   4   2   1   89.08    2.55
   4   2   1   83.94    2.66
   4   2   1   90.11    2.57
  -5  -2  -1    0.30    0.35
  -5  -2  -1   -0.30    0.36
   5   2   1    0.40    0.38
   5   2   1    0.15    0.33
   5   2   1    0.27    0.25
  -6  -2  -1   12.59    0.75
   6   2   1   13.87    0.94
   6   2   1   12.36    0.64
  -7  -2  -1   85.78    2.48
   7   2   1   86.69    2.42
   7   2   1   86.29    2.71
  -8  -2  -1   23.78    1.04
  -8  -2  -1   22.15    2.06
   8   2   1   21.70    1.38
  -9  -2  -1    2.20    1.49
  10  -3  -1    0.78    0.55
 -10   3   1    0.79    2.10
   9  -3  -1   30.77    1.33
  -9   3   1   25.92    2.22
   8  -3  -1   69.38    2.14
  -8   3   1   69.65    2.76
  -8   3   1   64.87    2.16
   7  -3  -1    1.10    0.39
  -7   3   1    0.29    0.38
  -7   3   1    1.52    1.06
   6  -3  -1   81.18    2.81
   6  -3  -1   83.70    2.43
  -6   3   1   88.68    2.89
   5  -3  -1    2.18    0.31
   5  -3  -1    1.34    0.48
  -5   3   1    1.58    0.77
   4  -3  -1   86.86    2.36
   4  -3  -1   84.47    2.30
  -4   3   1   85.38    2.64
   3  -3  -1    7.23    0.39
   3  -3  -1    6.55    0.42
   3  -3  -1    7.43    0.78
   3  -3  -1    6.92    0.39
  -3   3   1    6.99    0.81
   2  -3  -1  107.00    2.86
   2  -3  -1  103.43    2.84
   2  -3  -1  106.03    3.05
  -2   3   1  112.13    2.85
   1  -3  -1   67.41    1.84
   1  -3  -1   68.06    1.80
   1  -3  -1   66.47    1.87
  -1   3   1   67.95    1.84
  -1   3   1   66.14    1.86
   0  -3  -1   62.41    1.71
   0  -3  -1   61.88    1.76
   0  -3  -1   61.90    1.74
   0   3   1   62.96    1.73
   0   3   1   63.71    1.76
   0   3   1   62.07    1.71
  -1  -3  -1    0.58    0.20
  -1  -3  -1    0.85    0.26
  -1  -3  -1    0.77    0.24
   1   3   1    0.84    0.20
   1   3   1    0.69    0.19
   1   3   1    0.75    0.21
  -2  -3  -1   78.30    2.16
  -2  -3  -1   81.65    2.18
  -2  -3  -1   76.79    2.23
   2   3   1   71.37    2.31
   2   3   1   80.63    2.22
   2   3   1   78.37    2.18
  -3  -3  -1   88.55    2.61
  -3  -3  -1   89.62    2.51
  -3  -3  -1   93.29    2.56
   3   3   1   90.89    2.59
   3   3   1   91.15    2.49
   3   3   1   91.68    2.57
  -4  -3  -1   44.37    1.44
  -4  -3  -1   45.71    1.50
   4   3   1   46.05    1.38
   4   3   1   44.97    1.52
   4   3   1   46.49    1.56
  -5  -3  -1    8.49    0.73
   5   3   1    7.76    0.56
   5   3   1    8.53    0.82
  -6  -3  -1    6.45    0.75
   6   3   1    6.47    0.56
   6   3   1    8.22    0.94
  -7  -3  -1   32.68    1.29
   7   3   1   32.91    1.16
   7   3   1   33.88    1.55
  -8  -3  -1   10.39    1.79
   8   3   1   11.36    1.32
  10  -4  -1    2.29    0.55
 -10   4   1    1.24    2.01
   9  -4  -1   36.83    1.48
  -9   4   1   37.59    2.19
   8  -4  -1   86.09    2.54
   8  -4  -1   90.42    2.61
  -8   4   1   88.28    3.19
   7  -4  -1    9.98    0.74
   7  -4  -1    9.10    1.10
   7  -4  -1    9.20    0.57
  -7   4   1    7.37    1.48
   6  -4  -1    3.96    0.85
   6  -4  -1    3.64    0.48
   6  -4  -1    5.27    0.61
  -6   4   1    5.03    1.03
   5  -4  -1   60.12    1.75
   5  -4  -1   58.96    1.74
   5  -4  -1   57.52    1.70
   5  -4  -1   62.19    2.12
  -5   4   1   58.40    2.21
   4  -4  -1  302.13    7.82
   4  -4  -1  291.61    7.79
   4  -4  -1  295.62    7.80
   4  -4  -1  317.43    8.09
  -4   4   1  294.23    8.11
   3  -4  -1   26.35    0.90
   3  -4  -1   26.58    1.25
   3  -4  -1   25.71    0.88
   2  -4  -1    1.34    0.23
   2  -4  -1    1.27    0.27
   2  -4  -1    1.51    0.64
  -2   4   1    1.47    0.24
   1  -4  -1    1.21    0.26
   1  -4  -1    1.32    0.19
   1  -4  -1    1.33    0.25
  -1   4   1    1.04    0.26
  -1   4   1    1.19    0.25
   0  -4  -1  216.75    5.55
   0  -4  -1  208.30    5.59
   0  -4  -1  212.49    5.62
   0   4   1  209.06    5.63
   0   4   1  216.92    5.58
   0   4   1  212.41    5.55
  -1  -4  -1   54.75    1.72
  -1  -4  -1   57.79    1.62
  -1  -4  -1   55.04    1.65
   1   4   1   54.73    1.63
   1   4   1   57.47    1.69
   1   4   1   56.86    1.62
  -2  -4  -1    1.42    0.29
  -2  -4  -1    1.52    0.40
  -2  -4  -1    1.67    0.37
   2   4   1    1.61    0.31
   2   4   1    1.64    0.33
   2   4   1    1.69    0.29
  -3  -4  -1    0.31    0.31
  -3  -4  -1    0.38    0.36
  -3  -4  -1    0.26    0.42
   3   4   1    1.34    0.37
   3   4   1    0.51    0.33
   3   4   1    0.98    0.27
  -4  -4  -1    1.26    0.40
  -4  -4  -1    1.46    0.42
   4   4   1    1.41    0.45
   4   4   1    0.93    0.41
   4   4   1    1.82    0.32
  -5  -4  -1    0.24    0.44
   5   4   1   -0.42    0.27
   5   4   1   -0.13    0.45
  -6  -4  -1    0.45    0.52
   6   4   1    0.55    0.59
   6   4   1    0.10    0.33
  -7  -4  -1    0.20    0.73
   7   4   1    0.80    0.64
  10  -5  -1    6.69    1.02
  10  -5  -1    6.98    1.00
 -10   5   1    7.23    1.65
   9  -5  -1   50.73    1.83
   9  -5  -1   50.97    1.82
   9  -5  -1   51.71    1.56
  -9   5   1   52.32    2.69
   8  -5  -1   46.71    1.48
   8  -5  -1   45.69    1.55
   8  -5  -1   44.90    1.59
  -8   5   1   41.57    2.51
   7  -5  -1   11.42    1.08
   7  -5  -1   10.85    0.68
   7  -5  -1   10.88    0.78
   7  -5  -1   10.49    0.77
  -7   5   1    9.02    1.56
   6  -5  -1    4.21    0.59
   6  -5  -1    5.51    0.62
   6  -5  -1    5.06    0.93
   6  -5  -1    5.54    0.65
  -6   5   1    5.37    1.09
   5  -5  -1   65.88    1.92
   5  -5  -1   62.75    2.30
   5  -5  -1   64.80    1.88
   5  -5  -1   64.43    1.88
  -5   5   1   65.38    2.47
   4  -5  -1  120.91    3.32
   4  -5  -1  121.26    3.29
   4  -5  -1  123.63    3.69
   4  -5  -1  123.90    3.36
   3  -5  -1   50.87    1.54
   3  -5  -1   49.61    2.03
   3  -5  -1   53.27    1.60
  -3   5   1   51.99    1.64
   2  -5  -1   27.29    0.98
   2  -5  -1   29.40    0.88
   2  -5  -1   28.52    1.07
  -2   5   1   27.34    1.19
   1  -5  -1  110.07    3.09
   1  -5  -1  111.93    3.14
   1  -5  -1  115.32    3.03
  -1   5   1  113.89    3.13
   0  -5  -1   60.77    1.73
   0  -5  -1   60.50    1.81
   0  -5  -1   59.56    1.87
   0   5   1   61.39    1.84
   0   5   1   59.71    1.75
   0   5   1   61.91    1.78
  -1  -5  -1   65.72    1.99
  -1  -5  -1   67.97    1.94
  -1  -5  -1   66.09    2.08
   1   5   1   67.65    1.96
   1   5   1   66.15    1.96
   1   5   1   69.84    2.05
  -2  -5  -1   43.59    1.41
  -2  -5  -1   43.71    1.59
  -2  -5  -1   43.41    1.46
   2   5   1   42.71    1.37
   2   5   1   42.49    1.43
   2   5   1   41.58    1.49
  -3  -5  -1   32.69    1.23
  -3  -5  -1   32.33    1.25
  -3  -5  -1   32.07    1.44
   3   5   1   32.42    1.15
   3   5   1   32.05    1.30
   3   5   1   32.37    1.28
  -4  -5  -1   10.52    0.86
   4   5   1   11.07    0.93
   4   5   1   11.17    0.71
  -5  -5  -1    2.70    0.59
   5   5   1    3.28    0.61
   5   5   1    3.00    0.42
  -6  -5  -1   13.48    1.14
   6   5   1   11.85    0.82
   6   5   1   13.06    1.30
   7   5   1   13.56    1.49
  10  -6  -1    0.74    0.66
  10  -6  -1   -0.24    0.52
 -10   6   1    0.01    1.49
   9  -6  -1    5.52    0.82
   9  -6  -1    3.13    0.45
   9  -6  -1    3.05    0.55
  -9   6   1    4.75    1.45
   8  -6  -1   10.71    0.80
   8  -6  -1   10.64    0.94
   8  -6  -1    9.24    0.75
  -8   6   1   11.36    1.84
   7  -6  -1    2.56    0.44
   7  -6  -1    2.87    0.48
   7  -6  -1    2.95    0.46
  -7   6   1    3.56    1.29
   6  -6  -1    2.42    0.94
   6  -6  -1    1.58    0.39
   6  -6  -1    2.08    0.41
   6  -6  -1    1.47    0.36
   5  -6  -1   25.71    1.09
   5  -6  -1   25.03    1.75
   5  -6  -1   26.65    1.05
   5  -6  -1   25.93    0.97
   4  -6  -1   19.98    0.90
   4  -6  -1   18.37    1.41
   4  -6  -1   20.24    0.99
   3  -6  -1   38.62    1.13
   3  -6  -1   35.66    1.28
   3  -6  -1   38.82    1.78
   3  -6  -1   37.84    1.39
  -3   6   1   38.32    1.30
   2  -6  -1   72.59    2.19
   2  -6  -1   75.37    2.05
   2  -6  -1   76.07    2.27
  -2   6   1   73.85    2.21
   1  -6  -1   54.23    1.55
   1  -6  -1   53.97    1.78
   1  -6  -1   50.76    1.67
  -1   6   1   52.87    1.71
   0  -6  -1   20.73    0.97
   0  -6  -1   20.83    1.11
   0  -6  -1   19.78    0.80
   0   6   1   19.13    0.99
   0   6   1   19.26    0.86
   0   6   1   19.70    0.86
  -1  -6  -1   36.88    1.26
  -1  -6  -1   39.02    1.75
  -1  -6  -1   37.76    1.37
   1   6   1   36.84    1.41
   1   6   1   36.93    1.30
   1   6   1   38.08    1.34
  -2  -6  -1   73.71    2.43
  -2  -6  -1   72.64    2.23
  -2  -6  -1   75.11    2.30
   2   6   1   74.55    2.26
   2   6   1   78.23    2.56
   2   6   1   74.65    2.34
  -3  -6  -1   36.51    1.45
  -3  -6  -1   37.85    1.62
   3   6   1   36.97    1.32
  -4  -6  -1    7.27    1.12
   4   6   1    7.55    0.98
  -5  -6  -1    2.44    0.69
   5   6   1    1.69    0.65
  -6  -6  -1   33.80    1.72
   6   6   1   33.74    1.78
  10  -7  -1    3.65    0.64
  10  -7  -1    3.09    0.61
 -10   7   1    4.02    1.73
   9  -7  -1    2.68    0.51
   9  -7  -1    3.46    0.56
   9  -7  -1    3.49    0.58
  -9   7   1    4.17    1.51
   8  -7  -1    1.78    0.49
   8  -7  -1    1.74    0.52
   8  -7  -1    1.07    0.42
   7  -7  -1    0.42    0.36
   7  -7  -1    0.26    0.43
   7  -7  -1   -0.20    0.44
   6  -7  -1   -0.39    0.40
   6  -7  -1    0.12    0.41
   6  -7  -1    0.29    0.34
   5  -7  -1    6.59    0.78
   5  -7  -1    5.98    1.41
   5  -7  -1    6.87    0.62
   5  -7  -1    7.03    0.88
   4  -7  -1    3.00    0.54
   4  -7  -1    3.00    0.52
   4  -7  -1    3.27    0.45
   4  -7  -1    3.53    0.99
  -4   7   1    2.59    0.41
   3  -7  -1    0.85    0.31
   3  -7  -1    1.99    0.87
   3  -7  -1    0.63    0.46
   3  -7  -1    0.77    0.50
  -3   7   1    0.74    0.37
   2  -7  -1    7.79    0.55
   2  -7  -1    8.00    1.02
   2  -7  -1    9.25    0.84
  -2   7   1    8.18    0.81
   1  -7  -1    3.70    0.57
   1  -7  -1    3.83    0.55
   1  -7  -1    3.54    0.55
   0  -7  -1    2.09    0.59
   0  -7  -1    2.37    0.37
   0  -7  -1    2.61    0.55
   0   7   1    2.25    0.48
  -1  -7  -1    6.28    0.69
  -1  -7  -1    7.19    0.88
  -1  -7  -1    5.29    0.69
   1   7   1    6.78    0.81
   1   7   1    5.51    0.84
  -2  -7  -1   63.75    2.04
  -2  -7  -1   62.58    2.29
  -2  -7  -1   64.84    2.18
   2   7   1   64.68    2.06
  -3  -7  -1   12.42    1.09
  -3  -7  -1   10.83    1.33
   3   7   1   11.67    1.13
  -4  -7  -1    0.73    0.73
   4   7   1    1.40    0.64
  -5  -7  -1    0.01    0.79
   5   7   1    1.30    0.70
   9  -8  -1   17.08    1.27
   9  -8  -1   14.46    1.07
   9  -8  -1   16.42    1.04
   8  -8  -1   11.85    1.13
   8  -8  -1   12.70    1.00
   8  -8  -1   10.72    0.80
   7  -8  -1    0.50    0.59
   7  -8  -1    1.41    0.38
   7  -8  -1    1.58    0.55
   6  -8  -1   14.31    1.11
   6  -8  -1   14.13    1.67
   6  -8  -1   12.03    0.74
   5  -8  -1   74.87    2.19
   5  -8  -1   77.14    2.22
   5  -8  -1   81.00    2.50
   4  -8  -1   20.01    1.21
   4  -8  -1   20.16    0.76
   4  -8  -1   16.27    1.65
  -4   8   1   19.70    1.00
   3  -8  -1    0.62    0.27
   3  -8  -1    0.00    0.53
  -3   8   1    0.56    0.39
   2  -8  -1    0.40    0.58
   2  -8  -1   -0.13    0.27
   2  -8  -1    0.78    0.57
  -2   8   1   -0.62    0.45
   1  -8  -1   19.69    1.15
   1  -8  -1   18.29    1.28
   1  -8  -1   17.55    0.83
  -1   8   1   18.65    1.10
   0  -8  -1   36.97    1.51
   0  -8  -1   34.26    1.25
   0  -8  -1   34.61    2.58
  -1  -8  -1   -0.16    0.61
  -1  -8  -1   -0.31    0.63
  -1  -8  -1   -0.55    0.39
   1   8   1    0.69    0.51
  -2  -8  -1    3.86    0.81
  -2  -8  -1    3.07    0.78
   2   8   1    3.53    0.62
  -3  -8  -1    0.08    0.73
  -3  -8  -1    1.08    0.77
   3   8   1    1.12    0.66
  -4  -8  -1    9.28    1.31
   4   8   1   11.12    1.35
   9  -9  -1   15.35    1.69
   9  -9  -1   13.68    1.15
   8  -9  -1    3.60    0.70
   8  -9  -1    2.83    0.64
   7  -9  -1    0.15    0.56
   7  -9  -1    1.83    0.63
   6  -9  -1   12.16    1.07
   6  -9  -1   10.13    0.73
   6  -9  -1   10.99    1.36
   5  -9  -1   73.67    2.41
   5  -9  -1   71.61    2.14
   5  -9  -1   77.19    2.57
   4  -9  -1   24.52    0.95
   4  -9  -1   24.11    1.46
   4  -9  -1   26.71    1.36
  -4   9   1   25.09    1.38
   3  -9  -1    5.53    0.62
   3  -9  -1    5.58    0.82
   3  -9  -1    5.67    0.75
  -3   9   1    8.02    1.31
   2  -9  -1   11.31    1.17
   2  -9  -1   10.86    1.31
   2  -9  -1   10.92    0.70
   1  -9  -1   48.30    2.02
   1  -9  -1   50.35    2.04
   1  -9  -1   46.19    1.54
   0  -9  -1   42.07    1.77
   0  -9  -1   39.93    1.93
   0  -9  -1   38.58    1.42
  -1  -9  -1    3.02    0.84
  -1  -9  -1    3.20    0.79
  -2  -9  -1    0.58    0.81
  -2  -9  -1   -0.97    0.81
   2   9   1    0.52    0.66
  -3  -9  -1   12.89    1.78
   3   9   1   10.12    1.40
   8 -10  -1   -0.38    0.80
   8 -10  -1   -0.25    0.66
   7 -10  -1   -1.11    0.63
   7 -10  -1    0.62    0.75
   6 -10  -1   10.90    1.39
   6 -10  -1   12.02    1.24
   5 -10  -1   15.98    1.46
   5 -10  -1   19.40    1.39
   4 -10  -1   16.18    1.35
   4 -10  -1   12.23    1.46
   3 -10  -1    1.58    0.77
   3 -10  -1   -0.96    0.78
   2 -10  -1    8.57    1.47
   2 -10  -1    8.99    1.33
   1 -10  -1   27.37    1.65
   1 -10  -1   27.86    1.81
   0 -10  -1   14.63    1.47
   0 -10  -1   14.03    1.70
  -1 -10  -1    1.26    0.87
  -1 -10  -1    0.07    0.91
   6 -11  -1    0.51    0.81
   6 -11  -1   -0.27    0.89
   5 -11  -1   -0.28    0.85
   5 -11  -1   -0.89    0.85
   4 -11  -1   -1.33    0.87
   4 -11  -1   -0.14    0.92
   3 -11  -1   -0.77    0.90
   3 -11  -1    0.38    0.94
   2 -11  -1    0.59    0.96
   2 -11  -1    0.14    0.93
   1 -11  -1    0.71    1.01
   1 -11  -1    2.03    1.05
   1 -12   2    0.23    0.99
   1 -12   2   -0.08    1.07
   2 -12   2   -1.22    1.03
   2 -12   2   -1.10    0.96
   3 -12   2   -1.32    0.96
   3 -12   2   -1.72    0.93
   4 -12   2    5.78    1.08
   4 -12   2    6.76    1.04
   5 -12   2   14.31    1.62
   5 -12   2   10.19    1.59
   6 -12   2   -0.79    0.89
   6 -12   2   -1.38    0.90
   1  11  -2    0.40    0.67
  -1 -11   2    0.54    0.97
  -1 -11   2    0.01    0.96
   0 -11   2    0.23    0.89
   0 -11   2   -1.42    0.81
   1 -11   2   -0.40    0.93
   1 -11   2    0.88    0.92
   2 -11   2   11.62    1.62
   2 -11   2   12.77    1.42
   3 -11   2    0.64    0.78
   3 -11   2    1.93    0.86
   4 -11   2    3.22    0.84
   4 -11   2    1.72    0.84
   5 -11   2   -0.11    0.75
   5 -11   2    1.07    0.78
   6 -11   2    5.02    0.85
   6 -11   2    4.15    0.85
   7 -11   2    6.31    0.91
   7 -11   2    5.00    0.91
   8 -11   2    4.76    0.94
   8 -11   2    6.29    0.98
   3  10  -2   28.39    1.58
  -3 -10   2   29.26    3.60
  -3 -10   2   26.13    1.84
   2  10  -2   30.12    1.47
  -2 -10   2   27.25    1.68
  -2 -10   2   27.91    2.02
   1  10  -2    2.79    0.57
  -1 -10   2    1.66    0.89
  -1 -10   2    2.49    0.77
  -1 -10   2    2.23    0.46
   0  10  -2    0.23    0.45
   0 -10   2    0.41    0.75
   0 -10   2    1.12    0.80
   1 -10   2   27.66    1.78
   1 -10   2   28.24    1.04
   1 -10   2   29.51    1.56
   2 -10   2   79.03    2.64
   2 -10   2   76.61    2.74
   3 -10   2    6.32    0.99
   3 -10   2    8.12    1.20
   4 -10   2   -0.39    0.65
   4 -10   2   -0.59    0.59
   5 -10   2   12.33    1.35
   5 -10   2   11.39    1.24
   6 -10   2   21.55    1.51
   6 -10   2   25.64    1.47
   7 -10   2    6.32    0.83
   7 -10   2    5.60    0.80
   8 -10   2    1.18    0.75
   8 -10   2    0.40    0.75
   9 -10   2    0.98    0.74
   9 -10   2    1.54    0.78
   4   9  -2    2.66    0.76
  -4  -9   2    0.65    0.95
  -4  -9   2    1.53    1.09
   3   9  -2   33.94    1.56
  -3  -9   2   35.31    1.99
  -3  -9   2   31.74    1.65
   2   9  -2   23.71    1.46
  -2  -9   2   23.58    1.85
  -2  -9   2   23.06    1.39
   1   9  -2    0.87    0.44
  -1  -9   2    0.43    0.71
  -1  -9   2    0.21    0.41
  -1  -9   2    0.09    0.64
   0   9  -2    5.13    0.70
   0  -9   2    4.28    0.76
   0  -9   2    5.45    0.76
   0  -9   2    5.08    0.60
   1  -9   2   51.45    1.55
   1  -9   2   53.42    1.93
   1  -9   2   53.19    2.07
   2  -9   2   43.80    1.72
   3  -9   2   25.82    1.34
   3  -9   2   25.66    1.70
   4  -9   2    0.08    0.59
   5  -9   2   25.96    1.38
   5  -9   2   27.94    1.43
   6  -9   2   85.29    2.74
   6  -9   2   91.23    2.83
   7  -9   2   18.81    1.32
   7  -9   2   19.55    1.21
  -8   9  -2    3.63    1.47
   8  -9   2    3.11    0.66
   8  -9   2    2.91    0.64
  -9   9  -2    6.43    1.68
   9  -9   2    4.18    0.74
   5   8  -2    9.81    1.39
  -5  -8   2   10.67    1.65
  -5  -8   2    8.08    1.18
   4   8  -2    0.94    0.63
  -4  -8   2    1.15    0.81
  -4  -8   2    0.44    0.66
   3   8  -2   15.72    1.12
  -3  -8   2   15.20    1.48
   2   8  -2    2.48    0.48
  -2  -8   2    2.19    0.73
  -2  -8   2    1.98    0.45
  -2  -8   2    3.67    0.62
   1   8  -2   13.00    0.82
  -1  -8   2   10.83    1.24
  -1  -8   2   13.88    1.02
  -1  -8   2   13.74    0.75
   0   8  -2    0.67    0.39
   0   8  -2    0.07    0.32
   0  -8   2    0.82    0.60
   0  -8   2    0.22    0.29
   0  -8   2    0.05    0.53
  -1   8  -2   54.10    1.83
  -1   8  -2   51.81    1.56
   1  -8   2   55.58    2.24
   1  -8   2   53.00    1.87
   1  -8   2   52.72    1.56
   1  -8   2   56.14    2.03
  -2   8  -2    9.19    0.87
   2  -8   2   10.76    0.97
   2  -8   2   10.00    1.33
   2  -8   2   11.20    1.29
  -3   8  -2    3.14    0.48
   3  -8   2    4.00    0.61
   3  -8   2    4.74    1.01
   3  -8   2    3.73    0.61
  -4   8  -2    3.60    0.49
   4  -8   2    5.79    0.93
   5  -8   2   21.38    1.17
  -6   8  -2   25.46    1.95
   6  -8   2   21.94    1.93
  -7   8  -2   11.62    1.87
   7  -8   2   11.41    1.06
  -8   8  -2   11.16    2.00
   8  -8   2   10.68    1.12
  -9   8  -2    5.64    1.71
   9  -8   2    4.18    0.66
 -10   8  -2    5.54    1.82
  10  -8   2    9.67    1.30
   6   7  -2   22.01    1.55
   5   7  -2   30.96    1.56
  -5  -7   2   30.42    1.36
  -5  -7   2   33.19    1.74
   4   7  -2    2.78    0.61
  -4  -7   2    2.80    0.74
  -4  -7   2    3.46    0.60
   3   7  -2   -0.13    0.41
  -3  -7   2   -0.07    0.38
  -3  -7   2   -0.07    0.48
  -3  -7   2    0.52    0.60
   2   7  -2   20.04    1.24
  -2  -7   2   20.17    0.94
  -2  -7   2   20.48    1.34
  -2  -7   2   21.22    1.04
   1   7  -2   37.71    1.36
   1   7  -2   37.23    1.46
  -1  -7   2   37.85    1.26
  -1  -7   2   39.15    1.40
  -1  -7   2   36.53    1.62
   0   7  -2    2.68    0.34
   0   7  -2    2.21    0.43
   0  -7   2    3.15    0.50
   0  -7   2    2.69    0.54
  -1   7  -2   12.83    0.83
  -1   7  -2   12.75    0.57
   1  -7   2   12.62    0.87
   1  -7   2   13.06    0.56
   1  -7   2   12.78    1.19
   1  -7   2   13.03    1.01
  -2   7  -2    5.32    0.71
   2  -7   2    6.31    0.85
   2  -7   2    5.77    1.15
   2  -7   2    4.91    0.77
  -3   7  -2    1.88    0.38
   3  -7   2    2.63    0.82
   3  -7   2    1.91    0.46
   4  -7   2    0.31    0.40
   4  -7   2    0.39    0.79
  -5   7  -2    0.95    1.14
   5  -7   2    0.53    0.40
   5  -7   2    1.52    0.86
  -6   7  -2    2.30    1.13
   6  -7   2    1.99    0.97
   6  -7   2    0.92    0.43
  -7   7  -2    2.51    1.25
   7  -7   2    1.99    0.50
  -8   7  -2   13.46    2.03
   8  -7   2   13.29    1.10
   8  -7   2   12.73    0.68
  -9   7  -2    2.63    1.56
   9  -7   2    2.44    0.61
   9  -7   2    1.28    0.37
 -10   7  -2    2.28    1.71
  10  -7   2    0.62    0.60
   7   6  -2    4.98    0.87
   6   6  -2   32.15    1.62
  -6  -6   2   32.09    1.31
   5   6  -2   28.71    1.38
  -5  -6   2   27.56    1.15
  -5  -6   2   27.83    1.58
  -4  -6   2   31.27    1.51
  -4  -6   2   31.46    1.21
   3   6  -2   23.89    1.29
   3   6  -2   27.99    1.14
  -3  -6   2   28.70    1.11
  -3  -6   2   28.46    1.42
  -3  -6   2   25.68    1.10
   2   6  -2   38.51    1.43
   2   6  -2   37.23    1.31
  -2  -6   2   37.88    1.56
  -2  -6   2   36.85    1.28
  -2  -6   2   38.64    1.32
   1   6  -2   34.05    1.26
   1   6  -2   32.54    1.10
  -1  -6   2   31.06    1.37
  -1  -6   2   33.14    1.08
  -1  -6   2   32.53    1.17
   0   6  -2   43.52    1.31
   0   6  -2   44.98    1.50
   0  -6   2   43.44    1.57
   0  -6   2   44.13    1.44
   0  -6   2   45.61    1.30
  -1   6  -2   72.62    2.14
   1  -6   2   68.68    2.09
   1  -6   2   72.08    1.92
   1  -6   2   72.37    2.36
   1  -6   2   71.55    2.21
  -2   6  -2  105.32    3.01
   2  -6   2  108.97    3.25
   2  -6   2  106.47    3.04
  -3   6  -2   28.45    1.07
   3  -6   2   29.36    1.47
   3  -6   2   28.15    1.10
  -4   6  -2    5.14    0.94
   4  -6   2    5.00    0.87
   4  -6   2    3.82    0.63
  -5   6  -2   79.35    2.78
   5  -6   2   71.59    2.60
   5  -6   2   72.55    2.22
  -6   6  -2   48.27    2.29
   6  -6   2   43.96    1.32
   6  -6   2   44.07    1.58
   6  -6   2   47.13    1.92
  -7   6  -2    2.00    1.34
   7  -6   2    1.49    0.31
   7  -6   2    1.96    0.46
  -8   6  -2    0.56    1.23
   8  -6   2    0.28    0.43
   8  -6   2    0.30    0.33
   8  -6   2    1.57    0.42
  -9   6  -2    1.95    1.79
   9  -6   2    1.55    0.55
   9  -6   2    2.18    0.44
   9  -6   2    2.24    0.40
 -10   6  -2   21.34    2.63
  10  -6   2   19.19    1.07
  10  -6   2   17.88    1.37
   7   5  -2    3.45    0.67
   6   5  -2    4.03    0.68
  -6  -5   2    4.50    0.48
   5   5  -2    5.86    0.87
  -5  -5   2    6.50    0.63
   4   5  -2   14.44    0.93
   4   5  -2   15.24    0.92
  -4  -5   2   14.64    0.80
  -4  -5   2   15.82    0.88
  -4  -5   2   13.97    1.09
   3   5  -2   88.30    2.54
  -3  -5   2   85.52    2.51
  -3  -5   2   86.81    2.66
  -3  -5   2   88.88    2.46
   2   5  -2   21.87    0.89
   2   5  -2   22.73    0.99
  -2  -5   2   22.05    0.87
  -2  -5   2   22.97    1.10
  -2  -5   2   22.45    0.87
   1   5  -2    3.45    0.43
   1   5  -2    4.06    0.56
  -1  -5   2    3.48    0.40
  -1  -5   2    2.51    0.41
  -1  -5   2    3.70    0.49
   0   5  -2  134.02    3.51
   0   5  -2  136.62    3.65
   0  -5   2  131.23    3.67
   0  -5   2  131.83    3.51
   0  -5   2  132.67    3.60
  -1   5  -2  364.19    9.44
   1  -5   2  357.37    9.74
   1  -5   2  363.14    9.46
  -2   5  -2   68.11    1.97
   2  -5   2   68.35    2.20
   2  -5   2   67.00    1.98
  -3   5  -2    1.55    0.28
  -3   5  -2    1.15    0.59
   3  -5   2    1.34    0.28
   3  -5   2    1.16    0.63
  -4   5  -2   25.72    1.42
   4  -5   2   25.02    1.34
   4  -5   2   24.80    0.94
  -5   5  -2  276.33    7.46
  -5   5  -2  265.49    7.00
   5  -5   2  268.99    6.98
   5  -5   2  269.41    7.14
  -6   5  -2  112.38    3.61
  -6   5  -2  105.42    2.98
   6  -5   2  109.32    2.92
   6  -5   2  105.53    3.38
   6  -5   2  110.02    3.18
  -7   5  -2   -0.01    1.12
  -7   5  -2   -0.14    0.33
   7  -5   2    0.62    0.35
   7  -5   2   -0.59    0.85
   7  -5   2   -0.28    0.28
  -8   5  -2   -1.29    1.51
  -8   5  -2   -0.04    0.39
   8  -5   2   -0.22    0.34
   8  -5   2    0.20    0.35
  -9   5  -2   35.15    1.41
  -9   5  -2   29.09    2.52
   9  -5   2   34.27    1.60
   9  -5   2   32.03    1.22
 -10   5  -2   35.49    2.85
  10  -5   2   37.60    1.47
   8   4  -2   -0.29    0.66
  -8  -4   2   -0.25    1.24
   7   4  -2    0.60    0.54
   6   4  -2   18.84    1.13
   5   4  -2    1.05    0.42
   5   4  -2    1.30    0.45
  -5  -4   2    1.09    0.30
  -5  -4   2    1.14    0.45
   4   4  -2   40.92    1.44
   4   4  -2   42.96    1.47
  -4  -4   2   40.27    1.42
  -4  -4   2   42.83    1.29
  -4  -4   2   41.42    1.55
   3   4  -2   10.26    0.69
   3   4  -2   10.71    0.68
  -3  -4   2   10.67    0.56
  -3  -4   2   10.22    0.65
  -3  -4   2   10.53    0.84
   2   4  -2   16.61    0.70
   2   4  -2   16.45    0.74
  -2  -4   2   15.74    0.67
  -2  -4   2   16.78    0.83
  -2  -4   2   16.98    0.64
   1   4  -2   78.12    2.13
   1   4  -2   78.63    2.21
  -1  -4   2   78.81    2.13
  -1  -4   2   74.85    2.14
  -1  -4   2   78.88    2.24
   0   4  -2   71.40    1.97
   0   4  -2   75.34    2.08
   0  -4   2   72.50    1.96
   0  -4   2   73.91    2.10
  -1   4  -2  237.45    6.29
   1  -4   2  242.63    6.40
   1  -4   2  239.30    6.30
  -2   4  -2   37.89    1.17
  -2   4  -2   36.82    1.37
   2  -4   2   38.07    1.17
   2  -4   2   38.76    1.41
  -3   4  -2   59.71    1.97
   3  -4   2   59.90    2.01
   3  -4   2   56.18    1.69
  -4   4  -2   39.88    1.15
  -4   4  -2   39.04    1.67
   4  -4   2   37.68    1.51
   4  -4   2   41.40    1.26
   4  -4   2   41.48    1.12
  -5   4  -2  284.06    7.48
  -5   4  -2  266.13    7.07
   5  -4   2  261.38    7.36
   5  -4   2  274.43    7.04
  -6   4  -2   53.79    1.67
  -6   4  -2   55.36    2.35
   6  -4   2   56.70    1.62
   6  -4   2   56.50    1.68
   6  -4   2   54.19    2.13
  -7   4  -2    6.20    1.28
  -7   4  -2    3.50    0.45
   7  -4   2    3.57    0.40
   7  -4   2    3.84    0.57
  -8   4  -2    2.29    1.52
  -8   4  -2    1.37    0.45
   8  -4   2    1.31    0.37
   8  -4   2    1.32    0.38
  -9   4  -2   50.11    2.95
   9  -4   2   46.34    1.54
   9  -4   2   48.30    1.65
 -10   4  -2   31.42    2.74
  10  -4   2   34.07    1.43
   8   3  -2    0.20    0.60
  -8  -3   2    1.84    1.05
   7   3  -2   16.68    1.14
  -7  -3   2   13.44    1.59
   6   3  -2  160.19    4.50
   5   3  -2   19.73    1.05
   5   3  -2   20.23    1.02
  -5  -3   2   19.02    0.96
   4   3  -2   26.60    1.05
   4   3  -2   26.13    1.04
  -4  -3   2   25.68    0.82
  -4  -3   2   24.69    1.08
  -4  -3   2   25.35    1.11
   3   3  -2   22.84    0.88
   3   3  -2   23.42    0.89
  -3  -3   2   22.97    0.86
  -3  -3   2   22.59    0.94
  -3  -3   2   23.06    0.74
   2   3  -2  212.77    6.09
   2   3  -2  235.71    6.00
  -2  -3   2  227.74    5.93
  -2  -3   2  236.92    6.00
  -2  -3   2  231.72    6.03
   1   3  -2  233.07    6.08
   1   3  -2  238.41    6.13
  -1  -3   2  233.03    6.13
  -1  -3   2  232.32    6.08
   0   3  -2   40.30    1.11
   0   3  -2   40.76    1.21
   0  -3   2   40.01    1.12
   0  -3   2   41.06    1.23
   0  -3   2   39.52    1.29
  -1   3  -2  114.41    3.05
  -1   3  -2  114.37    3.15
   1  -3   2  115.03    3.16
   1  -3   2  113.15    3.05
  -2   3  -2   58.43    1.80
   2  -3   2   53.88    1.58
   2  -3   2   56.77    1.80
  -3   3  -2  116.11    3.27
  -3   3  -2  114.62    2.98
   3  -3   2  113.36    2.97
   3  -3   2  111.98    3.18
  -4   3  -2    1.05    0.67
  -4   3  -2    0.85    0.21
   4  -3   2    0.91    0.26
   4  -3   2    1.18    0.48
   4  -3   2    1.12    0.19
  -5   3  -2  129.10    3.72
   5  -3   2  118.60    3.31
  -6   3  -2    2.80    0.98
  -6   3  -2    2.21    0.37
   6  -3   2    2.25    0.38
   6  -3   2    2.33    0.35
  -7   3  -2   40.78    1.47
  -7   3  -2   41.01    2.06
   7  -3   2   38.72    1.30
   7  -3   2   38.87    1.35
  -8   3  -2    2.66    1.21
  -8   3  -2    1.14    0.45
   8  -3   2    0.73    0.38
   8  -3   2    0.63    0.33
  -9   3  -2   30.32    2.46
   9  -3   2   36.16    1.39
 -10   3  -2   12.60    2.52
  10  -3   2    8.80    1.04
   9   2  -2    0.30    0.63
  -9  -2   2    2.48    1.35
   8   2  -2   -0.43    0.51
  -8  -2   2    0.53    0.87
   7   2  -2   75.01    2.45
  -7  -2   2   79.45    2.72
   6   2  -2  163.42    4.54
   6   2  -2  162.91    4.50
  -6  -2   2  163.19    4.69
   5   2  -2   15.86    0.88
   5   2  -2   15.96    0.85
  -5  -2   2   15.49    0.83
   4   2  -2    7.39    0.58
   4   2  -2    7.53    0.63
  -4  -2   2    7.81    0.58
   3   2  -2   49.52    1.48
  -3  -2   2   48.90    1.47
  -3  -2   2   48.76    1.47
   2   2  -2  632.43   16.42
   2   2  -2  642.89   16.50
  -2  -2   2  649.96   16.43
  -2  -2   2  628.78   16.42
  -2  -2   2  640.58   16.41
   1   2  -2  361.74    9.35
   1   2  -2  354.21    9.34
  -1  -2   2  365.76    9.35
  -1  -2   2  369.93    9.36
   0   2  -2    1.90    0.26
   0   2  -2    2.31    0.33
   0  -2   2    1.62    0.27
   0  -2   2    2.02    0.35
  -1   2  -2   21.03    0.93
  -1   2  -2   22.35    0.68
   1  -2   2   21.94    0.89
   1  -2   2   21.85    0.70
  -2   2  -2  828.95   20.64
  -2   2  -2  803.27   20.82
   2  -2   2  761.44   20.85
   2  -2   2  821.44   20.65
  -3   2  -2  244.64    6.82
  -3   2  -2  258.80    6.65
   3  -2   2  256.73    6.68
   3  -2   2  257.67    6.65
   3  -2   2  269.42    6.84
  -4   2  -2    0.96    0.44
  -4   2  -2    0.90    0.21
   4  -2   2    1.06    0.21
   4  -2   2    0.88    0.23
  -5   2  -2    2.41    0.58
  -5   2  -2    2.86    0.33
   5  -2   2    2.56    0.39
   5  -2   2    3.05    0.47
  -6   2  -2   15.89    1.30
  -6   2  -2   16.91    0.85
   6  -2   2   17.23    0.75
   6  -2   2   17.82    0.82
  -7   2  -2   46.52    2.11
  -7   2  -2   43.91    1.54
   7  -2   2   43.23    1.49
   7  -2   2   44.91    1.40
  -8   2  -2    4.89    1.27
   8  -2   2    5.56    0.60
   8  -2   2    6.57    0.77
  -9   2  -2    1.59    1.44
   9  -2   2    0.29    0.48
 -10   2  -2    3.29    2.02
  10  -2   2    0.05    0.55
   9   1  -2    2.09    0.64
  -9  -1   2    3.75    1.30
   8   1  -2    2.05    0.51
  -8  -1   2    3.08    1.04
   7   1  -2   86.41    2.73
   7   1  -2   98.11    2.90
  -7  -1   2   85.93    2.87
   6   1  -2   85.26    2.58
   6   1  -2   84.99    2.53
  -6  -1   2   86.45    2.73
  -6  -1   2   89.49    2.61
   5   1  -2    0.42    0.28
   5   1  -2    0.68    0.33
  -5  -1   2    0.07    0.30
  -5  -1   2    0.16    0.52
   4   1  -2    3.97    0.52
   4   1  -2    4.49    0.44
  -4  -1   2    3.77    0.52
  -4  -1   2    4.42    0.63
   3   1  -2  202.40    5.44
   3   1  -2  206.41    5.40
  -3  -1   2  211.01    5.47
   2   1  -2  463.01   11.83
   2   1  -2  446.96   11.77
  -2  -1   2  458.60   11.77
  -2  -1   2  459.49   11.78
   1   1  -2  137.81    3.58
  -1  -1   2  134.17    3.55
  -1  -1   2  141.81    3.59
   0   1  -2  161.89    4.20
   0   1  -2  158.60    4.21
   0   1  -2  161.01    4.20
   0  -1   2  166.68    4.20
   0  -1   2  165.90    4.21
  -1   1  -2    0.28    0.28
  -1   1  -2    0.10    0.11
  -1   1  -2   -0.04    0.18
   1  -1   2   -0.25    0.15
   1  -1   2   -0.04    0.11
  -2   1  -2  119.53    3.12
  -2   1  -2  120.07    3.25
  -2   1  -2  117.69    3.13
   2  -1   2  118.65    3.12
   2  -1   2  119.11    3.13
  -3   1  -2  336.98    8.69
  -3   1  -2  330.79    8.84
  -3   1  -2  341.15    8.69
   3  -1   2  345.43    8.69
   3  -1   2  327.21    8.68
  -4   1  -2   13.94    0.91
  -4   1  -2   13.74    0.61
  -4   1  -2   12.85    0.58
   4  -1   2   13.49    0.60
   4  -1   2   13.62    0.58
  -5   1  -2   44.61    1.38
  -5   1  -2   42.55    1.70
   5  -1   2   41.55    1.40
   5  -1   2   42.24    1.35
  -6   1  -2   56.59    2.18
  -6   1  -2   55.90    1.79
   6  -1   2   58.91    1.68
   6  -1   2   56.40    1.77
  -7   1  -2   46.50    1.63
  -7   1  -2   44.87    2.12
   7  -1   2   46.50    1.59
   7  -1   2   48.24    1.43
  -8   1  -2   19.45    1.68
   8  -1   2   16.30    0.80
   8  -1   2   18.42    1.06
  -9   1  -2   16.44    2.14
   9  -1   2   16.48    1.16
  10  -1   2    9.82    1.24
  10   0  -2    1.03    0.59
 -10   0   2    1.96    2.11
   9   0  -2   38.41    1.65
  -9   0   2   34.15    2.14
   8   0  -2    3.81    0.61
  -8   0   2    5.74    1.14
   7   0  -2   12.39    1.20
   7   0  -2   12.57    0.82
  -7   0   2   12.76    1.35
   6   0  -2   11.36    0.82
  -6   0   2    9.38    1.12
  -6   0   2   11.43    0.78
   5   0  -2   11.66    0.65
   5   0  -2   11.97    0.73
  -5   0   2   12.30    1.00
  -5   0   2   10.97    0.71
   4   0  -2   63.09    1.81
   4   0  -2   62.18    1.88
  -4   0   2   64.44    1.89
  -4   0   2   67.57    1.95
   3   0  -2    4.35    0.33
   3   0  -2    4.59    0.43
  -3   0   2    4.50    0.61
  -3   0   2    4.82    0.41
   2   0  -2  196.38    5.19
   2   0  -2  200.43    5.13
   1   0  -2   17.24    0.51
  -1   0   2   17.41    0.52
   0   0  -2  108.98    2.84
   0   0   2  108.59    2.84
  -1   0  -2  138.77    3.71
  -1   0  -2  143.86    3.72
   1   0   2  143.14    3.72
   1   0   2  144.47    3.73
  -2   0  -2   70.60    1.90
  -2   0  -2   69.43    1.90
   2   0   2   69.45    1.89
   2   0   2   68.86    1.89
  -3   0  -2   44.42    1.30
  -3   0  -2   45.77    1.33
   3   0   2   44.70    1.32
   3   0   2   45.79    1.30
  -4   0  -2   70.49    2.00
  -4   0  -2   69.00    1.96
   4   0   2   68.88    1.99
   4   0   2   71.45    1.95
  -5   0  -2   50.36    1.58
  -5   0  -2   49.38    1.51
   5   0   2   50.05    1.47
   5   0   2   49.07    1.56
   5   0   2   50.14    1.60
  -6   0  -2   10.39    0.69
  -6   0  -2    9.98    1.33
  -6   0  -2   11.07    0.77
   6   0   2   10.85    0.80
   6   0   2   10.24    0.63
   6   0   2    9.84    0.82
  -7   0  -2    8.88    1.44
   7   0   2   11.04    0.88
   7   0   2    8.84    0.61
  -8   0  -2   26.20    1.92
   8   0   2   27.15    1.33
   8   0   2   25.99    1.01
  -9   0  -2   25.99    2.05
   9   0   2   20.17    1.35
  10  -1  -2    7.58    1.10
 -10   1   2    7.66    2.20
   9  -1  -2   35.43    1.53
  -9   1   2   34.97    2.11
   8  -1  -2   14.13    1.01
  -8   1   2   16.00    1.61
   7  -1  -2    5.40    0.67
   7  -1  -2    4.23    0.53
  -7   1   2    4.80    1.07
   6  -1  -2   21.87    1.00
   6  -1  -2   21.97    0.91
  -6   1   2   21.60    1.49
  -6   1   2   21.03    1.00
   5  -1  -2   59.24    1.80
  -5   1   2   59.57    1.82
  -5   1   2   58.71    2.05
   4  -1  -2   51.91    1.58
   4  -1  -2   49.73    1.53
  -4   1   2   50.71    1.54
  -4   1   2   50.85    1.71
   3  -1  -2   12.38    0.58
   3  -1  -2   14.12    0.67
  -3   1   2   12.42    0.74
   2  -1  -2  254.99    6.53
   2  -1  -2  255.57    6.63
  -2   1   2  251.76    6.53
   1  -1  -2    5.54    0.38
  -1   1   2    5.79    0.31
   0  -1  -2    2.61    0.29
   0  -1  -2    2.97    0.33
   0  -1  -2    2.32    0.27
   0   1   2    3.36    0.27
   0   1   2    3.17    0.30
  -1  -1  -2   12.68    0.50
  -1  -1  -2   12.37    0.48
   1   1   2   12.66    0.47
   1   1   2   12.83    0.49
   1   1   2   12.31    0.48
  -2  -1  -2   52.99    1.52
  -2  -1  -2   56.02    1.54
   2   1   2   53.59    1.53
   2   1   2   53.52    1.51
   2   1   2   54.05    1.54
  -3  -1  -2    6.25    0.47
  -3  -1  -2    6.04    0.46
   3   1   2    6.25    0.42
   3   1   2    5.63    0.47
   3   1   2    6.36    0.52
  -4  -1  -2   16.68    0.76
  -4  -1  -2   16.84    0.75
   4   1   2   18.09    0.78
   4   1   2   17.28    0.82
  -5  -1  -2   11.77    0.71
  -5  -1  -2   11.68    0.75
   5   1   2   12.14    0.77
   5   1   2   11.98    0.61
   5   1   2   11.70    0.80
  -6  -1  -2    9.66    0.92
  -6  -1  -2    9.53    0.70
   6   1   2    9.25    0.58
   6   1   2    9.15    0.82
  -7  -1  -2    3.57    1.17
  -7  -1  -2    3.59    0.49
   7   1   2    3.92    0.55
   7   1   2    3.89    0.61
  -8  -1  -2   28.11    2.10
   8   1   2   29.29    1.44
  -9  -1  -2   32.94    2.45
   9   1   2   27.11    1.63
  10  -2  -2    6.65    1.05
 -10   2   2    8.21    2.14
   9  -2  -2   16.49    1.14
  -9   2   2   17.00    1.85
   8  -2  -2   18.12    1.06
   8  -2  -2   18.34    0.97
  -8   2   2   19.12    1.71
   7  -2  -2   54.58    1.79
  -7   2   2   54.70    1.85
  -7   2   2   55.84    2.25
   6  -2  -2   47.02    1.56
  -6   2   2   47.53    2.00
   5  -2  -2   30.88    1.41
   5  -2  -2   34.09    1.15
  -5   2   2   33.79    1.49
   4  -2  -2   97.96    2.58
   4  -2  -2   95.69    2.71
   4  -2  -2  100.58    2.83
  -4   2   2   97.61    2.88
   3  -2  -2  251.05    6.68
   3  -2  -2  269.69    6.80
   3  -2  -2  254.60    6.61
  -3   2   2  249.75    6.80
   2  -2  -2  199.22    5.01
   2  -2  -2  193.96    5.18
   2  -2  -2  188.49    5.02
  -2   2   2  192.27    5.02
   1  -2  -2   33.20    0.98
   1  -2  -2   33.61    0.95
  -1   2   2   32.12    0.95
  -1   2   2   33.01    0.97
   0  -2  -2    1.21    0.21
   0  -2  -2    1.37    0.18
   0  -2  -2    1.21    0.19
   0   2   2    1.77    0.29
   0   2   2    2.11    0.29
  -1  -2  -2  144.84    3.88
  -1  -2  -2  146.79    3.89
  -1  -2  -2  152.35    3.89
   1   2   2  144.06    3.88
   1   2   2  148.15    3.88
   1   2   2  147.41    3.89
  -2  -2  -2  338.63    8.31
  -2  -2  -2  322.05    8.29
   2   2   2  315.41    8.30
   2   2   2  315.60    8.30
   2   2   2  306.72    8.39
  -3  -2  -2   16.79    0.73
  -3  -2  -2   16.91    0.73
   3   2   2   16.30    0.74
   3   2   2   16.84    0.78
   3   2   2   16.97    0.67
  -4  -2  -2   27.82    1.03
   4   2   2   26.66    1.06
   4   2   2   25.49    1.06
   4   2   2   26.17    0.92
  -5  -2  -2   30.60    1.22
  -5  -2  -2   30.33    1.15
   5   2   2   30.32    1.05
   5   2   2   29.85    1.23
  -6  -2  -2   39.63    1.37
   6   2   2   38.69    1.33
   6   2   2   39.34    1.51
  -7  -2  -2   27.25    1.15
   7   2   2   25.95    1.39
   7   2   2   24.79    1.01
  -8  -2  -2    0.86    0.55
  -8  -2  -2   -0.58    1.35
   8   2   2    0.98    0.61
  10  -3  -2    0.70    0.55
 -10   3   2    2.25    1.92
   9  -3  -2    0.93    0.57
  -9   3   2    1.65    1.59
   8  -3  -2   17.26    1.21
  -8   3   2   18.99    1.60
   7  -3  -2   16.70    1.26
   7  -3  -2   18.54    0.98
  -7   3   2   18.13    1.55
   6  -3  -2   18.71    1.11
   6  -3  -2   20.47    0.94
  -6   3   2   19.30    1.47
   5  -3  -2    1.33    0.23
   5  -3  -2    1.49    0.59
   5  -3  -2    1.18    0.33
  -5   3   2    1.71    0.76
   4  -3  -2   13.94    0.56
   4  -3  -2   13.60    0.67
   4  -3  -2   14.52    0.58
  -4   3   2   15.71    1.07
   3  -3  -2  441.83   11.67
   3  -3  -2  463.97   11.88
   3  -3  -2  454.68   11.67
   2  -3  -2  268.99    7.12
   2  -3  -2  270.81    7.13
  -2   3   2  281.58    7.11
  -2   3   2  278.18    7.13
   1  -3  -2    0.63    0.20
   1  -3  -2    0.43    0.16
   1  -3  -2    0.62    0.20
  -1   3   2    0.63    0.19
  -1   3   2    0.64    0.20
   0  -3  -2    1.51    0.25
   0  -3  -2    1.84    0.27
   0  -3  -2    2.01    0.32
   0   3   2    1.69    0.23
   0   3   2    1.48    0.39
  -1  -3  -2  172.64    4.56
  -1  -3  -2  174.33    4.53
  -1  -3  -2  169.89    4.54
   1   3   2  166.02    4.62
   1   3   2  171.73    4.54
   1   3   2  175.10    4.53
  -2  -3  -2  373.36    9.96
  -2  -3  -2  379.71    9.99
  -2  -3  -2  394.41   10.02
   2   3   2  378.61    9.98
   2   3   2  389.81   10.00
   2   3   2  386.97    9.95
  -3  -3  -2   30.69    1.10
  -3  -3  -2   30.23    1.10
   3   3   2   30.06    1.13
   3   3   2   30.76    1.03
   3   3   2   31.37    1.17
  -4  -3  -2    0.45    0.34
  -4  -3  -2    1.07    0.42
   4   3   2    0.61    0.37
   4   3   2    0.82    0.30
   4   3   2    0.60    0.39
   5   3   2   42.87    1.40
   5   3   2   45.13    1.60
  -6  -3  -2  117.28    3.38
   6   3   2  120.71    3.33
   6   3   2  120.48    3.53
  -7  -3  -2   21.54    1.16
   7   3   2   21.10    1.26
   7   3   2   21.66    1.38
   8   3   2    0.91    0.71
  10  -4  -2   15.03    1.21
 -10   4   2   15.55    2.15
   9  -4  -2   22.49    1.19
  -9   4   2   19.62    1.97
   8  -4  -2   11.61    0.88
   8  -4  -2    7.82    1.27
  -8   4   2    9.57    1.93
   7  -4  -2   12.85    1.11
   7  -4  -2   13.82    0.87
   7  -4  -2   13.64    0.62
  -7   4   2   12.78    1.52
   6  -4  -2   13.37    0.63
   6  -4  -2   14.54    0.84
   6  -4  -2   13.21    0.72
   6  -4  -2   13.54    1.17
  -6   4   2   12.68    1.43
   5  -4  -2   30.80    1.11
   5  -4  -2   29.48    1.49
   5  -4  -2   30.32    0.99
   5  -4  -2   31.46    1.05
  -5   4   2   29.04    1.61
   4  -4  -2    5.11    0.94
   4  -4  -2    5.44    0.47
   4  -4  -2    4.81    0.55
   4  -4  -2    5.61    0.48
   3  -4  -2  163.19    4.63
   3  -4  -2  161.13    4.35
   3  -4  -2  163.36    4.36
  -3   4   2  169.77    4.33
   2  -4  -2   28.69    0.98
   2  -4  -2   29.72    1.01
  -2   4   2   30.70    0.99
  -2   4   2   30.35    0.97
   1  -4  -2   16.22    0.72
   1  -4  -2   15.53    0.61
   1  -4  -2   16.19    0.70
  -1   4   2   16.13    0.66
  -1   4   2   15.90    0.70
   0  -4  -2    5.84    0.58
   0  -4  -2    5.90    0.45
   0  -4  -2    5.75    0.52
   0   4   2    5.49    0.84
   0   4   2    6.06    0.48
  -1  -4  -2  148.82    4.10
  -1  -4  -2  152.78    4.05
  -1  -4  -2  149.41    4.08
   1   4   2  150.65    4.07
   1   4   2  153.70    4.10
   1   4   2  153.58    4.06
  -2  -4  -2  133.95    3.66
  -2  -4  -2  133.44    3.72
  -2  -4  -2  132.60    3.67
   2   4   2  131.53    3.67
   2   4   2  135.36    3.70
   2   4   2  137.78    3.64
  -3  -4  -2    0.49    0.36
  -3  -4  -2    1.00    0.43
   3   4   2    0.57    0.39
   3   4   2    0.33    0.37
   3   4   2    0.59    0.33
  -4  -4  -2    0.18    0.46
  -4  -4  -2   -0.53    0.63
   4   4   2   -0.11    0.48
   4   4   2    0.13    0.43
   4   4   2    0.38    0.32
  -5  -4  -2   37.35    1.44
   5   4   2   37.38    1.52
   5   4   2   35.36    1.27
  -6  -4  -2   58.61    1.97
   6   4   2   54.13    1.79
   6   4   2   59.95    2.10
  -7  -4  -2   10.53    1.12
   7   4   2    9.57    1.31
  10  -5  -2   24.29    1.31
  10  -5  -2   22.55    1.40
 -10   5   2   22.51    2.35
   9  -5  -2   28.91    1.30
   9  -5  -2   29.69    1.28
  -9   5   2   27.92    2.24
   8  -5  -2    0.71    0.39
   8  -5  -2   -0.09    0.31
   8  -5  -2    0.32    0.44
   7  -5  -2    0.19    0.33
   7  -5  -2    0.28    0.32
   7  -5  -2    0.68    0.67
   7  -5  -2    0.68    0.41
  -7   5   2    1.09    1.01
   6  -5  -2   95.12    3.21
   6  -5  -2   99.94    2.82
   6  -5  -2  101.71    2.75
   6  -5  -2  100.84    2.81
   5  -5  -2  106.88    2.96
   5  -5  -2  106.46    3.00
   5  -5  -2  106.45    3.38
   5  -5  -2  110.02    3.00
   4  -5  -2    8.29    0.66
   4  -5  -2    7.71    0.60
   4  -5  -2    7.19    1.13
   3  -5  -2   20.93    0.92
   3  -5  -2   20.72    1.32
   3  -5  -2   21.24    0.86
  -3   5   2   21.38    0.94
   2  -5  -2   10.71    0.66
   2  -5  -2    8.26    0.80
   2  -5  -2   10.82    0.71
  -2   5   2   10.54    0.60
   1  -5  -2   98.77    2.69
   1  -5  -2   97.27    2.76
   1  -5  -2   96.79    2.75
  -1   5   2   97.55    2.73
  -1   5   2   99.65    2.76
   0  -5  -2   10.74    0.71
   0  -5  -2   10.13    0.61
   0  -5  -2   10.63    0.81
   0   5   2   10.60    0.64
   0   5   2   10.13    0.73
  -1  -5  -2   15.22    0.76
  -1  -5  -2   15.13    0.87
  -1  -5  -2   14.80    0.98
   1   5   2   15.65    0.87
   1   5   2   15.98    0.75
   1   5   2   15.49    0.84
  -2  -5  -2    5.48    0.90
  -2  -5  -2    4.67    0.59
  -2  -5  -2    4.05    0.61
   2   5   2    3.46    0.45
   2   5   2    3.66    0.47
   2   5   2    5.04    0.59
  -3  -5  -2    4.41    0.60
  -3  -5  -2    4.13    0.48
  -3  -5  -2    4.36    0.56
   3   5   2    5.15    0.79
   3   5   2    5.12    0.61
   3   5   2    5.21    0.80
  -4  -5  -2    7.65    0.89
   4   5   2    7.51    0.68
   4   5   2    8.92    0.93
  -5  -5  -2    4.93    0.72
   5   5   2    6.80    1.00
  -6  -5  -2   13.99    1.26
   6   5   2   16.97    1.32
  10  -6  -2   35.42    1.55
  10  -6  -2   34.52    1.52
 -10   6   2   30.93    2.63
   9  -6  -2   14.02    0.82
   9  -6  -2   14.22    1.02
   9  -6  -2   15.88    1.06
  -9   6   2   14.49    2.26
   8  -6  -2   -0.02    0.44
   8  -6  -2   -0.21    0.41
   8  -6  -2   -0.18    0.37
   7  -6  -2   11.81    0.87
   7  -6  -2   12.81    0.76
   7  -6  -2   12.80    0.85
   6  -6  -2   84.82    2.47
   6  -6  -2   86.93    2.51
   6  -6  -2   83.84    2.99
   6  -6  -2   83.80    2.44
   5  -6  -2  110.99    3.08
   5  -6  -2  117.03    3.15
   5  -6  -2  112.52    3.07
   5  -6  -2   99.78    3.61
   4  -6  -2    9.46    1.29
   4  -6  -2   11.70    0.88
   4  -6  -2   10.89    0.76
   3  -6  -2    1.33    0.40
   3  -6  -2    0.91    0.26
   3  -6  -2    1.64    0.79
   3  -6  -2    1.34    0.43
  -3   6   2    0.76    0.32
   2  -6  -2   29.64    1.16
   2  -6  -2   30.40    1.25
   2  -6  -2   27.87    0.99
  -2   6   2   29.54    1.14
   1  -6  -2  159.94    4.46
   1  -6  -2  158.99    4.43
   1  -6  -2  165.53    4.34
  -1   6   2  166.20    4.45
  -1   6   2  160.80    4.40
   0  -6  -2   40.65    1.54
   0  -6  -2   42.62    1.54
   0  -6  -2   38.50    1.36
   0   6   2   40.71    1.46
   0   6   2   40.25    1.39
  -1  -6  -2    6.53    0.98
  -1  -6  -2    6.20    0.66
  -1  -6  -2    6.68    0.85
   1   6   2    6.16    0.66
   1   6   2    6.23    0.77
   1   6   2    7.03    0.80
  -2  -6  -2   20.31    1.14
  -2  -6  -2   20.26    1.23
  -2  -6  -2   19.22    0.97
   2   6   2   18.94    1.10
   2   6   2   21.91    1.18
   2   6   2   21.32    1.09
  -3  -6  -2   24.63    1.28
  -3  -6  -2   23.66    1.42
   3   6   2   24.02    1.24
  -4  -6  -2    7.94    1.02
   4   6   2    7.78    1.10
  -5  -6  -2    0.90    0.73
   5   6   2    1.43    0.66
  -6  -6  -2    2.58    0.89
   6   6   2    0.48    1.03
  10  -7  -2   14.31    1.14
  10  -7  -2    9.39    1.21
   9  -7  -2    1.04    0.49
   9  -7  -2    1.30    0.53
   8  -7  -2    1.20    0.52
   8  -7  -2    1.02    0.46
   8  -7  -2   -0.14    0.45
   7  -7  -2    7.09    0.88
   7  -7  -2    6.19    0.79
   7  -7  -2    7.58    0.80
   6  -7  -2   46.24    1.55
   6  -7  -2   46.44    1.59
   6  -7  -2   47.38    1.69
   5  -7  -2   30.35    1.23
   5  -7  -2   33.43    2.20
   5  -7  -2   29.92    1.17
   5  -7  -2   30.09    1.32
   4  -7  -2   17.06    1.58
   4  -7  -2   17.24    0.74
   4  -7  -2   18.50    0.99
   4  -7  -2   17.18    1.08
  -4   7   2   16.63    0.87
   3  -7  -2   44.40    1.62
   3  -7  -2   44.03    1.56
   3  -7  -2   40.07    2.02
   3  -7  -2   43.68    1.35
  -3   7   2   45.44    1.50
   2  -7  -2   24.80    1.18
   2  -7  -2   23.82    1.24
   2  -7  -2   25.06    0.94
  -2   7   2   24.51    1.11
   1  -7  -2   26.39    1.29
   1  -7  -2   25.48    1.20
   1  -7  -2   25.77    0.99
  -1   7   2   25.44    1.16
   0  -7  -2   42.78    1.46
   0  -7  -2   46.65    1.72
   0   7   2   44.93    1.62
  -1  -7  -2   17.52    0.93
  -1  -7  -2   18.79    1.30
  -1  -7  -2   18.56    1.16
   1   7   2   17.92    1.67
   1   7   2   19.30    1.07
  -2  -7  -2   28.44    1.48
  -2  -7  -2   29.65    1.57
   2   7   2   29.13    1.35
  -3  -7  -2   12.63    1.19
  -3  -7  -2   14.53    1.43
   3   7   2   13.25    1.18
  -4  -7  -2   17.56    1.35
   4   7   2   17.26    1.37
  -5  -7  -2   10.41    1.48
   5   7   2   10.65    1.46
   9  -8  -2    1.17    0.63
   9  -8  -2    0.16    0.55
   9  -8  -2   -0.07    0.57
   8  -8  -2    0.32    0.45
   8  -8  -2    0.83    0.57
   8  -8  -2    0.11    0.54
   7  -8  -2    0.72    0.54
   7  -8  -2    0.72    0.45
   7  -8  -2    0.81    0.62
   6  -8  -2    2.05    0.46
   6  -8  -2    1.31    0.56
   6  -8  -2    1.70    0.54
   5  -8  -2    4.66    0.53
   5  -8  -2    3.16    0.62
   5  -8  -2    3.03    0.60
   4  -8  -2    0.11    0.28
   4  -8  -2    0.26    0.52
   4  -8  -2    0.17    0.54
  -4   8   2    0.02    0.37
   3  -8  -2    3.23    0.61
   3  -8  -2    3.65    0.63
   3  -8  -2    4.15    0.55
  -3   8   2    5.04    0.77
   2  -8  -2    0.40    0.56
   2  -8  -2    1.39    0.36
   2  -8  -2    1.47    0.60
  -2   8   2    1.00    0.45
   1  -8  -2    0.55    0.37
   1  -8  -2    0.93    0.61
   1  -8  -2    1.74    0.60
  -1   8   2    0.38    0.52
   0  -8  -2   14.95    0.88
   0  -8  -2   15.65    1.19
   0  -8  -2   16.09    1.33
  -1  -8  -2   23.87    1.54
  -1  -8  -2   24.20    1.43
  -2  -8  -2    5.75    0.89
  -2  -8  -2    5.74    0.85
   2   8   2    5.42    0.71
  -3  -8  -2    3.34    0.78
  -3  -8  -2    3.40    0.85
   3   8   2    3.17    0.72
  -4  -8  -2    5.52    0.95
   4   8   2    4.70    0.89
   8  -9  -2    5.30    0.97
   7  -9  -2    5.76    0.79
   7  -9  -2    6.53    1.05
   7  -9  -2    7.24    0.82
   6  -9  -2    8.40    0.86
   5  -9  -2    9.75    1.12
   5  -9  -2    8.94    1.22
   5  -9  -2    7.91    0.75
   4  -9  -2   -0.04    0.65
   4  -9  -2    1.07    0.66
   4  -9  -2    0.34    0.32
  -4   9   2    0.76    0.49
   3  -9  -2    1.50    0.36
   3  -9  -2    0.90    0.73
   3  -9  -2    2.06    0.72
   2  -9  -2   11.31    0.80
   2  -9  -2   15.23    1.26
   2  -9  -2   15.44    1.37
   1  -9  -2    3.92    0.79
   1  -9  -2    2.52    0.47
   1  -9  -2    2.83    0.74
   0  -9  -2    0.25    0.71
   0  -9  -2    0.76    0.74
  -1  -9  -2    0.62    0.78
  -1  -9  -2    1.92    0.80
  -2  -9  -2    0.49    0.85
  -2  -9  -2    0.18    0.80
   7 -10  -2   14.17    1.51
   7 -10  -2   16.74    1.36
   6 -10  -2   20.41    1.62
   6 -10  -2   21.60    1.43
   5 -10  -2    5.48    0.88
   5 -10  -2    7.83    1.24
   4 -10  -2    0.79    0.86
   4 -10  -2    0.50    0.76
   3 -10  -2    8.05    1.32
   3 -10  -2    8.56    1.46
   2 -10  -2   33.89    1.86
   2 -10  -2   35.90    1.80
   1 -10  -2   20.43    1.63
   1 -10  -2   21.58    1.78
   0 -10  -2   -0.48    0.90
   0 -10  -2    0.52    0.82
  -1 -10  -2   -1.54    1.02
  -1 -10  -2    1.79    0.92
   5 -11  -2    0.19    0.94
   5 -11  -2    1.46    0.89
   4 -11  -2    1.60    0.95
   4 -11  -2    0.29    0.91
   3 -11  -2    5.90    1.04
   3 -11  -2   10.67    1.66
   2 -11  -2   14.31    1.81
   1 -12   3    8.75    1.20
   1 -12   3    6.63    1.49
   2 -12   3    7.08    1.09
   2 -12   3   10.53    1.62
   3 -12   3    5.81    1.15
   3 -12   3    8.92    1.15
   4 -12   3    7.44    1.11
   4 -12   3    6.85    1.05
   5 -12   3   10.53    1.54
   5 -12   3    6.19    1.03
   6 -12   3    2.78    0.97
   6 -12   3    5.50    1.01
   2  11  -3   -0.79    0.67
   1  11  -3    3.16    0.75
  -1 -11   3    2.24    0.94
  -1 -11   3    1.33    1.03
   0  11  -3    0.76    0.53
   0 -11   3    0.59    0.85
   0 -11   3    0.22    0.95
   1 -11   3    0.92    0.83
   1 -11   3   -0.07    0.84
   2 -11   3    3.07    0.86
   2 -11   3    4.07    0.88
   3 -11   3   16.89    1.48
   3 -11   3   13.88    1.43
   4 -11   3   14.04    1.44
   4 -11   3   13.67    1.41
   5 -11   3    1.94    0.76
   5 -11   3    2.40    0.78
   6 -11   3    3.36    0.81
   6 -11   3    6.21    0.93
   7 -11   3   22.96    1.68
   7 -11   3   24.43    1.56
   8 -11   3   13.91    1.45
   8 -11   3    9.73    1.55
   3  10  -3    3.93    0.77
  -3 -10   3    3.46    1.04
  -3 -10   3    2.24    0.92
   2  10  -3    1.38    0.60
  -2 -10   3    0.63    0.83
  -2 -10   3    1.17    0.90
   1  10  -3   -0.19    0.48
  -1 -10   3   -0.88    0.74
  -1 -10   3   -0.17    0.46
  -1 -10   3   -0.15    0.81
   0  10  -3    4.57    0.52
   0 -10   3    4.07    0.89
   0 -10   3    4.49    0.80
   0 -10   3    4.74    0.67
   1 -10   3   10.75    1.24
   1 -10   3    9.27    1.44
   1 -10   3   10.05    0.63
   2 -10   3   -0.59    0.67
   2 -10   3    0.19    0.73
   3 -10   3   13.63    1.31
   3 -10   3   12.89    1.25
   4 -10   3    1.04    0.71
   4 -10   3   -0.28    0.63
   5 -10   3    7.83    1.22
   5 -10   3    8.67    1.24
   6 -10   3    1.44    0.69
   6 -10   3    0.73    0.66
   7 -10   3    9.54    1.33
   8 -10   3   11.40    1.34
   9 -10   3    1.30    0.74
   4   9  -3   35.92    1.75
  -4  -9   3   33.48    2.16
  -4  -9   3   37.01    1.78
   3   9  -3   20.63    1.30
  -3  -9   3   22.30    1.80
  -3  -9   3   21.95    1.38
   2   9  -3   -0.52    0.47
  -2  -9   3    0.61    0.65
  -2  -9   3    0.35    0.42
  -2  -9   3   -0.06    0.74
   1   9  -3    2.21    0.46
  -1  -9   3    3.48    0.71
  -1  -9   3    2.53    0.72
  -1  -9   3    2.29    0.43
   0   9  -3   68.80    2.03
   0  -9   3   70.44    2.50
   0  -9   3   68.36    2.02
   0  -9   3   70.08    2.30
   1  -9   3   80.57    2.72
   1  -9   3   79.06    2.63
   1  -9   3   81.99    3.09
   2  -9   3    1.88    0.89
   2  -9   3    1.96    0.71
   3  -9   3    3.44    0.69
   4  -9   3   24.07    1.40
   5  -9   3   48.96    1.88
   6  -9   3    3.72    0.63
  -7   9  -3    5.19    1.57
   7  -9   3    4.54    0.69
  -8   9  -3   -1.99    1.53
   8  -9   3    0.84    0.59
  -9   9  -3   10.94    1.78
   9  -9   3   10.55    1.31
   5   8  -3    6.78    0.85
  -5  -8   3    6.20    0.94
   4   8  -3   40.52    1.68
  -4  -8   3   39.46    1.63
  -4  -8   3   41.65    2.00
   3   8  -3   12.01    0.98
  -3  -8   3   10.85    1.41
  -3  -8   3   10.00    1.01
   2   8  -3    0.36    0.42
  -2  -8   3    0.15    0.51
  -2  -8   3    0.14    0.38
  -2  -8   3   -0.05    0.66
   1   8  -3   14.41    0.83
  -1  -8   3   14.00    1.29
  -1  -8   3   12.80    0.77
  -1  -8   3   14.84    1.00
   0   8  -3  103.79    2.88
   0  -8   3  104.73    3.24
   0  -8   3  107.52    3.08
   0  -8   3  102.81    3.38
   0  -8   3  105.93    2.88
  -1   8  -3  157.05    4.24
   1  -8   3  160.87    4.45
   1  -8   3  160.51    4.54
   1  -8   3  159.84    4.74
  -2   8  -3    0.67    0.39
   2  -8   3    0.78    0.50
   2  -8   3    1.54    0.93
   2  -8   3    0.59    0.52
  -3   8  -3    1.27    0.42
   3  -8   3    2.77    0.94
   3  -8   3    1.49    0.52
  -4   8  -3   95.78    2.84
   4  -8   3   97.36    2.90
   4  -8   3   94.03    3.22
  -5   8  -3  102.12    3.83
   5  -8   3   95.24    2.95
  -6   8  -3   13.29    1.72
   6  -8   3   13.01    1.03
  -7   8  -3    0.54    1.32
   7  -8   3    0.15    0.50
  -8   8  -3   15.87    2.21
   8  -8   3   16.86    1.25
  -9   8  -3   27.56    2.58
   9  -8   3   30.00    1.55
  10  -8   3    4.85    0.82
   6   7  -3    4.46    0.80
   5   7  -3    3.63    0.66
  -5  -7   3    4.81    0.61
  -5  -7   3    5.68    0.79
   4   7  -3   30.48    1.38
  -4  -7   3   30.37    1.27
  -4  -7   3   30.86    1.67
   3   7  -3    0.75    0.43
  -3  -7   3    0.05    0.39
  -3  -7   3    0.12    0.59
  -3  -7   3    0.22    0.46
   2   7  -3   12.03    0.80
   2   7  -3   11.60    1.00
  -2  -7   3   13.02    0.78
  -2  -7   3   11.35    1.16
  -2  -7   3   12.31    0.87
   1   7  -3   11.76    0.88
   1   7  -3    8.62    0.68
  -1  -7   3   10.94    1.46
  -1  -7   3    9.74    0.84
  -1  -7   3    9.28    0.68
   0   7  -3  116.76    3.20
   0   7  -3  120.57    3.41
   0  -7   3  120.12    3.21
   0  -7   3  119.40    3.49
   0  -7   3  119.43    3.37
  -1   7  -3   48.95    1.70
   1  -7   3   50.20    1.98
   1  -7   3   52.69    1.79
  -2   7  -3    2.17    0.38
   2  -7   3    2.02    0.46
   2  -7   3    3.20    0.83
  -3   7  -3    0.54    0.33
   3  -7   3    0.57    0.42
   3  -7   3    0.20    0.79
  -4   7  -3   86.10    3.01
   4  -7   3   84.58    2.92
   4  -7   3   88.49    2.59
  -5   7  -3   83.59    2.99
   5  -7   3   79.04    2.87
   5  -7   3   84.93    2.51
  -6   7  -3   12.06    2.19
   6  -7   3   11.17    0.91
  -7   7  -3    1.05    1.27
   7  -7   3    0.43    0.46
  -8   7  -3   30.04    2.29
   8  -7   3   27.95    1.01
   8  -7   3   30.55    1.43
  -9   7  -3   18.59    2.22
   9  -7   3   20.52    0.92
   9  -7   3   23.07    1.38
 -10   7  -3    9.80    2.02
  10  -7   3   10.25    1.34
   7   6  -3   22.52    1.82
   6   6  -3   18.17    1.32
  -6  -6   3   18.90    0.98
   5   6  -3    1.08    0.50
  -5  -6   3    1.97    0.45
  -5  -6   3    1.29    0.65
   4   6  -3    1.00    0.49
  -4  -6   3    0.42    0.39
  -4  -6   3    0.24    0.57
  -4  -6   3    0.08    0.73
   3   6  -3   48.16    1.73
   3   6  -3   49.34    1.65
  -3  -6   3   51.22    1.88
  -3  -6   3   52.04    1.59
  -3  -6   3   47.40    1.61
   2   6  -3  106.24    3.00
   2   6  -3  109.32    3.14
  -2  -6   3  104.17    3.17
  -2  -6   3  110.37    3.01
  -2  -6   3  107.43    3.00
   1   6  -3    1.03    0.35
   1   6  -3    0.67    0.28
  -1  -6   3    0.67    0.37
  -1  -6   3    1.24    0.45
  -1  -6   3    0.36    0.27
   0   6  -3   35.69    1.28
   0   6  -3   35.49    1.09
   0  -6   3   36.58    1.38
   0  -6   3   36.95    1.49
   0  -6   3   34.98    1.09
  -1   6  -3    2.33    0.35
   1  -6   3    2.00    0.42
   1  -6   3    3.30    0.77
  -2   6  -3   11.67    0.70
   2  -6   3   12.54    1.11
   2  -6   3   11.51    0.76
  -3   6  -3    0.39    0.28
  -3   6  -3    0.64    0.70
   3  -6   3    0.55    0.29
   3  -6   3    0.27    0.64
  -4   6  -3   11.82    1.33
   4  -6   3   12.92    0.77
   4  -6   3   11.58    1.22
  -5   6  -3    3.81    1.10
   5  -6   3    2.84    0.82
   5  -6   3    2.99    0.43
  -6   6  -3    0.49    0.24
  -6   6  -3    0.27    1.01
   6  -6   3    0.98    0.62
   6  -6   3   -0.24    0.38
  -7   6  -3   15.52    0.73
  -7   6  -3   14.78    1.74
   7  -6   3   14.75    0.88
   7  -6   3   16.14    0.99
   7  -6   3   15.94    0.69
  -8   6  -3    5.61    0.71
  -8   6  -3    6.95    1.71
   8  -6   3    7.55    0.76
   8  -6   3    6.82    0.63
   8  -6   3    7.11    0.96
  -9   6  -3    6.79    1.93
  -9   6  -3    2.39    0.80
   9  -6   3    3.99    0.66
   9  -6   3    4.60    0.69
 -10   6  -3    7.60    2.68
  10  -6   3    7.49    0.89
  10  -6   3    7.69    1.26
   7   5  -3   46.44    1.90
   6   5  -3   21.10    1.26
   5   5  -3    7.62    0.87
  -5  -5   3    8.76    1.05
  -5  -5   3    7.91    0.59
   4   5  -3   24.09    1.09
   4   5  -3   22.41    1.08
  -4  -5   3   23.92    1.26
  -4  -5   3   24.06    0.90
  -4  -5   3   21.90    1.04
   3   5  -3   63.01    1.95
   3   5  -3   63.07    1.99
  -3  -5   3   64.65    2.08
  -3  -5   3   65.30    1.85
  -3  -5   3   61.95    1.93
   2   5  -3   91.09    2.59
   2   5  -3   94.52    2.67
  -2  -5   3   94.12    2.73
  -2  -5   3   90.84    2.63
  -2  -5   3   91.68    2.59
   1   5  -3   41.73    1.35
   1   5  -3   39.35    1.22
  -1  -5   3   39.78    1.27
  -1  -5   3   40.67    1.41
  -1  -5   3   40.49    1.23
   0   5  -3   13.14    0.52
   0   5  -3   13.46    0.71
   0  -5   3   13.52    0.79
   0  -5   3   13.56    0.63
   0  -5   3   13.43    0.87
  -1   5  -3   77.72    2.26
   1  -5   3   80.38    2.45
   1  -5   3   78.18    2.29
  -2   5  -3   36.45    1.19
  -2   5  -3   36.32    1.43
   2  -5   3   34.72    1.19
   2  -5   3   36.77    1.48
  -3   5  -3   76.03    2.42
   3  -5   3   76.37    2.42
   3  -5   3   71.42    2.13
  -4   5  -3   39.67    1.66
   4  -5   3   36.06    1.56
   4  -5   3   35.11    1.24
  -5   5  -3   17.46    0.75
  -5   5  -3   20.30    1.54
   5  -5   3   17.11    0.86
   5  -5   3   15.47    1.14
   5  -5   3   16.53    0.61
  -6   5  -3   11.89    1.64
   6  -5   3   10.78    0.82
   6  -5   3   11.36    0.59
   6  -5   3   12.63    1.24
   6  -5   3   11.17    0.78
  -7   5  -3    0.71    2.06
  -7   5  -3    1.10    0.36
   7  -5   3    1.08    0.31
   7  -5   3    1.69    0.39
  -8   5  -3    5.71    1.64
  -8   5  -3    5.99    0.76
   8  -5   3    6.39    0.68
   8  -5   3    5.99    0.72
  -9   5  -3    7.87    1.90
   9  -5   3    6.88    0.85
   9  -5   3    7.01    0.78
 -10   5  -3    3.64    2.21
   8   4  -3    3.82    0.79
  -8  -4   3    4.85    1.28
   7   4  -3   20.30    1.27
  -7  -4   3   18.75    1.78
   6   4  -3    5.05    0.63
   5   4  -3    5.09    0.78
   5   4  -3    4.87    0.71
  -5  -4   3    5.70    0.75
   4   4  -3   52.65    1.69
   4   4  -3   49.71    1.64
  -4  -4   3   48.61    1.72
  -4  -4   3   50.51    1.45
  -4  -4   3   50.37    1.66
   3   4  -3   92.35    2.63
   3   4  -3   90.89    2.62
  -3  -4   3   93.46    2.51
  -3  -4   3   90.51    2.67
  -3  -4   3   93.38    2.62
   2   4  -3   58.85    1.75
   2   4  -3   58.60    1.71
  -2  -4   3   58.09    1.79
  -2  -4   3   58.73    1.71
  -2  -4   3   57.68    1.65
   1   4  -3  156.27    4.24
   1   4  -3  156.77    4.14
  -1  -4   3  156.54    4.23
  -1  -4   3  158.57    4.16
   0   4  -3  152.12    3.90
   0   4  -3  150.77    4.00
   0  -4   3  145.86    3.90
   0  -4   3  151.51    4.02
   0  -4   3  146.37    4.06
  -1   4  -3   56.30    1.66
  -1   4  -3   56.74    1.79
   1  -4   3   57.85    1.83
   1  -4   3   57.42    1.67
  -2   4  -3   30.13    1.23
  -2   4  -3   30.07    0.98
   2  -4   3   29.72    0.99
   2  -4   3   30.92    1.27
  -3   4  -3  106.26    3.02
   3  -4   3   95.88    2.94
   3  -4   3   98.12    2.75
  -4   4  -3  205.54    5.48
  -4   4  -3  196.25    5.08
   4  -4   3  196.20    5.06
   4  -4   3  189.09    5.38
   4  -4   3  189.26    5.18
  -5   4  -3   78.20    2.20
  -5   4  -3   83.68    2.78
   5  -4   3   79.56    2.18
   5  -4   3   79.08    2.29
   5  -4   3   77.76    2.61
  -6   4  -3    0.86    1.18
  -6   4  -3    1.09    0.32
   6  -4   3    1.78    0.31
   6  -4   3    1.70    0.37
  -7   4  -3    6.49    0.68
  -7   4  -3    9.97    1.75
   7  -4   3    7.02    0.62
   7  -4   3    6.38    0.65
  -8   4  -3   48.45    1.66
  -8   4  -3   45.42    2.52
   8  -4   3   48.90    1.58
   8  -4   3   47.39    1.56
  -9   4  -3   34.00    2.61
   9  -4   3   34.97    1.29
   9  -4   3   36.13    1.39
 -10   4  -3    0.89    2.09
  10  -4   3    0.17    0.54
   8   3  -3   -0.05    0.50
  -8  -3   3    0.97    1.17
   7   3  -3    0.21    0.49
  -7  -3   3    0.47    0.83
   6   3  -3   -0.28    0.38
   6   3  -3   -0.03    0.45
  -6  -3   3   -0.48    0.74
   5   3  -3    8.45    0.81
   5   3  -3    8.78    0.76
  -5  -3   3    8.79    0.80
   4   3  -3   27.67    1.05
   4   3  -3   26.73    1.09
  -4  -3   3   26.88    1.27
  -4  -3   3   25.97    1.10
   3   3  -3   11.48    0.60
   3   3  -3   10.16    0.65
  -3  -3   3   10.01    0.64
  -3  -3   3   11.54    0.46
  -3  -3   3    9.94    0.68
   2   3  -3   11.39    0.58
   2   3  -3   11.62    0.57
  -2  -3   3   11.56    0.61
  -2  -3   3   11.61    0.58
   1   3  -3  129.81    3.49
   1   3  -3  133.80    3.52
  -1  -3   3  127.24    3.49
  -1  -3   3  136.49    3.54
   0   3  -3  155.73    4.13
   0   3  -3  147.11    4.11
   0  -3   3  162.59    4.14
   0  -3   3  159.02    4.17
  -1   3  -3   16.47    0.79
  -1   3  -3   17.12    0.62
   1  -3   3   16.48    0.85
   1  -3   3   17.18    0.62
  -2   3  -3   25.69    0.72
  -2   3  -3   26.28    1.07
   2  -3   3   25.71    0.96
   2  -3   3   23.91    0.82
  -3   3  -3  164.28    4.31
  -3   3  -3  176.67    4.60
   3  -3   3  159.50    4.38
   3  -3   3  162.58    4.30
  -4   3  -3  476.77   12.37
  -4   3  -3  475.48   12.10
   4  -3   3  465.40   12.08
   4  -3   3  461.87   12.14
  -5   3  -3   50.41    1.99
  -5   3  -3   48.02    1.47
   5  -3   3   49.03    1.45
   5  -3   3   49.17    1.50
  -6   3  -3    2.09    0.34
  -6   3  -3    2.28    1.11
   6  -3   3    1.51    0.37
   6  -3   3    2.14    0.33
  -7   3  -3   22.05    0.99
  -7   3  -3   20.94    2.46
   7  -3   3   22.28    0.95
   7  -3   3   21.67    0.92
  -8   3  -3   75.66    3.00
   8  -3   3   68.62    2.38
   8  -3   3   71.45    2.13
  -9   3  -3   36.20    2.44
   9  -3   3   37.99    1.48
 -10   3  -3    1.40    1.96
  10  -3   3   -0.33    0.63
   9   2  -3    0.30    0.63
  -9  -2   3    1.75    1.39
   8   2  -3   35.80    1.57
  -8  -2   3   35.65    1.93
   7   2  -3   33.55    1.48
  -7  -2   3   38.01    1.65
   6   2  -3    5.75    0.80
   6   2  -3    6.89    0.71
  -6  -2   3    6.33    0.98
   5   2  -3    2.09    0.44
   5   2  -3    1.98    0.36
  -5  -2   3    1.43    0.40
  -5  -2   3    2.76    0.59
   4   2  -3   22.16    0.94
   4   2  -3   22.97    0.88
  -4  -2   3   22.39    0.94
   3   2  -3  210.01    5.75
   3   2  -3  218.79    5.71
  -3  -2   3  215.37    5.72
  -3  -2   3  227.03    5.77
   2   2  -3   20.57    0.76
   2   2  -3   21.82    0.72
  -2  -2   3   20.04    0.75
  -2  -2   3   20.90    0.73
   1   2  -3  238.94    6.34
   1   2  -3  242.44    6.33
  -1  -2   3  250.73    6.33
   0   2  -3   12.75    0.62
   0   2  -3   14.01    0.51
   0  -2   3   12.82    0.50
   0  -2   3   12.61    0.56
   0  -2   3   14.00    0.76
  -1   2  -3  127.50    3.18
   1  -2   3  117.45    3.12
   1  -2   3  109.66    3.06
   1  -2   3  108.20    3.04
  -2   2  -3   75.39    2.01
  -2   2  -3   77.56    2.17
   2  -2   3   73.91    2.01
   2  -2   3   75.78    2.07
  -3   2  -3   41.90    1.46
  -3   2  -3   44.72    1.25
   3  -2   3   44.25    1.24
   3  -2   3   43.75    1.29
  -4   2  -3   77.22    2.43
  -4   2  -3   78.10    2.26
   4  -2   3   77.73    2.24
   4  -2   3   81.17    2.17
  -5   2  -3    0.33    0.58
  -5   2  -3    0.44    0.29
   5  -2   3    0.87    0.38
   5  -2   3    0.52    0.28
  -6   2  -3   42.73    1.79
  -6   2  -3   39.24    1.37
   6  -2   3   39.71    1.32
   6  -2   3   39.33    1.34
  -7   2  -3   10.44    0.83
  -7   2  -3   12.33    1.57
   7  -2   3   12.32    0.81
   7  -2   3   12.15    0.72
  -8   2  -3   58.01    2.65
   8  -2   3   57.81    1.88
   8  -2   3   53.85    1.99
  -9   2  -3   13.26    2.18
   9  -2   3   14.70    1.06
 -10   2  -3    6.21    1.81
   9   1  -3    4.02    0.70
   8   1  -3   41.95    1.67
  -8  -1   3   39.34    2.04
   7   1  -3  120.50    3.57
   7   1  -3  119.68    3.49
  -7  -1   3  128.88    3.74
   6   1  -3    5.41    0.67
   6   1  -3    5.94    0.77
  -6  -1   3    5.20    0.75
  -6  -1   3    4.52    0.99
   5   1  -3    1.46    0.38
  -5  -1   3    1.36    0.51
  -5  -1   3    0.88    0.47
   4   1  -3  139.58    4.10
  -4  -1   3  146.17    4.15
  -4  -1   3  169.13    4.09
   3   1  -3  392.95   10.38
   3   1  -3  398.42   10.31
  -3  -1   3  407.98   10.41
   2   1  -3   88.48    2.47
   2   1  -3   92.80    2.41
   1   1  -3   49.23    1.35
   1   1  -3   47.53    1.34
  -1  -1   3   49.56    1.34
  -1  -1   3   50.71    1.35
   0   1  -3   44.36    1.24
   0  -1   3   43.75    1.23
   0  -1   3   43.37    1.19
  -1   1  -3  984.14   25.36
  -1   1  -3  974.36   25.39
   1  -1   3 1000.00   25.38
  -2   1  -3  248.59    6.54
  -2   1  -3  248.05    6.52
   2  -1   3  261.25    6.55
   2  -1   3  249.59    6.52
  -3   1  -3   15.22    0.61
   3  -1   3   15.20    0.59
   3  -1   3   16.17    0.63
  -4   1  -3   18.06    1.10
  -4   1  -3   19.15    0.74
  -4   1  -3   17.36    0.74
   4  -1   3   18.31    0.72
   4  -1   3   18.71    0.72
  -5   1  -3   61.83    2.24
  -5   1  -3   63.72    2.02
   5  -1   3   65.77    1.86
   5  -1   3   64.24    1.89
  -6   1  -3   52.70    1.68
  -6   1  -3   49.25    2.11
   6  -1   3   51.63    1.66
   6  -1   3   52.55    1.59
  -7   1  -3    0.40    0.89
   7  -1   3    0.19    0.38
  -8   1  -3   15.32    1.64
   8  -1   3   12.37    0.99
   8  -1   3   10.68    0.77
  -9   1  -3    1.67    1.20
   9  -1   3   -0.07    0.47
  10   0  -3    3.95    0.82
 -10   0   3    6.09    1.57
   9   0  -3    4.80    0.68
   8   0  -3   61.49    2.22
  -8   0   3   58.51    2.46
   7   0  -3   58.81    1.84
   7   0  -3   59.00    2.19
  -7   0   3   57.99    2.26
   6   0  -3    2.63    0.46
   6   0  -3    2.45    0.35
  -6   0   3    1.74    0.82
  -6   0   3    2.12    0.44
   5   0  -3    1.06    0.36
   5   0  -3    1.22    0.26
  -5   0   3    1.06    0.70
  -5   0   3    0.92    0.35
   4   0  -3  266.72    7.23
   4   0  -3  262.68    7.32
  -4   0   3  294.48    7.37
  -4   0   3  290.91    7.35
   3   0  -3  294.77    7.56
   3   0  -3  290.75    7.66
  -3   0   3  294.41    7.63
   2   0  -3  116.43    2.97
   2   0  -3  114.66    2.98
  -2   0   3  111.89    2.97
  -1   0   3  143.36    3.73
   0   0  -3  169.89    4.41
   0   0   3  168.50    4.40
  -1   0  -3  759.74   19.47
  -1   0  -3  752.93   19.45
   1   0   3  758.04   19.42
  -2   0  -3  142.16    3.72
  -2   0  -3  139.96    3.71
   2   0   3  139.86    3.70
   2   0   3  138.51    3.70
  -3   0  -3    9.61    0.55
  -3   0  -3   10.49    0.53
   3   0   3    8.34    0.81
   3   0   3   10.27    0.52
  -4   0  -3   18.36    0.79
  -4   0  -3   18.58    0.78
   4   0   3   18.07    0.79
   4   0   3   19.33    0.75
  -5   0  -3  119.34    3.28
  -5   0  -3  118.76    3.33
   5   0   3  117.59    3.32
   5   0   3  122.72    3.27
  -6   0  -3   73.07    2.15
  -6   0  -3   69.60    2.22
  -6   0  -3   75.67    2.72
   6   0   3   74.14    2.12
   6   0   3   70.79    2.21
  -7   0  -3    7.84    1.47
  -7   0  -3    8.27    0.78
   7   0   3    8.07    0.86
   7   0   3    6.18    0.65
  -8   0  -3    6.28    1.34
   8   0   3    4.68    0.64
   8   0   3    4.67    0.47
  -9   0  -3   11.01    1.98
   9   0   3    8.55    1.28
  10  -1  -3   17.69    1.30
 -10   1   3   15.10    2.44
   9  -1  -3    0.60    0.58
  -9   1   3    1.92    1.28
   8  -1  -3   21.93    1.05
   8  -1  -3   22.92    1.53
  -8   1   3   23.57    1.76
   7  -1  -3    4.65    0.63
   7  -1  -3    4.77    0.54
  -7   1   3    6.75    0.81
  -7   1   3    6.18    1.07
   6  -1  -3   37.36    1.25
   6  -1  -3   38.67    1.39
  -6   1   3   35.35    1.73
   5  -1  -3    2.43    0.39
  -5   1   3    2.46    0.75
   4  -1  -3  127.01    3.53
  -4   1   3  131.58    3.60
   3  -1  -3  127.07    3.26
   3  -1  -3  128.62    3.40
   3  -1  -3  121.18    3.37
  -3   1   3  123.21    3.26
   2  -1  -3    1.95    0.27
   2  -1  -3    1.77    0.38
  -2   1   3    1.58    0.25
   1  -1  -3    5.68    0.36
  -1   1   3    5.49    0.33
   0  -1  -3   40.33    1.14
   0  -1  -3   38.69    1.15
   0   1   3   39.52    1.14
   0   1   3   39.42    1.09
  -1  -1  -3  224.97    5.81
  -1  -1  -3  220.46    5.81
   1   1   3  220.34    5.79
   1   1   3  225.98    5.81
  -2  -1  -3  105.64    2.77
  -2  -1  -3  103.10    2.77
   2   1   3  106.19    2.78
   2   1   3   89.29    2.92
   2   1   3  106.01    2.78
  -3  -1  -3   30.61    1.06
  -3  -1  -3   30.91    1.05
   3   1   3   31.52    1.05
   3   1   3   31.77    1.08
   3   1   3   31.57    1.02
  -4  -1  -3   38.00    1.27
  -4  -1  -3   37.99    1.27
   4   1   3   36.68    1.31
   4   1   3   38.29    1.23
   4   1   3   36.25    1.28
  -5  -1  -3   54.08    1.75
  -5  -1  -3   53.75    1.72
   5   1   3   55.53    1.81
   5   1   3   55.06    1.77
   5   1   3   55.55    1.66
  -6  -1  -3   21.30    1.00
   6   1   3   20.40    1.07
   6   1   3   21.81    0.89
  -7  -1  -3   11.86    1.82
  -7  -1  -3   14.24    0.95
   7   1   3   12.33    0.77
   7   1   3   15.07    1.06
  -8  -1  -3   12.71    2.09
  -8  -1  -3   12.96    1.03
   8   1   3   10.80    1.26
  10  -2  -3   30.17    1.56
 -10   2   3   28.27    2.54
   9  -2  -3    6.19    1.00
  -9   2   3    8.47    2.03
   8  -2  -3    0.98    0.37
   8  -2  -3    0.79    0.51
  -8   2   3    0.84    0.91
   7  -2  -3   11.35    0.71
   7  -2  -3   12.44    0.91
  -7   2   3   10.63    1.32
   6  -2  -3   51.50    1.84
   6  -2  -3   51.69    1.69
  -6   2   3   51.43    2.00
   5  -2  -3   28.85    1.09
  -5   2   3   26.45    1.36
   4  -2  -3    2.73    0.59
   4  -2  -3    1.31    0.32
   4  -2  -3    1.78    0.21
   3  -2  -3    6.10    0.36
   3  -2  -3    5.52    0.32
   3  -2  -3    5.07    0.70
  -3   2   3    5.68    0.37
   2  -2  -3  125.45    3.35
  -2   2   3  128.32    3.35
   1  -2  -3   18.54    0.66
   1  -2  -3   18.79    0.59
  -1   2   3   18.77    0.65
  -1   2   3   18.66    0.60
   0  -2  -3    0.07    0.17
   0  -2  -3    0.12    0.23
   0  -2  -3    0.09    0.17
   0   2   3    0.31    0.19
   0   2   3    0.19    0.16
  -1  -2  -3    6.51    0.45
  -1  -2  -3    7.38    0.51
   1   2   3    7.25    0.45
   1   2   3    7.44    0.48
   1   2   3    7.12    0.47
  -2  -2  -3    0.20    0.29
  -2  -2  -3    0.04    0.23
   2   2   3    0.22    0.25
   2   2   3    0.48    0.24
   2   2   3    0.09    0.23
  -3  -2  -3    1.18    0.29
  -3  -2  -3    0.85    0.35
   3   2   3    1.32    0.30
   3   2   3    1.22    0.32
   3   2   3    0.79    0.27
  -4  -2  -3   20.18    0.91
  -4  -2  -3   19.11    0.95
   4   2   3   19.51    0.92
   4   2   3   20.07    0.83
  -5  -2  -3    0.96    0.48
   5   2   3    0.64    0.47
   5   2   3    0.81    0.37
   5   2   3    0.76    0.31
  -6  -2  -3    1.32    0.51
   6   2   3    2.18    0.51
   6   2   3    1.62    0.39
  -7  -2  -3   26.26    1.23
   7   2   3   26.58    1.37
   7   2   3   23.44    1.05
  -8  -2  -3   10.73    1.15
   8   2   3    7.74    1.26
  10  -3  -3   19.68    1.33
 -10   3   3   21.99    2.21
   9  -3  -3    7.99    0.99
  -9   3   3    6.06    2.27
   8  -3  -3   22.11    1.16
  -8   3   3   19.62    1.70
   7  -3  -3   53.63    1.82
   7  -3  -3   54.51    1.97
  -7   3   3   53.98    2.22
   6  -3  -3   39.15    1.53
   6  -3  -3   40.77    1.45
   6  -3  -3   41.26    1.19
  -6   3   3   39.66    1.96
   5  -3  -3   59.20    1.98
   5  -3  -3   58.16    1.60
   5  -3  -3   55.58    1.78
   5  -3  -3   54.47    1.63
   4  -3  -3   44.15    1.43
   4  -3  -3   43.39    1.67
   4  -3  -3   45.76    1.31
   4  -3  -3   45.65    1.30
   3  -3  -3   43.62    1.28
   3  -3  -3   42.91    1.30
   3  -3  -3   47.36    1.74
  -3   3   3   43.23    1.31
   2  -3  -3   37.69    1.16
   2  -3  -3   37.37    1.13
  -2   3   3   39.05    1.09
   1  -3  -3   39.97    1.22
   1  -3  -3   38.21    1.26
   1  -3  -3   40.39    1.17
  -1   3   3   38.90    1.18
  -1   3   3   41.22    1.21
   0  -3  -3  168.11    4.46
   0  -3  -3  170.44    4.47
   0  -3  -3  164.98    4.49
   0   3   3  171.03    4.47
   0   3   3  171.13    4.48
  -1  -3  -3   73.78    2.14
  -1  -3  -3   75.77    2.12
  -1  -3  -3   73.19    2.13
   1   3   3   77.08    2.13
   1   3   3   76.14    2.11
   1   3   3   73.32    2.12
  -2  -3  -3   -0.09    0.28
  -2  -3  -3    0.33    0.35
   2   3   3    0.29    0.31
   2   3   3   -0.09    0.31
   2   3   3    0.40    0.28
  -3  -3  -3    1.85    0.36
  -3  -3  -3    2.04    0.48
   3   3   3    1.93    0.34
   3   3   3    1.67    0.40
   3   3   3    1.92    0.38
  -4  -3  -3    2.31    0.42
  -4  -3  -3    3.10    0.53
   4   3   3    2.94    0.48
   4   3   3    2.55    0.39
   4   3   3    3.12    0.48
  -5  -3  -3   41.19    1.52
   5   3   3   41.97    1.56
   5   3   3   40.35    1.39
  -6  -3  -3    4.74    0.64
   6   3   3    5.52    0.69
   6   3   3    4.46    0.69
  -7  -3  -3    5.43    0.75
   7   3   3    7.29    1.16
  10  -4  -3    9.98    1.17
 -10   4   3   10.81    2.31
   9  -4  -3    4.65    0.67
  -9   4   3    5.23    1.33
   8  -4  -3   11.83    0.82
  -8   4   3   12.49    1.61
   7  -4  -3   14.23    1.06
   7  -4  -3   12.57    0.63
   7  -4  -3   13.36    0.91
   7  -4  -3   12.31    0.74
  -7   4   3   11.92    1.53
   6  -4  -3   10.77    0.68
   6  -4  -3   10.89    0.61
   6  -4  -3   11.70    0.87
   6  -4  -3   11.18    1.20
   5  -4  -3   43.50    1.32
   5  -4  -3   43.18    1.76
   5  -4  -3   43.21    1.34
   5  -4  -3   42.52    1.47
   4  -4  -3  125.91    3.37
   4  -4  -3  124.19    3.70
   4  -4  -3  124.71    3.37
   3  -4  -3   56.08    1.64
   3  -4  -3   55.31    2.02
   3  -4  -3   56.72    1.66
  -3   4   3   56.81    1.66
   2  -4  -3   13.38    0.67
   2  -4  -3   13.60    0.64
  -2   4   3   13.98    0.64
  -2   4   3   13.10    0.61
   1  -4  -3   73.97    2.08
   1  -4  -3   71.83    2.14
   1  -4  -3   74.71    2.10
  -1   4   3   74.85    2.11
  -1   4   3   77.11    2.12
   0  -4  -3  234.57    6.10
   0  -4  -3  227.59    6.14
   0  -4  -3  226.61    6.11
   0   4   3  237.19    6.13
   0   4   3  234.68    6.12
  -1  -4  -3  132.03    3.56
  -1  -4  -3  129.87    3.60
  -1  -4  -3  131.41    3.60
   1   4   3  128.35    3.72
   1   4   3  130.18    3.57
   1   4   3  131.06    3.58
  -2  -4  -3   14.55    0.87
  -2  -4  -3   12.81    0.91
  -2  -4  -3   12.84    0.75
   2   4   3   12.64    0.85
   2   4   3   13.63    0.84
   2   4   3   12.53    0.73
  -3  -4  -3    0.05    0.48
  -3  -4  -3   -0.11    0.33
   3   4   3    0.46    0.38
   3   4   3    0.02    0.39
  -4  -4  -3   60.65    2.00
   4   4   3   59.83    1.88
   4   4   3   62.98    2.03
   5   4   3   64.84    2.25
  -6  -4  -3   10.76    1.17
   6   4   3   12.59    1.26
  -7  -4  -3    0.94    0.75
   7   4   3   -0.03    0.78
  10  -5  -3    1.11    0.52
  10  -5  -3    0.26    0.59
 -10   5   3    2.26    1.53
   9  -5  -3    1.56    0.56
   9  -5  -3    2.62    0.57
   8  -5  -3    3.61    0.56
   8  -5  -3    2.73    0.44
   8  -5  -3    4.04    0.61
   7  -5  -3    2.35    0.82
   7  -5  -3    0.97    0.49
   7  -5  -3    1.01    0.36
   7  -5  -3    0.82    0.36
   6  -5  -3    8.39    1.25
   6  -5  -3    6.98    0.66
   6  -5  -3    8.29    0.81
   6  -5  -3    8.24    0.68
   5  -5  -3   28.02    1.03
   5  -5  -3   26.76    1.13
   5  -5  -3   24.87    1.70
   5  -5  -3   27.03    1.05
   4  -5  -3   56.23    1.73
   4  -5  -3   54.34    2.14
   4  -5  -3   57.99    1.72
   3  -5  -3    9.96    0.70
   3  -5  -3    8.23    1.14
   3  -5  -3   10.45    0.71
  -3   5   3    8.65    0.59
   2  -5  -3   16.71    0.82
   2  -5  -3   15.90    0.82
   2  -5  -3   14.64    0.69
  -2   5   3   13.95    1.08
  -2   5   3   16.13    0.77
   1  -5  -3   19.15    0.91
   1  -5  -3   19.92    0.94
   1  -5  -3   20.88    0.91
  -1   5   3   19.13    0.88
  -1   5   3   18.32    0.85
   0  -5  -3  131.05    3.66
   0  -5  -3  135.04    3.61
   0  -5  -3  128.97    3.66
   0   5   3  132.68    3.63
   0   5   3  133.20    3.66
  -1  -5  -3   71.81    2.23
  -1  -5  -3   70.61    2.12
  -1  -5  -3   72.18    2.21
   1   5   3   73.62    2.18
   1   5   3   71.86    2.19
   1   5   3   70.36    2.13
  -2  -5  -3    0.23    0.51
  -2  -5  -3    0.44    0.47
  -2  -5  -3    0.06    0.35
   2   5   3    0.49    0.43
   2   5   3   -0.19    0.36
   2   5   3    0.43    0.39
  -3  -5  -3    1.05    0.53
   3   5   3    1.37    0.51
   3   5   3    1.92    0.51
  -4  -5  -3   56.91    2.00
   4   5   3   58.08    2.03
  -5  -5  -3   46.41    1.88
   5   5   3   43.74    1.85
  -6  -5  -3    6.26    0.93
   6   5   3    6.50    0.89
  10  -6  -3    6.35    0.76
  10  -6  -3    6.92    1.04
   9  -6  -3   -0.18    0.49
   9  -6  -3   -0.37    0.39
   9  -6  -3    0.49    0.57
   8  -6  -3    1.54    0.45
   8  -6  -3    1.84    0.44
   8  -6  -3    1.84    0.54
   7  -6  -3   36.18    1.40
   7  -6  -3   33.85    1.25
   7  -6  -3   34.31    1.34
   6  -6  -3   35.83    2.07
   6  -6  -3   40.18    1.45
   6  -6  -3   41.83    1.46
   6  -6  -3   39.48    1.37
   5  -6  -3   -0.56    1.20
   5  -6  -3    0.72    0.40
   5  -6  -3    0.94    0.42
   4  -6  -3    6.73    0.76
   4  -6  -3    7.12    0.80
   4  -6  -3    5.76    1.03
   3  -6  -3   48.36    1.60
   3  -6  -3   47.71    1.46
   3  -6  -3   45.64    2.07
   3  -6  -3   46.92    1.58
  -3   6   3   47.10    1.50
   2  -6  -3   31.13    1.23
   2  -6  -3   31.32    1.25
   2  -6  -3   30.34    1.08
  -2   6   3   31.31    1.17
  -2   6   3   30.04    1.18
   1  -6  -3    8.88    0.83
   1  -6  -3    7.93    0.67
   1  -6  -3    7.70    0.89
  -1   6   3    7.60    0.70
  -1   6   3    7.54    0.78
   0  -6  -3   37.13    1.43
   0  -6  -3   35.11    1.26
   0  -6  -3   36.93    1.42
   0   6   3   36.06    1.40
   0   6   3   34.20    1.29
  -1  -6  -3    1.29    0.37
  -1  -6  -3    1.53    0.50
  -1  -6  -3    1.84    0.91
   1   6   3    1.13    0.44
  -2  -6  -3    8.79    1.00
   2   6   3    9.04    0.96
  -3  -6  -3    1.91    0.73
   3   6   3    1.82    0.59
  -4  -6  -3   15.04    1.28
   4   6   3   16.13    1.31
  -5  -6  -3    5.10    1.01
   5   6   3    5.18    0.83
   9  -7  -3    0.23    0.51
   9  -7  -3    0.33    0.55
   9  -7  -3   -0.48    0.57
   8  -7  -3    9.08    0.98
   8  -7  -3    9.18    0.90
   8  -7  -3    9.89    1.05
   7  -7  -3   57.65    1.87
   7  -7  -3   57.71    1.98
   7  -7  -3   57.50    1.92
   6  -7  -3   29.95    1.24
   6  -7  -3   29.79    1.25
   6  -7  -3   27.21    1.31
   5  -7  -3    2.68    0.54
   5  -7  -3    3.08    0.57
   4  -7  -3    1.36    0.50
   4  -7  -3    0.48    0.31
   4  -7  -3    0.71    0.48
  -4   7   3    0.61    0.34
   3  -7  -3   60.51    2.05
   3  -7  -3   61.94    1.84
   3  -7  -3   62.95    2.03
  -3   7   3   63.12    1.92
   2  -7  -3  100.88    2.82
   2  -7  -3   97.70    3.23
   2  -7  -3  101.83    2.98
  -2   7   3  102.66    2.93
   1  -7  -3    6.56    0.88
   1  -7  -3    3.84    0.43
   1  -7  -3    4.64    0.62
  -1   7   3    4.91    0.76
   0  -7  -3   -0.20    0.51
   0  -7  -3   -0.17    0.36
   0  -7  -3    0.10    0.60
   0   7   3    0.07    0.44
  -1  -7  -3   11.42    1.13
  -1  -7  -3   11.94    1.19
  -2  -7  -3   27.73    1.54
  -2  -7  -3   26.06    1.44
   2   7   3   28.47    1.41
  -3  -7  -3    2.90    0.80
   3   7   3    3.84    0.71
  -4  -7  -3   -0.39    0.88
   4   7   3    0.40    0.72
   9  -8  -3   -0.56    0.62
   9  -8  -3    0.85    0.90
   9  -8  -3    1.42    0.66
   8  -8  -3    4.27    0.64
   8  -8  -3    6.51    0.99
   7  -8  -3   36.75    1.44
   7  -8  -3   33.20    1.45
   7  -8  -3   33.84    1.57
   6  -8  -3   14.63    1.01
   6  -8  -3   14.64    1.07
   6  -8  -3   12.81    1.15
   5  -8  -3    5.49    0.71
   5  -8  -3    4.52    0.66
   5  -8  -3    7.35    0.74
   4  -8  -3    9.28    1.09
   4  -8  -3    6.87    1.08
   4  -8  -3    9.64    0.70
  -4   8   3   10.45    0.81
   3  -8  -3   54.55    1.90
   3  -8  -3   53.56    1.90
   3  -8  -3   50.27    1.63
  -3   8   3   50.76    1.76
   2  -8  -3   47.18    1.81
   2  -8  -3   48.50    1.78
   2  -8  -3   45.14    1.53
  -2   8   3   44.21    1.69
   1  -8  -3    5.01    0.74
   1  -8  -3    5.28    0.76
   1  -8  -3    4.74    0.70
  -1   8   3    3.60    0.60
   0  -8  -3    8.64    1.20
   0  -8  -3   10.47    1.24
  -1  -8  -3   13.18    1.39
  -1  -8  -3   14.71    1.36
  -2  -8  -3   21.38    1.61
  -2  -8  -3   18.53    1.46
  -3  -8  -3    5.63    0.94
   3   8   3    9.34    1.40
   8  -9  -3    0.05    0.74
   8  -9  -3   -1.10    0.73
   7  -9  -3    2.54    0.60
   7  -9  -3    1.41    0.66
   7  -9  -3    0.34    0.82
   6  -9  -3    0.11    0.51
   6  -9  -3   -0.06    0.62
   6  -9  -3   -0.81    0.65
   5  -9  -3   -0.58    0.65
   5  -9  -3   -0.30    0.66
   4  -9  -3    4.31    0.68
   4  -9  -3    2.45    0.73
   4  -9  -3    3.82    0.77
  -4   9   3    2.03    0.52
   3  -9  -3    7.31    0.75
   3  -9  -3    6.11    0.94
   3  -9  -3    8.44    1.20
   2  -9  -3    6.97    0.77
   2  -9  -3    8.76    1.22
   2  -9  -3    8.85    1.31
   1  -9  -3    5.86    0.84
   1  -9  -3    5.31    0.88
   0  -9  -3    4.56    0.83
   0  -9  -3    6.17    0.96
  -1  -9  -3    9.01    1.51
  -1  -9  -3   10.36    1.48
  -2  -9  -3   10.96    1.73
   7 -10  -3    1.88    0.78
   7 -10  -3    0.92    1.00
   6 -10  -3   -0.41    0.81
   6 -10  -3    1.52    0.76
   5 -10  -3    4.80    0.85
   5 -10  -3    4.41    0.88
   4 -10  -3    0.13    0.83
   4 -10  -3   -0.54    0.79
   3 -10  -3   -0.01    0.79
   3 -10  -3   -1.25    0.80
   2 -10  -3   -0.04    0.86
   2 -10  -3   -1.06    0.78
   1 -10  -3    0.33    0.83
   1 -10  -3   -0.16    1.04
   0 -10  -3   -0.80    0.83
   0 -12   4   22.96    1.87
   1 -12   4    1.11    1.02
   1 -12   4   -0.14    0.90
   2 -12   4   -0.79    0.89
   2 -12   4   -1.12    0.91
   3 -12   4    0.74    0.83
   3 -12   4    1.49    0.91
   4 -12   4   16.41    1.63
   4 -12   4   18.97    1.83
   5 -12   4    3.30    0.96
   5 -12   4    2.25    0.84
   6 -12   4    1.95    0.95
   6 -12   4   -0.29    0.79
   7 -12   4   -0.65    0.87
   2  11  -4   -0.23    0.67
  -2 -11   4    0.37    0.90
   1  11  -4   19.79    1.20
  -1 -11   4   17.85    1.88
  -1 -11   4   16.61    1.73
   0  11  -4   31.46    1.25
   0 -11   4   30.86    1.73
   0 -11   4   28.23    1.94
   1 -11   4    9.02    1.54
   1 -11   4    7.61    0.96
   2 -11   4    1.28    0.74
   2 -11   4    1.74    0.81
   3 -11   4   14.51    1.44
   3 -11   4   15.42    1.47
   4 -11   4   18.17    1.49
   4 -11   4   19.74    1.51
   5 -11   4   16.03    1.42
   5 -11   4   16.73    1.49
   6 -11   4    1.70    0.99
   6 -11   4    2.10    0.75
   7 -11   4    9.58    1.50
   8 -11   4    9.08    1.56
   3  10  -4    0.03    0.65
  -3 -10   4    1.82    1.02
   2  10  -4    1.62    0.60
  -2 -10   4    2.76    0.85
  -2 -10   4    1.01    0.91
   1  10  -4   14.44    1.00
  -1 -10   4   15.95    1.58
  -1 -10   4   14.16    0.94
  -1 -10   4   15.70    1.34
   0  10  -4   11.49    0.80
   0 -10   4   11.20    1.45
   0 -10   4   13.00    0.74
   0 -10   4   12.14    1.23
   1 -10   4    0.85    0.72
   1 -10   4    1.18    0.70
   2 -10   4    7.34    0.86
   2 -10   4    5.68    0.77
   3 -10   4   28.04    1.51
   3 -10   4   28.62    1.52
   4 -10   4   13.73    1.29
   5 -10   4   13.80    1.31
   6 -10   4   29.80    1.64
   7 -10   4   15.12    1.48
  -8  10  -4    1.60    1.76
   8 -10   4    3.59    0.82
   9 -10   4    0.56    0.80
   4   9  -4    0.90    0.68
  -4  -9   4    1.01    0.75
  -4  -9   4    1.45    0.93
   3   9  -4    1.73    0.59
  -3  -9   4    1.28    0.67
  -3  -9   4    3.12    0.88
   2   9  -4   -0.29    0.47
  -2  -9   4    0.04    0.45
  -2  -9   4   -1.28    0.62
  -2  -9   4    0.22    0.74
   1   9  -4    0.38    0.41
  -1  -9   4   -0.07    0.37
  -1  -9   4   -0.60    0.93
  -1  -9   4    0.21    0.64
  -1  -9   4    0.27    0.67
   0   9  -4    2.45    0.38
   0  -9   4    3.22    0.91
   0  -9   4    2.42    0.34
   0  -9   4    3.03    1.11
   0  -9   4    1.45    0.69
   1  -9   4    5.30    1.05
   1  -9   4    3.76    0.70
   1  -9   4    3.93    1.34
   2  -9   4   -0.16    0.86
   2  -9   4    0.11    0.51
   2  -9   4    1.37    0.93
   3  -9   4    2.08    1.00
   3  -9   4    1.52    0.61
   4  -9   4   -0.07    0.53
   5  -9   4    1.71    0.58
  -6   9  -4   35.33    2.29
   6  -9   4   36.33    1.62
  -7   9  -4    9.98    1.61
   7  -9   4    9.32    1.17
  -8   9  -4    1.69    1.47
   8  -9   4    0.39    0.62
  -9   9  -4    1.14    1.74
   9  -9   4    1.66    0.75
   5   8  -4   21.57    1.42
  -5  -8   4   21.08    1.80
  -5  -8   4   20.62    1.26
   4   8  -4   13.50    1.13
  -4  -8   4   11.97    1.05
  -4  -8   4   12.02    1.49
  -3  -8   4    5.79    0.91
  -3  -8   4    4.04    0.80
   2   8  -4   12.59    0.85
  -2  -8   4   12.26    0.96
  -2  -8   4   12.73    0.84
  -2  -8   4   11.70    1.29
   1   8  -4   49.84    1.58
  -1  -8   4   52.69    1.75
  -1  -8   4   49.65    2.14
  -1  -8   4   50.93    1.60
  -1  -8   4   49.27    2.03
   0   8  -4   24.14    0.90
   0  -8   4   23.88    0.96
   0  -8   4   24.84    1.48
   0  -8   4   24.47    1.41
   0  -8   4   25.19    1.22
  -1   8  -4    1.39    0.42
   1  -8   4    2.12    0.57
   1  -8   4    2.16    0.84
  -2   8  -4    0.39    0.40
   2  -8   4    0.11    0.83
   2  -8   4   -0.11    0.47
  -3   8  -4   30.72    1.28
   3  -8   4   28.87    1.95
   3  -8   4   31.87    1.40
   4  -8   4   63.88    2.46
   4  -8   4   63.38    2.12
  -5   8  -4    1.06    1.44
   5  -8   4    0.45    0.57
  -6   8  -4   19.90    1.87
   6  -8   4   21.68    1.22
  -7   8  -4    1.34    1.35
   7  -8   4    0.92    0.51
  -8   8  -4   17.71    2.22
   8  -8   4   14.72    1.24
  -9   8  -4    2.02    1.64
   9  -8   4    1.67    0.64
   6   7  -4   18.44    1.41
   5   7  -4   37.52    1.62
  -5  -7   4   34.73    1.82
  -5  -7   4   34.72    1.35
   4   7  -4   13.50    1.03
  -4  -7   4   11.78    0.88
  -4  -7   4   13.65    1.35
   3   7  -4    1.02    0.43
  -3  -7   4    1.33    0.46
  -3  -7   4    0.98    0.40
  -3  -7   4    0.88    0.61
   2   7  -4   18.51    0.91
   2   7  -4   16.20    1.03
  -2  -7   4   19.44    0.95
  -2  -7   4   18.86    0.90
  -2  -7   4   18.74    1.28
   1   7  -4  226.26    6.11
   1   7  -4  236.55    6.30
  -1  -7   4  234.04    6.21
  -1  -7   4  233.61    6.36
  -1  -7   4  230.50    6.13
   0   7  -4   54.09    1.60
   0   7  -4   54.14    1.82
   0  -7   4   58.08    2.05
   0  -7   4   57.47    2.04
   0  -7   4   54.58    1.62
  -1   7  -4    0.81    0.34
   1  -7   4    0.34    0.44
   1  -7   4    1.30    0.74
  -2   7  -4   26.10    1.12
   2  -7   4   28.51    1.24
   2  -7   4   28.72    1.56
  -3   7  -4  184.52    5.20
  -3   7  -4  194.43    5.51
   3  -7   4  191.78    5.24
   3  -7   4  196.84    5.50
  -4   7  -4  113.96    3.59
   4  -7   4  110.01    3.54
   4  -7   4  110.18    3.21
  -5   7  -4    1.79    1.11
   5  -7   4    0.46    0.41
   5  -7   4    0.86    0.85
  -6   7  -4    0.97    1.74
  -7   7  -4   24.89    2.03
   7  -7   4   28.67    1.77
   7  -7   4   25.67    1.29
  -8   7  -4   76.04    3.24
   8  -7   4   71.52    2.11
   8  -7   4   78.18    2.51
  -9   7  -4    4.18    1.92
   9  -7   4    1.87    0.37
   9  -7   4    2.43    0.69
 -10   7  -4    4.00    2.74
   7   6  -4    0.66    0.78
   6   6  -4   21.36    1.34
   5   6  -4   30.62    1.40
  -5  -6   4   31.93    1.58
  -5  -6   4   29.43    1.12
   4   6  -4    2.86    0.48
  -4  -6   4    2.64    0.60
  -4  -6   4    2.30    0.53
  -4  -6   4    2.52    0.42
   3   6  -4    1.91    0.43
   3   6  -4    1.94    0.45
  -3  -6   4    2.70    0.42
  -3  -6   4    1.19    0.55
  -3  -6   4    2.33    0.42
   2   6  -4   64.57    1.95
   2   6  -4   65.38    2.07
  -2  -6   4   65.27    1.96
  -2  -6   4   63.89    1.96
  -2  -6   4   66.31    2.17
   1   6  -4  107.62    3.07
   1   6  -4  105.41    2.92
  -1  -6   4  106.16    2.93
  -1  -6   4  108.36    3.13
   0   6  -4   29.60    1.12
   0   6  -4   28.07    0.95
   0  -6   4   26.32    0.92
   0  -6   4   29.41    1.22
   0  -6   4   30.43    1.32
  -1   6  -4   22.28    0.95
   1  -6   4   22.38    1.23
   1  -6   4   22.72    1.03
  -2   6  -4    9.91    1.07
  -2   6  -4   10.10    0.70
   2  -6   4   10.89    0.75
   2  -6   4   10.42    1.05
  -3   6  -4  289.14    7.77
  -3   6  -4  294.45    8.01
   3  -6   4  300.91    8.03
   3  -6   4  295.14    7.79
  -4   6  -4  123.65    3.78
   4  -6   4  126.71    3.74
   4  -6   4  118.20    3.43
  -5   6  -4    1.25    1.03
   5  -6   4    0.38    0.35
   5  -6   4   -0.27    0.63
  -6   6  -4    1.38    0.28
  -6   6  -4    0.98    1.22
   6  -6   4    1.75    0.45
   6  -6   4    2.49    0.39
   6  -6   4    1.70    0.46
  -7   6  -4   35.34    1.21
  -7   6  -4   34.05    2.26
   7  -6   4   35.12    1.38
   7  -6   4   38.72    1.47
   7  -6   4   36.77    1.15
  -8   6  -4   56.16    3.02
  -8   6  -4   67.57    2.07
   8  -6   4   71.17    2.26
   8  -6   4   68.50    1.94
  -9   6  -4    6.23    2.00
   9  -6   4    6.92    1.11
   9  -6   4    6.89    0.74
 -10   6  -4    0.40    2.25
  10  -6   4    0.23    0.67
  10  -6   4    0.15    0.47
   7   5  -4    5.40    0.72
  -7  -5   4    4.88    1.25
   6   5  -4    5.17    0.71
   5   5  -4    6.56    0.86
  -5  -5   4    6.46    1.01
   4   5  -4   94.64    2.80
   4   5  -4   96.17    2.79
  -4  -5   4   94.91    2.87
  -4  -5   4   93.89    2.59
  -4  -5   4   93.16    2.79
   3   5  -4   88.50    2.60
   3   5  -4   87.17    2.55
  -3  -5   4   88.21    2.56
  -3  -5   4   87.93    2.44
  -3  -5   4   87.84    2.67
   2   5  -4   30.38    1.09
   2   5  -4   31.01    1.15
  -2  -5   4   30.28    1.05
  -2  -5   4   29.13    1.07
  -2  -5   4   29.93    1.25
   1   5  -4   57.29    1.65
   1   5  -4   58.27    1.76
  -1  -5   4   57.11    1.82
  -1  -5   4   54.53    1.70
  -1  -5   4   57.09    1.81
   0   5  -4   16.18    0.76
   0   5  -4   17.09    0.62
   0  -5   4   17.28    0.86
   0  -5   4   16.44    0.95
  -1   5  -4   66.17    1.96
   1  -5   4   66.22    2.00
   1  -5   4   69.01    2.15
  -2   5  -4   23.99    1.21
  -2   5  -4   25.39    0.92
   2  -5   4   24.13    1.25
   2  -5   4   24.64    0.93
  -3   5  -4  125.95    3.78
   3  -5   4  125.96    3.56
   3  -5   4  139.34    3.81
  -4   5  -4   18.65    1.48
   4  -5   4   20.33    0.87
   4  -5   4   18.64    1.13
  -5   5  -4    0.43    0.23
  -5   5  -4    1.00    1.07
   5  -5   4    0.54    0.33
   5  -5   4    0.86    0.69
   5  -5   4    0.40    0.41
   5  -5   4    0.68    0.21
  -6   5  -4    2.57    0.38
  -6   5  -4    3.02    1.25
   6  -5   4    2.82    0.45
   6  -5   4    3.99    0.46
  -7   5  -4   31.11    2.10
  -7   5  -4   30.23    1.12
   7  -5   4   28.40    1.18
   7  -5   4   31.10    1.11
  -8   5  -4   21.42    1.08
  -8   5  -4   24.41    2.30
   8  -5   4   21.74    1.05
   8  -5   4   24.65    1.04
  -9   5  -4    1.40    1.76
   9  -5   4    1.18    0.49
 -10   5  -4    4.40    2.30
  10  -5   4    2.78    0.54
   8   4  -4   50.68    2.05
   7   4  -4    9.67    1.09
  -7  -4   4   11.72    1.37
   6   4  -4    0.61    0.49
   5   4  -4   12.06    0.80
   5   4  -4   11.43    0.90
  -5  -4   4   12.24    0.90
   4   4  -4  129.74    3.63
   4   4  -4  128.86    3.61
  -4  -4   4  129.13    3.63
  -4  -4   4  129.49    3.65
   3   4  -4  132.69    3.72
   3   4  -4  136.94    3.72
  -3  -4   4  134.28    3.58
  -3  -4   4  135.80    3.75
  -3  -4   4  136.82    3.73
   2   4  -4    1.55    0.29
   2   4  -4    1.66    0.30
  -2  -4   4    1.58    0.28
  -2  -4   4    1.68    0.34
   1   4  -4    5.24    0.45
   1   4  -4    5.59    0.60
  -1  -4   4    6.36    0.59
  -1  -4   4    4.76    0.46
  -1  -4   4    6.17    0.61
   0   4  -4  123.92    3.29
   0   4  -4  124.40    3.37
   0  -4   4  123.50    3.43
   0  -4   4  125.68    3.40
  -1   4  -4  206.16    5.44
  -1   4  -4  213.73    5.54
  -1   4  -4  208.53    5.62
   1  -4   4  213.49    5.65
   1  -4   4  209.23    5.54
  -2   4  -4    4.44    0.72
  -2   4  -4    3.07    0.24
   2  -4   4    3.31    0.55
   2  -4   4    2.91    0.42
  -3   4  -4    0.89    0.16
  -3   4  -4    0.77    0.73
   3  -4   4    0.34    0.22
   3  -4   4    0.65    0.47
   3  -4   4    0.66    0.28
  -4   4  -4   45.19    1.91
  -4   4  -4   40.54    1.19
   4  -4   4   39.48    1.33
   4  -4   4   38.82    1.16
   4  -4   4   39.18    1.61
  -5   4  -4   10.28    0.69
  -5   4  -4   10.56    1.35
   5  -4   4   11.41    0.56
   5  -4   4   10.73    0.71
  -6   4  -4    0.10    1.11
  -6   4  -4    0.61    0.32
   6  -4   4    0.14    0.27
   6  -4   4    0.07    0.37
  -7   4  -4    2.60    0.41
  -7   4  -4    2.44    1.19
   7  -4   4    2.19    0.35
   7  -4   4    2.68    0.44
  -8   4  -4    0.48    0.47
  -8   4  -4    1.25    1.26
   8  -4   4    0.56    0.39
   8  -4   4   -0.09    0.37
  -9   4  -4    5.20    1.79
   9  -4   4    2.71    0.47
 -10   4  -4    6.37    2.52
   8   3  -4   33.39    1.55
  -8  -3   4   28.86    1.97
   7   3  -4    5.00    0.71
  -7  -3   4    6.70    1.08
   6   3  -4    0.25    0.46
   6   3  -4    0.91    0.37
  -6  -3   4    2.02    0.63
   5   3  -4   32.07    1.19
   5   3  -4   29.91    1.30
  -5  -3   4   33.01    1.37
  -5  -3   4   31.30    1.29
   4   3  -4  126.80    3.60
   4   3  -4  129.57    3.54
  -4  -3   4  130.57    3.61
  -4  -3   4  128.75    3.56
   3   3  -4   89.42    2.55
   3   3  -4   89.29    2.50
  -3  -3   4   91.37    2.55
  -3  -3   4   87.32    2.52
   2   3  -4   45.80    1.40
   2   3  -4   47.37    1.39
  -2  -3   4   47.55    1.41
  -2  -3   4   42.65    1.44
   1   3  -4  119.44    3.22
   1   3  -4  120.11    3.21
  -1  -3   4  119.73    3.23
   0   3  -4  260.70    6.80
   0   3  -4  240.11    6.87
   0  -3   4  274.24    6.82
   0  -3   4  269.77    6.83
  -1   3  -4   72.11    1.98
  -1   3  -4   73.38    2.11
   1  -3   4   70.00    1.99
   1  -3   4   69.02    2.05
   1  -3   4   75.23    1.99
  -2   3  -4  139.27    3.64
  -2   3  -4  151.94    3.89
   2  -3   4  136.80    3.75
   2  -3   4  136.13    3.83
   2  -3   4  132.95    3.70
  -3   3  -4   26.87    0.83
  -3   3  -4   26.57    1.21
   3  -3   4   26.24    0.81
  -4   3  -4   14.35    0.60
  -4   3  -4   13.06    1.04
   4  -3   4   13.33    0.58
   4  -3   4   13.98    0.69
  -5   3  -4   22.74    0.89
  -5   3  -4   21.60    1.37
   5  -3   4   24.06    0.85
   5  -3   4   23.68    0.94
  -6   3  -4   25.36    1.70
  -6   3  -4   27.16    1.03
   6  -3   4   25.99    0.99
   6  -3   4   26.04    1.06
  -7   3  -4   52.20    1.72
  -7   3  -4   54.72    2.42
   7  -3   4   52.52    1.66
   7  -3   4   50.71    1.67
  -8   3  -4   23.24    2.10
   8  -3   4   22.49    1.03
   8  -3   4   23.30    1.07
  -9   3  -4    2.07    1.50
   9  -3   4    0.76    0.49
 -10   3  -4    0.43    3.09
  10  -3   4    0.29    0.55
   9   2  -4    3.50    0.64
   8   2  -4    2.05    0.59
  -8  -2   4    3.11    1.09
   7   2  -4    0.25    0.48
  -7  -2   4    1.06    0.78
   6   2  -4    0.09    0.32
  -6  -2   4    0.67    0.56
   5   2  -4    4.05    0.63
   5   2  -4    4.29    0.51
  -5  -2   4    4.04    0.50
  -5  -2   4    3.90    0.69
   4   2  -4   37.04    1.32
  -4  -2   4   37.36    1.31
   3   2  -4   21.37    0.87
   3   2  -4   21.65    0.78
  -3  -2   4   21.63    0.80
  -3  -2   4   22.88    0.90
   2   2  -4   28.97    1.00
   2   2  -4   29.67    0.93
  -2  -2   4   30.49    0.94
  -2  -2   4   29.67    0.86
   1   2  -4   63.01    1.75
  -1  -2   4   65.88    1.76
  -1  -2   4   62.52    1.73
   0   2  -4   81.99    2.18
   0  -2   4   83.78    2.19
   0  -2   4   77.89    2.19
  -1   2  -4   14.13    0.56
  -1   2  -4   14.28    0.65
   1  -2   4   13.61    0.57
   1  -2   4   14.71    0.52
  -2   2  -4  195.68    5.20
  -2   2  -4  190.69    5.04
  -2   2  -4  188.53    5.08
   2  -2   4  199.25    5.09
  -3   2  -4  333.51    8.63
  -3   2  -4  313.11    8.45
  -3   2  -4  328.49    8.42
   3  -2   4  333.02    8.46
   3  -2   4  318.37    8.41
  -4   2  -4   15.38    0.72
  -4   2  -4   15.66    0.67
  -4   2  -4   15.19    1.06
   4  -2   4   14.87    0.64
   4  -2   4   14.86    0.72
  -5   2  -4    1.07    0.31
  -5   2  -4    1.03    0.73
   5  -2   4    1.21    0.40
   5  -2   4    1.40    0.30
  -6   2  -4   45.56    1.53
  -6   2  -4   44.99    2.00
   6  -2   4   45.27    1.49
   6  -2   4   47.46    1.50
  -7   2  -4  142.18    4.14
  -7   2  -4  126.30    3.69
   7  -2   4  126.96    3.64
   7  -2   4  126.79    3.61
  -8   2  -4   17.62    1.78
   8  -2   4   15.84    0.98
   8  -2   4   13.22    0.87
  -9   2  -4    1.67    1.45
   9  -2   4   -0.51    0.52
   9   1  -4    6.84    0.86
  -9  -1   4    8.64    1.79
   8   1  -4    4.85    0.65
  -8  -1   4    5.19    1.13
   7   1  -4    0.84    0.37
   7   1  -4    1.22    0.52
  -7  -1   4    1.78    0.87
   6   1  -4    1.45    0.46
   6   1  -4    0.97    0.35
  -6  -1   4    0.79    0.45
  -6  -1   4    1.45    0.74
   5   1  -4   17.25    0.77
   5   1  -4   15.34    0.92
  -5  -1   4   15.85    0.90
   4   1  -4   75.94    2.08
   4   1  -4   72.56    2.19
   3   1  -4    0.50    0.18
   3   1  -4    0.20    0.26
   2   1  -4   98.74    2.60
   2   1  -4   96.14    2.69
   2   1  -4   97.61    2.60
  -2  -1   4  101.21    2.59
  -2  -1   4   99.25    2.60
   1   1  -4    0.87    0.13
   1   1  -4    0.84    0.20
  -1  -1   4    1.08    0.18
  -1  -1   4    1.49    0.24
   0   1  -4   39.97    1.15
   0  -1   4   39.61    1.15
   0  -1   4   39.08    1.09
  -1   1  -4    0.64    0.18
  -1   1  -4    0.75    0.24
   1  -1   4    0.57    0.22
  -2   1  -4   87.55    2.38
  -2   1  -4   87.62    2.35
   2  -1   4   87.38    2.35
   2  -1   4   84.35    2.39
  -3   1  -4  111.13    2.95
  -3   1  -4  105.35    2.93
   3  -1   4  106.84    2.92
   3  -1   4  106.02    2.90
  -4   1  -4   19.25    0.80
  -4   1  -4   19.18    0.83
   4  -1   4   18.71    0.78
   4  -1   4   19.41    0.82
  -5   1  -4   19.60    1.44
  -5   1  -4   18.88    0.88
  -5   1  -4   18.70    0.92
   5  -1   4   19.68    0.87
   5  -1   4   18.68    0.85
  -6   1  -4   38.02    1.37
  -6   1  -4   37.94    2.03
  -6   1  -4   37.59    1.39
   6  -1   4   39.66    1.33
   6  -1   4   38.25    1.36
  -7   1  -4   89.74    3.20
   7  -1   4   88.56    2.65
   7  -1   4   88.25    2.57
  -8   1  -4    8.18    1.72
   8  -1   4    8.92    0.97
  -9   1  -4    2.04    1.35
   9  -1   4    1.64    0.58
   9   0  -4   40.72    1.64
  -9   0   4   28.68    2.44
   8   0  -4   20.50    1.21
  -8   0   4   20.38    1.70
   7   0  -4    1.29    0.47
   7   0  -4    0.32    0.33
  -7   0   4    0.89    0.87
   6   0  -4   11.92    0.72
   6   0  -4   12.18    0.92
  -6   0   4   11.74    1.21
   5   0  -4  143.95    3.91
   5   0  -4  143.26    4.02
  -5   0   4  149.21    4.05
   4   0  -4  225.99    5.83
   4   0  -4  221.98    5.97
   3   0  -4    8.67    0.58
   2   0  -4    1.25    0.20
  -2   0   4    1.39    0.18
   1   0  -4   91.88    2.42
  -1   0   4   89.17    2.41
   0   0  -4  226.52    5.96
   0   0   4  231.52    5.96
  -1   0  -4   71.43    2.00
  -1   0  -4   72.90    1.98
   1   0   4   70.92    1.99
  -2   0  -4   76.32    2.17
  -2   0  -4   77.92    2.15
   2   0   4   78.72    2.16
   2   0   4   76.98    2.15
  -3   0  -4    0.18    0.24
  -3   0  -4    0.07    0.31
   3   0   4    0.59    0.27
   3   0   4    0.67    0.25
  -4   0  -4  114.46    3.14
  -4   0  -4  111.85    3.14
   4   0   4  112.28    3.13
   4   0   4  114.81    3.12
  -5   0  -4   41.88    1.45
  -5   0  -4   41.97    1.44
   5   0   4   42.48    1.40
   5   0   4   42.62    1.44
   5   0   4   43.38    1.50
  -6   0  -4   18.02    0.96
   6   0   4   16.93    0.87
  -7   0  -4   18.24    1.84
  -7   0  -4   18.55    1.07
   7   0   4   20.18    1.11
   7   0   4   17.35    0.92
  -8   0  -4    0.14    1.37
   8   0   4    0.92    0.55
  -9   0  -4   12.37    2.25
   9   0   4    8.73    1.20
  10  -1  -4    7.74    1.20
   9  -1  -4   41.36    1.77
  -9   1   4   46.30    2.42
   8  -1  -4   13.84    1.07
   8  -1  -4   14.25    0.85
  -8   1   4   13.43    1.39
   7  -1  -4    0.09    0.30
  -7   1   4    0.77    0.75
   6  -1  -4    6.87    0.81
   6  -1  -4    6.22    0.60
  -6   1   4    6.54    1.05
   5  -1  -4  174.39    4.54
   5  -1  -4  167.47    4.69
   5  -1  -4  178.14    4.67
  -5   1   4  168.38    4.74
   4  -1  -4  318.05    8.40
   4  -1  -4  335.05    8.48
   4  -1  -4  320.08    8.51
   3  -1  -4    6.20    0.38
  -3   1   4    5.66    0.35
   2  -1  -4    4.45    0.37
  -2   1   4    4.56    0.35
   1  -1  -4  316.87    8.29
  -1   1   4  324.83    8.29
   0  -1  -4  472.44   12.18
   0  -1  -4  462.43   12.23
   0   1   4  477.96   12.17
   0   1   4  476.42   12.11
  -1  -1  -4   50.07    1.45
  -1  -1  -4   48.40    1.47
   1   1   4   50.81    1.46
   1   1   4   49.88    1.43
  -2  -1  -4    5.99    0.49
  -2  -1  -4    6.56    0.56
   2   1   4    6.35    0.49
   2   1   4    6.82    0.60
   2   1   4    6.79    0.51
  -3  -1  -4   21.84    0.94
  -3  -1  -4   21.17    0.88
   3   1   4   22.84    0.93
   3   1   4   21.79    0.90
   3   1   4   22.72    0.88
  -4  -1  -4  211.61    5.71
  -4  -1  -4  211.24    5.70
   4   1   4  216.14    5.68
   4   1   4  214.00    5.71
   4   1   4  215.36    5.74
  -5  -1  -4  104.55    2.98
   5   1   4  105.05    2.94
   5   1   4  102.40    3.05
   5   1   4  104.73    3.01
  -6  -1  -4    0.68    0.50
   6   1   4    0.34    0.35
   6   1   4    1.32    0.48
  -7  -1  -4    0.14    0.56
   7   1   4    0.65    0.49
   7   1   4   -0.44    0.51
  -8  -1  -4   23.04    1.33
  -8  -1  -4   20.72    2.27
   8   1   4   21.03    1.38
  10  -2  -4    1.30    0.65
 -10   2   4    3.55    1.64
   9  -2  -4   23.50    1.32
  -9   2   4   21.05    1.84
   8  -2  -4    1.87    0.54
   8  -2  -4    0.65    0.36
  -8   2   4    1.05    0.95
   7  -2  -4   43.89    1.41
   7  -2  -4   44.46    1.61
  -7   2   4   42.58    1.88
   6  -2  -4    9.44    0.87
   6  -2  -4    9.59    0.92
   6  -2  -4    8.95    0.60
  -6   2   4    9.74    1.18
   5  -2  -4  188.48    5.11
   4  -2  -4   38.41    1.14
   4  -2  -4   41.16    1.17
   4  -2  -4   39.08    1.45
   4  -2  -4   39.20    1.34
   3  -2  -4    5.46    0.42
   3  -2  -4    4.45    0.73
  -3   2   4    5.61    0.40
   2  -2  -4    0.83    0.24
  -2   2   4    1.06    0.24
   1  -2  -4  154.05    4.10
   1  -2  -4  154.13    4.02
  -1   2   4  154.50    4.10
  -1   2   4  156.02    4.03
   0  -2  -4  251.24    6.47
   0  -2  -4  242.08    6.48
   0   2   4  248.88    6.43
   0   2   4  248.28    6.47
  -1  -2  -4   10.45    0.62
  -1  -2  -4   10.07    0.57
   1   2   4   10.15    0.56
   1   2   4   11.25    0.58
  -2  -2  -4    0.75    0.38
  -2  -2  -4    0.85    0.28
   2   2   4    0.54    0.31
   2   2   4    0.97    0.30
   2   2   4    1.29    0.30
  -3  -2  -4   65.54    2.02
  -3  -2  -4   65.24    1.99
   3   2   4   69.05    2.02
   3   2   4   65.07    1.95
   3   2   4   66.09    2.01
  -4  -2  -4   88.87    2.58
  -4  -2  -4   84.73    2.57
   4   2   4   88.53    2.59
   4   2   4   84.66    2.50
   4   2   4   90.28    2.62
  -5  -2  -4   56.89    1.85
   5   2   4   52.72    1.73
   5   2   4   56.01    1.86
  -6  -2  -4    4.54    0.66
   6   2   4    5.00    0.68
   6   2   4    5.12    0.63
  -7  -2  -4    7.08    1.03
   7   2   4    6.14    0.75
  -8  -2  -4   17.05    1.36
  -8  -2  -4   13.37    2.08
   8   2   4   17.95    1.96
  10  -3  -4    0.09    0.65
 -10   3   4   -0.05    1.35
   9  -3  -4    1.42    0.66
  -9   3   4   -0.03    1.08
   8  -3  -4    4.33    0.66
   8  -3  -4    5.25    0.65
  -8   3   4    5.38    1.12
   7  -3  -4   83.86    2.52
   7  -3  -4   78.94    2.61
   6  -3  -4   12.35    0.93
   6  -3  -4   11.88    0.66
   6  -3  -4    9.66    1.05
   5  -3  -4   36.41    1.14
   5  -3  -4   38.48    1.15
   5  -3  -4   36.64    1.59
   5  -3  -4   35.24    1.36
   4  -3  -4    3.34    0.47
   4  -3  -4    3.71    0.70
   4  -3  -4    3.17    0.42
   3  -3  -4   53.52    1.57
   3  -3  -4   52.78    1.89
  -3   3   4   54.21    1.57
   2  -3  -4    4.44    0.51
  -2   3   4    4.95    0.34
  -2   3   4    4.70    0.47
   1  -3  -4   39.63    1.18
   1  -3  -4   39.51    1.24
   1  -3  -4   40.86    1.29
  -1   3   4   39.61    1.20
  -1   3   4   40.49    1.26
   0  -3  -4   21.63    0.80
   0  -3  -4   21.53    0.89
   0  -3  -4   20.80    0.82
   0   3   4   21.49    0.82
   0   3   4   21.70    0.81
  -1  -3  -4    1.06    0.30
  -1  -3  -4    1.82    0.40
   1   3   4    1.52    0.32
   1   3   4    1.08    0.30
  -2  -3  -4    3.43    0.46
  -2  -3  -4    2.11    0.35
   2   3   4    2.67    0.40
   2   3   4    3.85    0.66
   2   3   4    2.72    0.40
  -3  -3  -4    0.71    0.51
  -3  -3  -4    0.79    0.38
   3   3   4    1.35    0.41
   3   3   4    1.25    0.38
   3   3   4    0.82    0.42
  -4  -3  -4   38.55    1.47
   4   3   4   38.33    1.44
   4   3   4   35.75    1.32
   4   3   4   37.21    1.47
   5   3   4   11.62    1.06
  -6  -3  -4    4.11    0.78
   6   3   4    2.90    0.64
  -7  -3  -4    8.11    1.22
   7   3   4    5.29    0.83
  10  -4  -4    1.28    0.63
  10  -4  -4    0.12    0.52
   9  -4  -4    3.18    0.66
   9  -4  -4    3.52    0.56
   8  -4  -4   40.51    1.85
   8  -4  -4   44.11    1.68
   8  -4  -4   42.36    1.45
   7  -4  -4   67.24    2.23
   7  -4  -4   61.24    1.92
   7  -4  -4   64.13    1.84
   7  -4  -4   64.85    2.12
   6  -4  -4   21.89    0.92
   6  -4  -4   21.04    0.85
   6  -4  -4   21.67    1.38
   6  -4  -4   22.77    1.12
   5  -4  -4    5.67    0.57
   5  -4  -4    4.10    1.12
   5  -4  -4    5.75    0.57
   5  -4  -4    4.09    0.53
   4  -4  -4   28.88    1.49
   4  -4  -4   30.60    1.02
   4  -4  -4   29.60    1.07
   3  -4  -4   52.21    1.61
   3  -4  -4   52.10    2.02
   3  -4  -4   52.58    1.52
  -3   4   4   53.56    1.60
   2  -4  -4   39.32    1.33
   2  -4  -4   39.11    1.23
  -2   4   4   41.08    1.31
  -2   4   4   41.16    1.23
   1  -4  -4    2.41    0.34
   1  -4  -4    3.66    0.55
   1  -4  -4    3.91    0.63
  -1   4   4    2.57    0.33
  -1   4   4    2.63    0.36
   0  -4  -4   12.40    0.70
   0  -4  -4   12.86    0.81
   0  -4  -4   11.87    0.76
   0   4   4   12.54    0.71
   0   4   4   12.74    0.73
  -1  -4  -4   28.49    1.11
  -1  -4  -4   30.81    1.22
  -1  -4  -4   29.65    1.18
   1   4   4   31.00    1.20
   1   4   4   30.15    1.15
  -2  -4  -4    6.15    0.84
  -2  -4  -4    7.90    0.71
   2   4   4    7.06    0.79
   2   4   4    6.68    0.79
   2   4   4    6.92    0.68
  -3  -4  -4    7.42    0.91
   3   4   4    6.82    0.84
   3   4   4    6.36    1.02
   3   4   4    5.08    0.74
  -4  -4  -4    9.12    1.03
   4   4   4    9.88    1.01
  -5  -4  -4    1.42    0.67
   5   4   4    0.53    0.58
  -6  -4  -4    5.29    0.87
   6   4   4    4.68    0.77
  10  -5  -4    0.73    0.65
  10  -5  -4    1.08    0.74
   9  -5  -4    2.23    0.50
   9  -5  -4    3.34    0.64
   8  -5  -4   16.90    0.98
   8  -5  -4   17.74    0.94
   8  -5  -4   18.71    1.19
   7  -5  -4   30.97    1.38
   7  -5  -4   31.29    1.18
   7  -5  -4   25.82    1.63
   7  -5  -4   32.55    1.11
   6  -5  -4   26.22    1.04
   6  -5  -4   26.98    1.03
   6  -5  -4   26.12    1.22
   6  -5  -4   23.11    1.66
   5  -5  -4   24.57    1.70
   5  -5  -4   28.03    1.05
   5  -5  -4   26.54    1.05
   4  -5  -4   34.23    1.23
   4  -5  -4   33.32    1.75
   4  -5  -4   34.79    1.20
   3  -5  -4   44.40    1.39
   3  -5  -4   40.56    1.93
   3  -5  -4   43.37    1.46
  -3   5   4   43.78    1.45
  -3   5   4   45.31    1.34
   2  -5  -4   41.44    1.30
   2  -5  -4   40.91    1.40
   2  -5  -4   40.19    1.33
  -2   5   4   39.99    1.34
  -2   5   4   35.88    1.59
   1  -5  -4  122.68    3.47
   1  -5  -4  122.36    3.41
  -1   5   4  123.91    3.44
  -1   5   4  126.13    3.43
   0  -5  -4   41.62    1.58
   0  -5  -4   41.59    1.46
   0  -5  -4   40.29    1.38
   0   5   4   40.72    1.40
   0   5   4   41.45    1.43
  -1  -5  -4    1.15    0.37
  -1  -5  -4    1.44    0.52
  -1  -5  -4    1.45    0.47
   1   5   4    0.63    0.45
   1   5   4    1.00    0.39
  -2  -5  -4   29.84    1.40
   2   5   4   29.86    1.89
   2   5   4   30.22    1.28
  -3  -5  -4   38.90    1.61
   3   5   4   38.92    1.58
  -4  -5  -4   26.31    1.46
   4   5   4   27.36    1.45
  -5  -5  -4    2.44    0.83
   5   5   4    2.56    0.73
  -6  -5  -4   -0.81    0.90
   9  -6  -4   -0.71    0.61
   9  -6  -4    1.06    0.49
   8  -6  -4    0.27    0.45
   8  -6  -4    0.42    0.44
   8  -6  -4    0.98    0.59
   7  -6  -4    7.91    0.85
   7  -6  -4    8.32    0.80
   7  -6  -4    7.48    1.01
   6  -6  -4   18.42    1.09
   6  -6  -4   15.79    0.97
   6  -6  -4   16.97    0.95
   6  -6  -4   19.23    1.85
   5  -6  -4   13.08    1.64
   5  -6  -4   16.93    0.93
   5  -6  -4   17.02    0.92
   4  -6  -4    2.55    0.42
   4  -6  -4    4.33    0.93
   4  -6  -4    2.54    0.46
   3  -6  -4    7.40    0.77
   3  -6  -4    7.21    0.81
   3  -6  -4    7.22    0.63
   3  -6  -4    5.87    1.04
  -3   6   4    7.88    0.63
  -3   6   4    8.95    0.72
   2  -6  -4   10.24    0.83
   2  -6  -4   10.41    0.70
   2  -6  -4   10.59    0.90
  -2   6   4   10.40    0.78
  -2   6   4    9.41    0.76
   1  -6  -4   48.50    1.89
   1  -6  -4   48.92    1.60
   1  -6  -4   50.73    1.68
  -1   6   4   50.44    1.66
   0  -6  -4   34.97    1.39
   0  -6  -4   33.30    1.27
   0  -6  -4   34.32    1.43
   0   6   4   32.58    1.32
  -1  -6  -4    1.75    0.61
  -1  -6  -4    1.88    0.53
   1   6   4    0.58    0.46
  -2  -6  -4   15.30    1.19
  -3  -6  -4   53.41    2.05
   3   6   4   58.07    2.08
  -4  -6  -4   35.78    1.80
   4   6   4   38.74    1.78
  -5  -6  -4   -0.22    0.93
   5   6   4   -1.50    0.91
   9  -7  -4    3.54    0.75
   8  -7  -4    8.17    1.13
   8  -7  -4   11.63    1.17
   8  -7  -4    9.27    1.07
   7  -7  -4    5.23    0.62
   7  -7  -4    8.18    1.16
   6  -7  -4    1.64    0.52
   6  -7  -4    3.09    0.59
   6  -7  -4    2.96    0.73
   5  -7  -4    0.61    0.53
   5  -7  -4    0.05    0.46
   4  -7  -4   10.37    0.71
   4  -7  -4   11.42    0.94
   4  -7  -4   11.05    0.94
   3  -7  -4    6.59    0.92
   3  -7  -4    5.33    0.88
   3  -7  -4    6.84    0.68
  -3   7   4    6.32    0.71
   2  -7  -4   10.39    0.77
   2  -7  -4    9.61    1.05
   2  -7  -4    9.44    0.99
  -2   7   4   10.14    0.85
   1  -7  -4   13.01    1.11
   1  -7  -4   12.26    0.83
   1  -7  -4   13.61    1.06
  -1   7   4    9.06    0.92
   0  -7  -4   -0.19    0.65
   0  -7  -4   -0.08    0.53
   0   7   4   -0.40    0.50
  -1  -7  -4    4.12    0.75
  -1  -7  -4    3.21    0.67
  -2  -7  -4    3.15    0.77
  -3  -7  -4   18.64    1.45
  -4  -7  -4    5.26    1.02
   4   7   4    5.89    0.95
   8  -8  -4   24.85    1.41
   8  -8  -4   23.00    1.30
   7  -8  -4    5.12    0.68
   7  -8  -4    6.34    1.01
   6  -8  -4   -0.24    0.56
   6  -8  -4    0.07    0.60
   6  -8  -4   -1.02    0.57
   5  -8  -4    8.69    1.02
   5  -8  -4    6.31    0.71
   5  -8  -4    7.85    1.03
   4  -8  -4   35.32    1.29
   4  -8  -4   37.04    1.56
   4  -8  -4   34.67    1.51
  -4   8   4   35.57    1.36
   3  -8  -4   17.93    1.25
   3  -8  -4   17.55    1.21
   3  -8  -4   18.28    0.95
  -3   8   4   19.02    1.15
   2  -8  -4    1.05    0.58
   2  -8  -4    1.78    0.69
  -2   8   4    1.23    0.48
   1  -8  -4    0.85    0.70
   1  -8  -4   -0.23    0.66
   0  -8  -4   15.39    1.32
   0  -8  -4   13.89    1.36
  -1  -8  -4   13.25    1.40
  -1  -8  -4   16.08    1.42
  -2  -8  -4    0.34    0.86
   7  -9  -4    5.69    0.80
   7  -9  -4    7.38    1.12
   6  -9  -4    0.09    0.67
   6  -9  -4   -1.34    0.65
   5  -9  -4    9.54    1.21
   5  -9  -4    6.68    0.85
   4  -9  -4   27.26    1.59
   4  -9  -4   30.43    1.59
   3  -9  -4   19.01    1.44
   2  -9  -4    5.75    0.81
   2  -9  -4    5.84    0.98
   1  -9  -4    7.80    1.31
   1  -9  -4    5.38    1.02
   0  -9  -4   11.64    1.55
   0  -9  -4   13.25    1.50
  -1  -9  -4   18.87    1.66
   5 -10  -4    0.99    0.81
   4 -10  -4    6.19    0.90
   4 -10  -4    7.20    1.01
   3 -10  -4    3.83    0.87
   3 -10  -4    4.48    1.04
   2 -10  -4    0.79    0.80
   0 -12   5   -0.98    0.94
   0 -12   5   -0.12    1.36
   1 -12   5    7.28    1.11
   1 -12   5    7.64    1.04
   2 -12   5    1.11    0.97
   2 -12   5    0.76    0.89
   3 -12   5   -0.75    0.73
   3 -12   5    0.49    0.87
   4 -12   5    2.86    1.02
   4 -12   5    1.07    0.85
   5 -12   5   13.61    1.60
   5 -12   5   14.88    1.60
   6 -12   5    9.82    1.65
   2  11  -5   26.36    1.44
  -2 -11   5   21.69    1.68
   1  11  -5   16.43    1.12
  -1 -11   5   16.41    1.52
  -1 -11   5   15.84    1.83
   0  11  -5    1.12    0.46
   0 -11   5    0.14    0.85
   0 -11   5    0.84    0.83
   1 -11   5    0.76    0.83
   1 -11   5    0.57    0.77
   2 -11   5    3.19    0.84
   2 -11   5    1.23    0.80
   3 -11   5   26.17    1.65
   3 -11   5   32.17    1.70
   4 -11   5    1.07    0.68
   5 -11   5    5.50    0.85
   6 -11   5    1.22    0.77
   7 -11   5    1.83    0.83
   8 -11   5    0.31    0.87
   3  10  -5    0.53    0.66
  -3 -10   5    0.79    0.82
  -3 -10   5    1.00    0.97
   2  10  -5   33.50    1.58
  -2 -10   5   30.61    1.96
  -2 -10   5   32.74    1.65
   1  10  -5   44.80    1.56
  -1 -10   5   45.48    1.83
  -1 -10   5   44.47    2.09
  -1 -10   5   41.58    1.50
   0  10  -5    3.04    0.42
   0 -10   5    4.20    0.65
   0 -10   5    2.81    0.80
   0 -10   5    4.05    0.82
   1 -10   5    0.62    0.67
   1 -10   5    1.26    0.72
   2 -10   5   30.28    1.50
   2 -10   5   28.46    1.57
   3 -10   5   50.75    2.03
   4 -10   5    9.42    1.23
   5 -10   5   -0.55    0.59
   6 -10   5    7.44    1.27
  -7  10  -5   23.17    2.32
   7 -10   5   20.18    1.45
  -8  10  -5    8.50    1.93
   8 -10   5    7.98    1.34
   4   9  -5    1.22    0.76
  -4  -9   5    1.76    0.71
  -4  -9   5    1.53    0.94
   3   9  -5    4.15    0.63
  -3  -9   5    4.22    0.82
  -3  -9   5    3.58    0.87
   2   9  -5   42.87    1.53
  -2  -9   5   40.84    1.51
  -2  -9   5   43.36    2.01
  -2  -9   5   42.32    2.04
  -2  -9   5   38.59    2.19
   1   9  -5   25.07    1.03
  -1  -9   5   23.16    1.55
  -1  -9   5   25.23    1.56
  -1  -9   5   22.37    1.00
   0   9  -5    0.52    0.32
   0  -9   5    1.64    0.86
   0  -9   5    0.25    0.63
   1  -9   5   16.46    1.62
   1  -9   5   13.69    1.21
   2  -9   5   36.03    1.59
   2  -9   5   34.92    1.85
   3  -9   5   37.80    1.62
   3  -9   5   36.97    1.87
   4  -9   5   16.38    1.18
   5  -9   5    2.45    0.58
  -6   9  -5   24.09    2.10
   6  -9   5   25.34    1.41
  -7   9  -5   20.23    2.15
   7  -9   5   22.94    1.45
  -8   9  -5   14.28    2.30
   8  -9   5   11.88    1.31
  -9   9  -5    7.79    2.02
   9  -9   5    5.60    0.84
   5   8  -5    3.79    0.97
  -5  -8   5    4.54    0.96
   4   8  -5    6.22    0.74
  -4  -8   5    6.76    1.09
  -4  -8   5    5.64    0.89
  -3  -8   5   -0.89    0.53
  -3  -8   5    0.00    0.65
   2   8  -5    4.65    0.72
  -2  -8   5    4.68    0.61
  -2  -8   5    2.94    0.43
  -2  -8   5    5.20    0.88
  -2  -8   5    3.91    0.71
   1   8  -5    0.53    0.33
  -1  -8   5   -0.24    0.50
  -1  -8   5    0.39    0.32
  -1  -8   5    0.03    0.71
  -1  -8   5   -0.42    0.70
   0   8  -5    8.60    0.59
   0   8  -5    7.83    0.84
   0  -8   5    9.34    1.19
   0  -8   5    9.91    1.13
  -1   8  -5   13.41    0.96
   1  -8   5   14.21    1.11
   1  -8   5   13.78    1.26
  -2   8  -5    7.23    0.80
   2  -8   5    8.57    0.98
   2  -8   5    7.73    1.23
  -3   8  -5    0.70    0.38
   3  -8   5    0.81    0.85
   3  -8   5    2.04    0.53
  -4   8  -5   17.08    1.66
   4  -8   5   17.19    1.07
   4  -8   5   16.36    1.88
   5  -8   5   20.53    1.15
  -6   8  -5    7.77    1.50
   6  -8   5    7.48    1.00
  -7   8  -5    1.16    1.37
   7  -8   5    1.67    0.58
  -8   8  -5    9.50    2.04
   8  -8   5    9.91    1.18
  -9   8  -5   28.12    2.54
   9  -8   5   28.67    1.64
   6   7  -5    5.26    0.80
   5   7  -5   20.93    1.31
  -5  -7   5   19.64    1.50
  -5  -7   5   19.59    1.01
   4   7  -5   20.44    1.15
  -4  -7   5   17.87    0.96
  -4  -7   5   20.07    1.46
   3   7  -5   16.31    0.96
  -3  -7   5   17.10    0.93
  -3  -7   5   16.83    0.91
  -3  -7   5   15.73    1.27
   2   7  -5   12.77    0.92
   2   7  -5   11.96    0.78
  -2  -7   5   11.54    1.14
  -2  -7   5   11.22    0.75
  -2  -7   5   11.95    0.84
   1   7  -5   17.77    0.83
   1   7  -5   18.00    1.01
  -1  -7   5   18.78    1.23
  -1  -7   5   15.51    0.83
  -1  -7   5   19.61    1.21
   0   7  -5    1.29    0.39
   0   7  -5    0.86    0.27
   0  -7   5    2.18    0.72
   0  -7   5    1.19    0.48
  -1   7  -5    5.87    0.72
   1  -7   5    6.82    0.90
   1  -7   5    7.73    1.10
  -2   7  -5   23.94    1.08
   2  -7   5   25.40    1.49
   2  -7   5   22.99    1.16
  -3   7  -5   28.80    1.20
  -3   7  -5   32.96    1.68
   3  -7   5   33.10    1.68
   3  -7   5   27.61    1.25
  -4   7  -5    1.28    1.03
   4  -7   5    0.55    0.82
   4  -7   5   -0.11    0.51
  -5   7  -5    6.36    1.26
   5  -7   5    5.06    0.87
   5  -7   5    5.12    0.80
  -6   7  -5    2.77    1.19
   6  -7   5    4.47    0.75
   6  -7   5    2.96    0.50
  -7   7  -5   10.21    1.92
   7  -7   5    9.19    1.01
  -8   7  -5    3.93    1.80
   8  -7   5    2.74    0.62
   8  -7   5    2.34    0.47
  -9   7  -5   13.05    2.43
   9  -7   5   15.11    1.03
   9  -7   5   16.63    1.37
   7   6  -5    5.57    0.84
   6   6  -5   13.15    1.17
   5   6  -5    9.16    1.00
  -5  -6   5    9.67    1.17
   4   6  -5   11.63    1.06
  -4  -6   5    9.64    0.68
  -4  -6   5   10.35    1.38
  -4  -6   5    9.84    1.20
   3   6  -5   38.95    1.47
   3   6  -5   40.25    1.41
  -3  -6   5   39.07    1.30
  -3  -6   5   36.97    1.38
  -3  -6   5   39.19    1.59
   2   6  -5  133.87    3.76
   2   6  -5  136.81    3.67
  -2  -6   5  132.52    3.67
  -2  -6   5  131.62    3.65
  -2  -6   5  132.92    3.83
   1   6  -5   64.92    1.99
   1   6  -5   65.16    1.87
  -1  -6   5   66.84    2.09
  -1  -6   5   58.56    2.50
   0   6  -5    0.09    0.31
   0   6  -5    0.46    0.24
   0  -6   5    0.69    0.41
   0  -6   5    0.33    0.62
  -1   6  -5   39.25    1.14
  -1   6  -5   39.75    1.36
   1  -6   5   39.32    1.59
   1  -6   5   39.30    1.42
  -2   6  -5  186.09    5.11
  -2   6  -5  189.54    5.29
   2  -6   5  194.03    5.33
   2  -6   5  187.56    5.12
  -3   6  -5  107.81    3.36
   3  -6   5   99.75    3.06
   3  -6   5  118.43    3.37
  -4   6  -5   -0.24    0.94
   4  -6   5    0.99    0.38
   4  -6   5    0.70    0.61
  -5   6  -5    1.28    1.16
   5  -6   5    2.09    0.80
   5  -6   5    0.72    0.47
   5  -6   5    1.34    0.53
  -6   6  -5   87.58    4.29
  -6   6  -5  109.95    2.82
   6  -6   5  110.51    2.78
   6  -6   5  103.71    3.36
  -7   6  -5   33.95    1.19
  -7   6  -5   27.89    2.33
   7  -6   5   34.82    1.10
   7  -6   5   34.52    1.43
  -8   6  -5    0.91    1.82
  -8   6  -5    0.02    0.44
   8  -6   5    0.48    0.33
   8  -6   5    0.97    0.54
  -9   6  -5    4.31    1.97
   9  -6   5    3.11    0.48
   9  -6   5    4.02    0.73
  10  -6   5    0.35    0.50
   7   5  -5   16.78    1.28
  -7  -5   5   16.83    2.14
   6   5  -5    6.46    0.98
   5   5  -5    0.53    0.45
  -5  -5   5   -0.05    0.60
   4   5  -5    2.12    0.46
   4   5  -5    1.58    0.41
  -4  -5   5    1.55    0.40
  -4  -5   5    2.59    0.32
  -4  -5   5    2.10    0.51
   3   5  -5   81.47    2.42
   3   5  -5   82.54    2.41
  -3  -5   5   80.62    2.41
  -3  -5   5   80.91    2.27
  -3  -5   5   80.45    2.49
   2   5  -5  170.33    4.58
   2   5  -5  169.22    4.54
  -2  -5   5  168.58    4.62
  -2  -5   5  171.65    4.77
  -2  -5   5  162.48    4.56
   1   5  -5    3.93    0.51
   1   5  -5    4.26    0.57
  -1  -5   5    4.41    0.70
  -1  -5   5    4.19    0.72
   0   5  -5   18.65    0.70
   0   5  -5   18.81    0.83
   0  -5   5   17.69    1.02
   0  -5   5   18.54    0.88
  -1   5  -5   87.66    2.37
  -1   5  -5   85.70    2.50
  -1   5  -5   88.95    2.63
   1  -5   5   89.23    2.53
   1  -5   5   89.58    2.67
  -2   5  -5  290.86    7.59
  -2   5  -5  297.70    7.76
   2  -5   5  278.42    7.73
   2  -5   5  289.39    7.60
  -3   5  -5   91.13    2.78
   3  -5   5   81.20    2.62
   3  -5   5   82.54    2.42
  -4   5  -5    8.78    1.16
  -4   5  -5    6.96    0.44
   4  -5   5    6.94    0.73
   4  -5   5    6.68    1.01
   4  -5   5    6.71    0.66
  -5   5  -5   19.05    0.74
  -5   5  -5   18.11    1.74
   5  -5   5   19.57    0.70
   5  -5   5   19.59    1.38
   5  -5   5   18.00    0.97
   5  -5   5   19.29    0.95
  -6   5  -5  191.68    5.70
  -6   5  -5  190.27    5.05
   6  -5   5  187.55    5.16
   6  -5   5  190.85    5.01
  -7   5  -5   75.59    3.11
  -7   5  -5   76.66    2.23
   7  -5   5   71.52    2.29
   7  -5   5   77.54    2.17
  -8   5  -5   -0.74    0.44
  -8   5  -5    1.32    1.61
   8  -5   5   -0.38    0.34
  -9   5  -5    2.29    1.89
  10  -5   5   11.43    1.02
   8   4  -5   -0.45    0.56
   7   4  -5    7.50    1.06
  -7  -4   5   10.37    1.14
   6   4  -5    2.54    0.58
  -6  -4   5    3.97    0.70
   5   4  -5   61.98    2.04
  -5  -4   5   63.72    2.03
   4   4  -5    5.69    0.68
   4   4  -5    5.64    0.75
  -4  -4   5    6.08    0.72
  -4  -4   5    5.67    0.84
   3   4  -5   67.84    2.08
   3   4  -5   69.43    2.10
  -3  -4   5   69.65    2.09
  -3  -4   5   70.01    2.11
   2   4  -5   52.41    1.62
   2   4  -5   52.33    1.61
  -2  -4   5   53.82    1.66
   1   4  -5   43.35    1.50
   1   4  -5   46.12    1.38
  -1  -4   5   46.34    1.44
   0   4  -5   36.54    1.12
   0   4  -5   36.72    1.29
   0   4  -5   36.24    1.21
   0  -4   5   38.48    1.23
   0  -4   5   37.56    1.31
  -1   4  -5   48.04    1.60
   1  -4   5   51.69    1.47
   1  -4   5   46.75    1.53
   1  -4   5   46.58    1.47
  -2   4  -5  242.89    6.29
  -2   4  -5  256.22    6.55
   2  -4   5  238.58    6.38
   2  -4   5  245.00    6.41
   2  -4   5  232.79    6.54
  -3   4  -5   28.69    0.92
  -3   4  -5   29.93    1.42
   3  -4   5   27.05    1.04
   3  -4   5   27.49    1.00
   3  -4   5   29.18    1.30
  -4   4  -5   26.49    1.55
  -4   4  -5   25.73    0.88
   4  -4   5   24.99    1.02
  -5   4  -5    8.26    0.58
  -5   4  -5    7.23    1.42
   5  -4   5    8.30    0.55
   5  -4   5    7.05    0.73
  -6   4  -5   91.39    2.58
  -6   4  -5   92.20    3.21
   6  -4   5   87.28    2.64
   6  -4   5   92.60    2.55
  -7   4  -5   41.43    2.26
  -7   4  -5   38.92    1.40
   7  -4   5   40.43    1.35
   7  -4   5   38.82    1.42
  -8   4  -5    1.11    1.35
   8  -4   5    0.62    0.46
  -9   4  -5    0.30    1.74
   9  -4   5    1.67    0.49
   8   3  -5    1.65    0.61
  -8  -3   5    1.09    1.24
   7   3  -5    2.12    0.58
  -7  -3   5    3.18    0.80
   6   3  -5   31.13    1.36
   6   3  -5   30.35    1.21
   5   3  -5  212.86    5.79
   5   3  -5  216.61    5.88
  -5  -3   5  219.67    5.90
   4   3  -5   21.05    0.88
   4   3  -5   21.63    1.01
  -4  -3   5   19.72    1.01
  -4  -3   5   20.23    0.93
   3   3  -5   19.35    0.88
   3   3  -5   20.71    1.02
  -3  -3   5   19.90    0.86
   2   3  -5    1.42    0.30
   2   3  -5    1.41    0.24
  -2  -3   5    1.66    0.29
  -2  -3   5    1.62    0.23
   1   3  -5  181.26    4.77
   1   3  -5  176.96    4.78
  -1  -3   5  180.89    4.75
  -1  -3   5  184.93    4.79
   0   3  -5  231.20    6.11
   0  -3   5  236.38    6.11
   0  -3   5  234.11    6.12
   0  -3   5  234.13    6.12
  -1   3  -5    2.24    0.54
   1  -3   5    3.69    0.38
   1  -3   5    3.23    0.53
  -2   3  -5   18.14    0.62
  -2   3  -5   18.01    0.95
   2  -3   5   17.80    0.73
   2  -3   5   17.24    0.68
  -3   3  -5   84.38    2.27
  -3   3  -5   82.36    2.52
   3  -3   5   83.01    2.36
  -4   3  -5   49.03    1.45
  -4   3  -5   49.56    1.79
   4  -3   5   48.27    1.43
   4  -3   5   47.22    1.53
  -5   3  -5    3.08    0.77
  -5   3  -5    4.46    0.57
   5  -3   5    4.12    0.48
   5  -3   5    4.58    0.54
  -6   3  -5   27.40    1.61
  -6   3  -5   24.45    1.07
   6  -3   5   26.76    1.03
   6  -3   5   25.58    1.07
  -7   3  -5    6.07    0.78
   7  -3   5    5.66    0.70
   7  -3   5    5.64    0.72
  -8   3  -5    2.01    1.32
   8  -3   5    0.89    0.43
  -9   3  -5    0.61    1.54
   9  -3   5    1.46    0.52
   9   2  -5   19.98    1.44
   8   2  -5   -1.12    0.56
  -8  -2   5   -0.02    1.00
   7   2  -5    0.78    0.51
   7   2  -5    0.58    0.35
   6   2  -5   78.64    2.33
   6   2  -5   78.44    2.46
   5   2  -5  162.41    4.43
   5   2  -5  166.34    4.56
   4   2  -5   41.70    1.30
   4   2  -5   41.74    1.44
   3   2  -5    0.46    0.31
   3   2  -5    0.65    0.21
  -3  -2   5    0.94    0.25
   2   2  -5  104.70    2.82
   2   2  -5  101.19    2.89
  -2  -2   5  106.58    2.79
  -2  -2   5  107.83    2.82
   1   2  -5  176.86    4.72
  -1  -2   5  183.03    4.73
  -1  -2   5  182.63    4.73
   0   2  -5  182.66    4.91
   0  -2   5  190.78    4.89
   0  -2   5  188.36    4.92
  -1   2  -5   24.02    0.85
  -1   2  -5   24.70    0.94
   1  -2   5   23.17    0.77
  -2   2  -5   16.61    0.65
  -2   2  -5   19.83    0.93
  -2   2  -5   17.31    0.75
   2  -2   5   17.21    0.73
  -3   2  -5   74.34    2.20
  -3   2  -5   75.24    2.14
  -3   2  -5   83.81    2.42
   3  -2   5   75.36    2.19
   3  -2   5   75.76    2.14
  -4   2  -5   77.82    2.31
  -4   2  -5   79.61    2.59
  -4   2  -5   81.90    2.27
   4  -2   5   79.36    2.24
   4  -2   5   79.58    2.30
  -5   2  -5   18.01    0.93
  -5   2  -5   18.28    1.37
  -5   2  -5   17.85    0.85
   5  -2   5   17.75    0.83
   5  -2   5   16.75    0.87
  -6   2  -5    5.06    0.70
   6  -2   5    5.24    0.67
   6  -2   5    4.92    0.68
  -7   2  -5    9.00    1.48
   7  -2   5    8.92    0.79
   7  -2   5    8.90    0.81
  -8   2  -5    4.80    1.17
   8  -2   5    3.49    0.53
  -9   2  -5    0.84    1.42
   9  -2   5    1.01    0.53
   9   1  -5    8.90    1.16
   8   1  -5    6.42    1.03
  -8  -1   5    8.22    1.44
   7   1  -5    0.00    0.33
   7   1  -5   -0.28    0.47
   6   1  -5   48.28    1.55
   6   1  -5   48.31    1.82
   5   1  -5   65.62    1.88
   5   1  -5   63.30    2.03
   4   1  -5   13.20    0.59
   4   1  -5   12.76    0.81
   3   1  -5    2.01    0.35
   3   1  -5    2.62    0.33
   2   1  -5   66.32    1.79
  -2  -1   5   64.24    1.80
   1   1  -5  103.45    2.78
  -1  -1   5  103.89    2.77
   0   1  -5   94.57    2.57
   0  -1   5   98.34    2.57
   0  -1   5   91.02    2.51
  -1   1  -5  152.33    4.23
  -1   1  -5  159.07    4.18
   1  -1   5  160.55    4.18
  -2   1  -5   41.78    1.27
  -2   1  -5   41.80    1.32
   2  -1   5   42.84    1.31
  -3   1  -5   81.79    2.40
  -3   1  -5   85.64    2.37
   3  -1   5   85.34    2.36
   3  -1   5   85.04    2.39
  -4   1  -5   39.87    1.39
  -4   1  -5   41.05    1.35
   4  -1   5   41.34    1.34
   4  -1   5   42.13    1.38
  -5   1  -5   73.39    2.64
  -5   1  -5   73.30    2.21
  -5   1  -5   73.12    2.18
   5  -1   5   72.38    2.19
   5  -1   5   70.96    2.16
  -6   1  -5   41.08    1.59
  -6   1  -5   40.85    1.49
  -6   1  -5   39.86    2.02
   6  -1   5   39.60    1.41
   6  -1   5   39.50    1.44
  -7   1  -5    8.83    1.61
  -7   1  -5   12.17    0.96
   7  -1   5    9.37    0.95
   7  -1   5    9.92    0.82
  -8   1  -5    4.63    1.27
   8  -1   5    2.20    0.56
  -9   1  -5    4.53    1.69
   9  -1   5    6.92    1.12
   9   0  -5    1.67    0.62
   8   0  -5   10.33    1.08
   8   0  -5    8.85    0.83
  -8   0   5   11.22    1.23
  -8   0   5   11.39    1.26
   7   0  -5    1.50    0.36
   7   0  -5    2.39    0.53
   6   0  -5    0.53    0.29
   6   0  -5    1.30    0.44
   5   0  -5    4.01    0.48
   5   0  -5    2.55    0.45
   4   0  -5    1.42    0.37
   4   0  -5    2.51    0.38
   3   0  -5    4.17    0.38
  -3   0   5    3.64    0.33
   2   0  -5    4.01    0.42
  -2   0   5    4.10    0.36
   1   0  -5   13.32    0.60
  -1   0   5   13.35    0.56
   0   0  -5    0.57    0.27
   0   0   5    0.71    0.30
  -1   0  -5  137.07    3.69
  -1   0  -5  136.58    3.66
   1   0   5  137.08    3.67
  -2   0  -5   45.39    1.39
  -2   0  -5   45.48    1.43
   2   0   5   46.26    1.41
  -3   0  -5    0.28    0.35
  -3   0  -5    0.71    0.28
   3   0   5    0.63    0.31
   3   0   5    0.40    0.30
  -4   0  -5    4.32    0.55
  -4   0  -5    3.41    0.41
   4   0   5    4.18    0.67
   4   0   5    3.87    0.47
   4   0   5    3.41    0.42
  -5   0  -5   44.14    1.56
  -5   0  -5   48.02    1.60
   5   0   5   47.77    1.58
   5   0   5   46.45    1.53
   5   0   5   45.29    1.67
  -6   0  -5   58.81    1.92
   6   0   5   57.33    1.92
   6   0   5   56.92    1.85
  -7   0  -5    0.41    0.56
  -7   0  -5    1.09    1.20
   7   0   5    0.44    0.49
  -8   0  -5    0.71    0.66
  -8   0  -5   -0.62    1.25
   8   0   5    0.00    0.54
   9  -1  -5   10.72    1.18
  -9   1   5   11.45    1.55
   8  -1  -5   11.79    1.14
   8  -1  -5   11.31    0.82
  -8   1   5   12.40    1.34
   7  -1  -5   17.29    1.10
   7  -1  -5   16.12    0.81
   6  -1  -5   61.08    1.80
   6  -1  -5   62.16    2.03
   5  -1  -5   38.57    1.18
   5  -1  -5   39.52    1.45
   4  -1  -5    7.63    0.45
   4  -1  -5    6.70    0.70
  -4   1   5    7.69    0.43
   3  -1  -5    1.57    0.26
   3  -1  -5    0.92    0.48
  -3   1   5    1.58    0.24
   2  -1  -5  122.84    3.32
  -2   1   5  126.12    3.32
   1  -1  -5  110.52    3.01
  -1   1   5  111.94    3.00
   0  -1  -5    0.17    0.27
   0  -1  -5    0.35    0.24
   0   1   5    0.56    0.17
   0   1   5    0.08    0.22
  -1  -1  -5   17.56    0.79
  -1  -1  -5   18.59    0.78
   1   1   5   18.30    0.70
   1   1   5   17.63    0.75
  -2  -1  -5    4.32    0.62
  -2  -1  -5    5.08    0.53
   2   1   5    4.98    0.55
   2   1   5    5.00    0.56
  -3  -1  -5   67.23    2.06
  -3  -1  -5   64.66    1.99
   3   1   5   67.41    2.00
   3   1   5   65.93    2.01
   3   1   5   69.56    2.05
  -4  -1  -5    0.92    0.47
  -4  -1  -5    0.09    0.36
   4   1   5    0.58    0.39
   4   1   5    0.53    0.37
   4   1   5    0.82    0.40
  -5  -1  -5   28.87    1.27
   5   1   5   29.02    1.23
   5   1   5   29.49    1.16
  -6  -1  -5    7.81    1.10
   6   1   5    7.85    0.93
  -7  -1  -5    3.56    0.69
   7   1   5    2.73    0.61
  -8  -1  -5    4.80    1.68
  -8  -1  -5    5.10    0.85
   8   1   5    4.39    0.77
  10  -2  -5   13.71    1.35
   9  -2  -5    5.28    0.73
  -9   2   5    5.56    1.18
   8  -2  -5    4.28    0.65
   8  -2  -5    4.50    0.67
   7  -2  -5   26.83    0.99
   7  -2  -5   25.77    1.30
   6  -2  -5   69.95    2.26
   6  -2  -5   73.01    2.22
   6  -2  -5   68.57    2.00
   5  -2  -5   41.88    1.52
   5  -2  -5   41.57    1.22
   5  -2  -5   39.65    1.19
   4  -2  -5    4.33    0.49
   4  -2  -5    4.58    0.69
  -4   2   5    4.12    0.44
   3  -2  -5   10.10    0.64
   3  -2  -5    9.91    0.92
  -3   2   5    9.53    0.55
   2  -2  -5  268.60    7.08
  -2   2   5  273.34    7.07
   1  -2  -5  270.41    7.20
  -1   2   5  280.12    7.20
   0  -2  -5   19.76    0.88
   0  -2  -5   19.32    0.79
   0   2   5   19.90    0.79
   0   2   5   20.23    0.73
  -1  -2  -5    1.85    0.40
  -1  -2  -5    2.06    0.34
   1   2   5    1.95    0.32
  -2  -2  -5   51.35    1.67
  -2  -2  -5   49.60    1.61
   2   2   5   51.10    1.61
   2   2   5   53.93    1.63
  -3  -2  -5  204.36    5.58
  -3  -2  -5  205.35    5.52
   3   2   5  203.18    5.51
   3   2   5  204.78    5.48
   3   2   5  203.28    5.50
  -4  -2  -5    7.71    0.92
   4   2   5    7.51    0.81
   4   2   5    7.41    1.07
   4   2   5    7.41    0.85
  -5  -2  -5    3.47    0.68
   5   2   5    2.65    0.55
  -6  -2  -5    2.25    0.66
   6   2   5    2.80    0.61
  -7  -2  -5   17.72    1.34
   7   2   5   18.28    1.38
  10  -3  -5    9.32    1.28
   9  -3  -5    2.01    0.67
   8  -3  -5    1.64    0.34
   8  -3  -5    1.50    0.60
   7  -3  -5   30.03    1.06
   7  -3  -5   29.91    1.41
   7  -3  -5   31.51    1.41
   7  -3  -5   29.10    1.05
   6  -3  -5   64.61    1.79
   6  -3  -5   64.64    2.10
   6  -3  -5   61.21    2.13
   6  -3  -5   62.17    1.81
   5  -3  -5   27.16    1.41
   5  -3  -5   29.78    1.01
   5  -3  -5   29.87    1.27
   4  -3  -5   14.57    0.71
   4  -3  -5   12.25    1.10
  -4   3   5   13.74    0.69
   3  -3  -5   13.53    0.72
   3  -3  -5   11.81    1.12
  -3   3   5   13.20    0.67
   2  -3  -5  225.44    6.03
  -2   3   5  231.29    6.03
   1  -3  -5  143.88    3.92
   1  -3  -5  144.41    3.90
  -1   3   5  146.17    3.90
  -1   3   5  141.79    3.82
   0  -3  -5    2.13    0.42
   0  -3  -5    2.32    0.34
   0   3   5    2.18    0.31
   0   3   5    2.16    0.36
  -1  -3  -5    0.31    0.30
  -1  -3  -5    0.07    0.44
   1   3   5   -0.48    0.33
   1   3   5    0.31    0.31
  -2  -3  -5   79.93    2.42
  -2  -3  -5   82.30    2.49
   2   3   5   80.23    2.40
   2   3   5   85.80    2.44
  -3  -3  -5  130.84    3.69
   3   3   5  127.75    3.62
   3   3   5  130.47    3.67
  -4  -3  -5   16.71    1.14
   4   3   5   16.26    1.07
  -5  -3  -5    0.06    0.65
   5   3   5    0.33    0.55
  -6  -3  -5   15.76    1.29
   6   3   5   14.46    1.33
  -7  -3  -5   28.23    1.67
   9  -4  -5   15.92    0.93
   9  -4  -5   17.23    1.46
   8  -4  -5   17.80    1.25
   8  -4  -5   17.18    1.29
   8  -4  -5   15.99    0.88
   8  -4  -5   14.75    0.85
   7  -4  -5    4.37    0.68
   7  -4  -5    5.83    0.58
   7  -4  -5    6.09    0.62
   6  -4  -5   12.90    1.06
   6  -4  -5   12.17    0.69
   6  -4  -5   12.93    1.30
   6  -4  -5   14.37    0.75
   5  -4  -5    5.61    0.65
   4  -4  -5   40.69    1.81
   4  -4  -5   42.27    1.39
  -4   4   5   40.90    1.37
   3  -4  -5    0.95    0.43
  -3   4   5    0.15    0.35
   2  -4  -5   47.62    1.53
   2  -4  -5   48.08    1.41
   2  -4  -5   48.69    1.59
  -2   4   5   48.15    1.53
  -2   4   5   47.73    1.41
   1  -4  -5   23.13    1.06
   1  -4  -5   22.90    0.95
   1  -4  -5   23.76    0.90
  -1   4   5   23.42    0.93
  -1   4   5   24.21    0.97
   0  -4  -5    0.79    0.49
   0  -4  -5    0.59    0.36
   0   4   5    0.55    0.36
   0   4   5    0.22    0.33
  -1  -4  -5    0.05    0.35
  -1  -4  -5    0.16    0.52
   1   4   5   -0.51    0.39
   1   4   5   -0.09    0.35
  -2  -4  -5   46.83    2.37
   2   4   5   51.04    1.69
  -3  -4  -5   21.69    1.27
   3   4   5   23.46    1.23
   3   4   5   24.28    1.46
  -4  -4  -5    3.32    0.73
   4   4   5    2.93    0.63
  -5  -4  -5    0.41    0.81
   5   4   5    0.54    0.61
  -6  -4  -5    7.98    1.15
   6   4   5    6.87    0.93
   9  -5  -5   24.75    1.49
   8  -5  -5   28.71    1.13
   8  -5  -5   29.98    1.53
   8  -5  -5   27.59    1.17
   7  -5  -5    1.07    0.60
   7  -5  -5    1.37    0.91
   7  -5  -5    0.72    0.37
   7  -5  -5   -0.19    0.42
   6  -5  -5    1.26    0.37
   6  -5  -5    3.06    1.25
   6  -5  -5    1.40    0.56
   6  -5  -5    2.14    0.47
   5  -5  -5   23.86    1.70
   5  -5  -5   29.49    1.13
   4  -5  -5   55.21    2.23
   4  -5  -5   57.48    1.79
   4  -5  -5   54.96    1.64
  -4   5   5   55.82    1.74
   3  -5  -5   12.34    0.70
   3  -5  -5   13.25    0.88
  -3   5   5   11.18    0.82
  -3   5   5   12.44    0.60
   2  -5  -5    2.48    0.53
   2  -5  -5    1.99    0.38
   2  -5  -5    1.94    0.37
  -2   5   5    1.39    0.38
  -2   5   5    2.02    0.38
   1  -5  -5    0.74    0.37
   1  -5  -5    0.55    0.47
  -1   5   5    0.14    0.35
  -1   5   5    0.84    0.35
   0  -5  -5   37.23    1.35
   0  -5  -5   37.05    1.44
   0   5   5   38.76    1.36
  -1  -5  -5    4.88    0.65
   1   5   5    3.59    0.49
  -2  -5  -5    0.44    0.60
   2   5   5   -0.59    0.45
  -3  -5  -5   -0.38    0.67
  -4  -5  -5   -1.00    1.03
   4   5   5    0.02    0.62
  -5  -5  -5   -0.60    0.88
   5   5   5    0.76    0.75
   9  -6  -5   22.83    1.47
   8  -6  -5   10.24    1.08
   8  -6  -5   11.91    0.98
   8  -6  -5   14.26    1.24
   7  -6  -5    3.76    0.60
   7  -6  -5    3.94    0.69
   6  -6  -5    7.89    0.86
   6  -6  -5    5.57    0.73
   6  -6  -5    6.86    1.06
   5  -6  -5   54.90    2.38
   5  -6  -5   56.16    1.82
   5  -6  -5   53.41    1.70
   4  -6  -5   31.10    1.15
   4  -6  -5   32.99    1.33
   4  -6  -5   31.52    1.80
   3  -6  -5   40.66    1.40
   3  -6  -5   41.02    1.41
   3  -6  -5   42.15    2.23
  -3   6   5   43.71    1.35
   2  -6  -5   23.85    1.03
   2  -6  -5   24.04    1.04
   2  -6  -5   24.12    1.22
  -2   6   5   23.36    1.01
   1  -6  -5   10.11    0.80
   1  -6  -5   11.25    0.89
   1  -6  -5   11.32    1.01
  -1   6   5    9.99    0.89
   0  -6  -5   17.46    1.05
   0  -6  -5   17.45    1.20
   0   6   5   15.42    1.01
  -1  -6  -5   16.54    1.23
   1   6   5   14.19    1.09
  -2  -6  -5   14.38    1.26
  -3  -6  -5    6.06    0.88
  -4  -6  -5    2.97    0.91
   4   6   5    4.17    0.96
   8  -7  -5    1.11    0.61
   8  -7  -5    2.57    0.73
   7  -7  -5    2.03    0.58
   7  -7  -5    2.11    0.61
   7  -7  -5    3.34    0.69
   6  -7  -5    1.69    0.46
   6  -7  -5    1.67    0.65
   6  -7  -5    2.95    0.65
   5  -7  -5    8.06    0.98
   5  -7  -5    6.74    0.83
   4  -7  -5   14.25    1.09
   4  -7  -5   13.82    1.10
   4  -7  -5   13.68    0.85
   3  -7  -5   23.62    1.19
   3  -7  -5   22.18    1.31
   3  -7  -5   23.03    1.12
  -3   7   5   22.30    1.03
   2  -7  -5   27.27    1.24
   2  -7  -5   28.88    1.43
  -2   7   5   26.75    1.21
   1  -7  -5    5.34    0.78
   1  -7  -5    6.80    0.96
  -1   7   5    4.71    0.59
   0  -7  -5    6.97    0.84
   0   7   5    6.23    1.06
  -1  -7  -5   15.25    1.35
  -2  -7  -5   29.83    1.66
  -3  -7  -5    6.20    1.02
   7  -8  -5   -0.83    0.69
   7  -8  -5   -1.38    0.63
   6  -8  -5   -0.82    0.68
   6  -8  -5    1.27    0.70
   6  -8  -5   -0.11    0.64
   5  -8  -5    0.08    0.49
   5  -8  -5   -0.33    0.68
   4  -8  -5   -0.04    0.69
   4  -8  -5    0.38    0.49
   3  -8  -5    4.03    0.82
   3  -8  -5    3.64    0.60
   2  -8  -5    6.26    0.87
   2  -8  -5    6.69    1.05
  -2   8   5    6.56    1.09
   1  -8  -5    0.51    0.72
   1  -8  -5    0.61    0.75
   0  -8  -5   -0.32    0.82
   0  -8  -5    0.97    0.66
  -1  -8  -5    7.57    1.13
   6  -9  -5    4.87    0.88
   5  -9  -5   17.34    1.45
   4  -9  -5    0.76    0.66
   4  -9  -5    2.58    0.92
   3  -9  -5    1.44    0.88
   3  -9  -5    1.15    1.13
   2  -9  -5    0.67    0.88
   2  -9  -5    1.42    0.69
   1  -9  -5   10.08    1.57
   1  -9  -5   10.42    1.37
   0 -12   6   10.12    1.64
   0 -12   6   12.37    1.58
   1 -12   6    6.85    1.12
   1 -12   6    9.82    1.51
   2 -12   6    1.34    1.15
   2 -12   6    0.57    1.01
   3 -12   6    2.41    0.90
   4 -12   6   20.37    1.56
   4 -12   6   16.97    1.60
   5 -12   6   18.83    1.72
   6 -12   6    2.20    0.94
   2  11  -6   -0.01    0.65
  -2 -11   6    0.24    1.21
  -2 -11   6    0.04    0.89
   1  11  -6    1.52    0.54
  -1 -11   6    1.67    0.94
  -1 -11   6    0.23    0.85
   0 -11   6    7.14    1.00
   0 -11   6    7.05    0.96
   1 -11   6    2.43    0.81
   1 -11   6    0.70    0.77
   2 -11   6    2.83    0.83
   2 -11   6    0.83    0.74
   3 -11   6    4.30    0.84
   4 -11   6   22.92    1.57
   5 -11   6   13.52    1.45
   6 -11   6   -0.22    0.70
   7 -11   6    0.68    0.79
   3  10  -6   14.67    1.41
  -3 -10   6   13.75    1.38
  -3 -10   6   11.66    1.86
   2  10  -6   13.14    1.62
  -2 -10   6   13.61    1.31
  -2 -10   6   15.64    1.66
   1  10  -6    0.59    0.44
  -1 -10   6   -0.36    0.67
  -1 -10   6   -0.94    0.74
   0  10  -6    3.37    0.43
   0 -10   6    2.43    0.76
   0 -10   6    4.07    0.77
   1 -10   6   13.05    1.20
   1 -10   6   11.17    1.35
   2 -10   6   29.74    1.57
   3 -10   6    0.56    0.62
   4 -10   6   26.81    1.54
   5 -10   6   -0.45    0.63
   6 -10   6    4.62    0.77
  -7  10  -6    1.67    1.58
   7 -10   6    0.03    0.67
  -8  10  -6   14.41    2.55
   8 -10   6   18.16    1.53
   4   9  -6    3.27    0.88
  -4  -9   6    3.40    0.89
  -4  -9   6    3.32    0.93
   3   9  -6   55.61    1.93
  -3  -9   6   54.86    2.36
  -3  -9   6   53.43    2.50
   2   9  -6   28.90    1.23
  -2  -9   6   28.54    1.68
  -2  -9   6   25.52    1.20
  -2  -9   6   28.29    1.74
  -2  -9   6   26.59    1.97
   1   9  -6    2.01    0.41
  -1  -9   6    1.54    0.83
  -1  -9   6    1.72    1.09
  -1  -9   6    1.66    0.70
   0   9  -6    0.29    0.32
   0  -9   6   -0.38    0.60
   0  -9   6    0.87    0.78
   1  -9   6   84.96    2.73
   1  -9   6   80.00    2.83
   2  -9   6  118.35    3.76
   2  -9   6  109.24    3.44
   3  -9   6    0.36    0.51
   3  -9   6    1.61    0.87
   4  -9   6    1.40    0.55
  -5   9  -6   15.42    1.88
   5  -9   6   15.15    1.22
  -6   9  -6   33.59    2.31
   6  -9   6   30.71    1.60
  -7   9  -6    1.85    1.52
   7  -9   6    1.61    0.64
  -8   9  -6    3.69    1.65
   8  -9   6   -0.02    0.66
   9  -9   6    0.34    1.35
   5   8  -6    0.66    0.78
  -5  -8   6    1.03    0.79
   4   8  -6   16.34    1.17
  -4  -8   6   16.20    1.52
  -4  -8   6   15.40    1.03
  -3  -8   6   67.58    2.15
  -3  -8   6   69.42    2.48
  -3  -8   6   66.19    2.40
   2   8  -6   14.80    0.89
  -2  -8   6   12.59    1.22
  -2  -8   6   14.01    1.32
  -2  -8   6   15.24    0.99
   1   8  -6    2.27    0.38
  -1  -8   6    1.50    0.70
  -1  -8   6    3.11    0.76
   0   8  -6    1.17    0.32
   0   8  -6    1.84    0.43
   0  -8   6    2.59    0.77
   0  -8   6    1.31    0.56
  -1   8  -6   99.10    3.04
   1  -8   6  105.16    3.12
   1  -8   6  103.69    3.26
  -2   8  -6   87.73    2.77
   2  -8   6   95.45    2.86
   2  -8   6   93.50    3.06
  -3   8  -6    0.21    0.37
  -3   8  -6    1.51    0.96
   3  -8   6    1.72    0.87
   3  -8   6    0.83    0.48
  -4   8  -6    0.92    1.03
   4  -8   6    1.22    0.89
  -5   8  -6   51.52    2.50
   5  -8   6   51.54    1.88
  -6   8  -6   52.13    2.58
   6  -8   6   51.42    1.92
  -7   8  -6    8.65    1.86
   7  -8   6    8.06    1.10
  -8   8  -6    4.61    1.85
   8  -8   6    2.03    0.61
  -9   8  -6    3.26    2.07
   9  -8   6    4.66    0.75
   6   7  -6    2.84    0.77
   5   7  -6    7.59    1.08
  -5  -7   6    8.56    1.33
   4   7  -6    5.25    0.63
  -4  -7   6    4.49    0.75
  -4  -7   6    5.53    0.54
   3   7  -6   32.78    1.30
  -3  -7   6   32.15    1.29
  -3  -7   6   31.42    1.55
  -3  -7   6   31.22    1.22
  -3  -7   6   31.87    1.45
   2   7  -6    2.03    0.41
  -2  -7   6    1.38    0.57
  -2  -7   6    2.21    0.48
  -2  -7   6    2.59    0.71
   1   7  -6   25.18    1.00
   1   7  -6   25.79    1.16
  -1  -7   6   24.56    1.30
  -1  -7   6   25.80    1.35
   0   7  -6   10.81    0.82
   0   7  -6    9.85    0.62
   0  -7   6   10.62    1.02
   0  -7   6   11.31    1.13
  -1   7  -6   63.72    2.09
   1  -7   6   70.34    2.20
   1  -7   6   68.14    2.33
  -2   7  -6   27.50    1.19
  -2   7  -6   29.99    1.61
   2  -7   6   29.49    1.26
   2  -7   6   26.80    1.55
  -3   7  -6    6.70    1.29
   3  -7   6    6.92    0.82
   3  -7   6    5.57    1.17
  -4   7  -6   12.20    1.52
   4  -7   6   11.14    1.15
   4  -7   6   12.29    0.94
  -5   7  -6   22.89    1.79
   5  -7   6   22.30    1.52
   5  -7   6   23.04    1.23
  -6   7  -6   22.27    1.95
   6  -7   6   24.49    1.23
  -7   7  -6    6.54    1.70
   7  -7   6    4.20    0.62
  -8   7  -6   13.33    2.17
   8  -7   6   14.89    1.24
  -9   7  -6    8.71    2.24
   9  -7   6   10.70    1.31
   7   6  -6    4.54    0.85
   6   6  -6   34.74    1.60
   5   6  -6   10.33    1.02
  -5  -6   6   10.16    1.17
   4   6  -6   -0.57    0.75
  -4  -6   6    0.20    0.34
   3   6  -6    4.66    0.75
   3   6  -6    3.83    0.46
  -3  -6   6    4.23    0.61
  -3  -6   6    3.93    0.57
   2   6  -6    2.69    0.49
   2   6  -6    2.40    0.42
  -2  -6   6    3.88    0.63
  -2  -6   6    2.35    0.52
   1   6  -6   40.77    1.32
   1   6  -6   40.06    1.41
  -1  -6   6   41.68    1.54
  -1  -6   6   39.09    1.51
   0   6  -6    3.70    0.62
   0   6  -6    3.15    0.49
   0  -6   6    3.90    0.70
   0  -6   6    2.56    0.46
  -1   6  -6    0.31    0.23
  -1   6  -6    0.58    0.31
   1  -6   6    0.00    0.65
   1  -6   6    0.17    0.38
  -2   6  -6    1.65    0.34
  -2   6  -6    3.51    0.83
   2  -6   6    2.23    0.68
   2  -6   6    1.84    0.41
  -3   6  -6    0.69    0.92
   3  -6   6    0.98    0.40
   3  -6   6    0.10    0.35
   3  -6   6   -0.16    0.61
  -4   6  -6    0.14    1.30
   4  -6   6    0.86    0.37
   4  -6   6    1.38    0.74
   4  -6   6    0.31    0.46
  -5   6  -6    0.21    0.25
  -5   6  -6    0.24    1.21
   5  -6   6    0.20    0.39
   5  -6   6    0.90    0.46
   5  -6   6    0.14    0.83
  -6   6  -6   10.08    1.81
  -6   6  -6    7.35    0.59
   6  -6   6    8.06    0.88
  -7   6  -6    3.86    1.58
  -7   6  -6    4.27    0.67
   7  -6   6    5.59    0.57
   7  -6   6    5.88    0.94
  -8   6  -6   18.43    2.30
  -8   6  -6   18.13    1.21
   8  -6   6   20.74    1.32
   8  -6   6   21.60    0.93
  -9   6  -6   -0.97    1.96
   9  -6   6   -0.58    0.63
   9  -6   6    0.53    0.74
   7   5  -6    8.29    1.17
   6   5  -6   27.31    1.38
   5   5  -6   16.15    1.06
  -5  -5   6   13.14    1.58
   4   5  -6   25.89    1.18
   4   5  -6   23.95    1.10
  -4  -5   6   26.25    1.23
   3   5  -6   43.71    1.51
   3   5  -6   44.04    1.53
  -3  -5   6   45.80    1.62
   2   5  -6   42.35    1.40
   2   5  -6   40.06    1.73
  -2  -5   6   43.43    1.51
   1   5  -6   31.04    1.13
   1   5  -6   30.87    1.09
  -1  -5   6   32.09    1.22
   0   5  -6   65.41    1.89
   0   5  -6   64.85    1.96
   0  -5   6   65.94    2.08
   0  -5   6   68.17    2.02
  -1   5  -6  155.16    4.31
  -1   5  -6  151.89    4.19
   1  -5   6  158.94    4.27
   1  -5   6  151.78    4.20
   1  -5   6  156.40    4.21
  -2   5  -6   25.16    1.35
  -2   5  -6   24.33    0.77
   2  -5   6   22.70    1.16
   2  -5   6   23.09    0.95
   2  -5   6   22.54    0.99
  -3   5  -6    2.42    0.38
  -3   5  -6    2.80    0.96
   3  -5   6    2.14    0.35
   3  -5   6    1.91    0.45
   3  -5   6    2.82    0.71
  -4   5  -6   21.54    1.67
  -4   5  -6   23.14    0.79
   4  -5   6   22.30    0.99
   4  -5   6   20.64    1.03
  -5   5  -6   22.33    1.99
  -5   5  -6   22.41    0.88
   5  -5   6   20.80    1.06
   5  -5   6   21.42    1.04
  -6   5  -6   27.74    1.03
  -6   5  -6   23.52    2.25
   6  -5   6   24.74    1.23
   6  -5   6   28.69    0.98
  -7   5  -6    1.87    1.28
  -7   5  -6   -0.72    0.38
   7  -5   6    0.26    0.33
  -8   5  -6    2.81    0.53
  -8   5  -6    3.46    1.65
   8  -5   6    2.46    0.43
  -9   5  -6    3.67    2.00
   9  -5   6    6.50    0.88
   8   4  -6    1.77    0.67
   7   4  -6    8.12    1.11
   6   4  -6    2.23    0.53
   5   4  -6    3.29    0.46
   5   4  -6    4.45    0.55
  -5  -4   6    3.62    0.48
   4   4  -6   54.76    1.80
   4   4  -6   52.26    1.71
  -4  -4   6   53.72    1.77
   3   4  -6   79.75    2.32
   3   4  -6   79.52    2.36
  -3  -4   6   77.68    2.19
  -3  -4   6   82.75    2.36
   2   4  -6    6.18    0.63
   2   4  -6    6.71    0.56
  -2  -4   6    5.99    0.67
  -2  -4   6    5.81    0.51
   1   4  -6    9.58    0.62
   1   4  -6   10.51    0.60
  -1  -4   6    9.84    0.68
  -1  -4   6    8.91    0.66
   0   4  -6  134.91    3.85
   0  -4   6  147.19    3.82
   0  -4   6  144.99    3.85
   0  -4   6  139.47    3.82
  -1   4  -6  206.18    5.66
   1  -4   6  214.70    5.63
   1  -4   6  210.34    5.55
   1  -4   6  208.52    5.57
  -2   4  -6   30.97    0.96
  -2   4  -6   31.71    1.50
   2  -4   6   30.61    1.10
   2  -4   6   30.71    1.06
  -3   4  -6    2.69    0.42
  -3   4  -6    2.92    0.86
   3  -4   6    2.00    0.39
   3  -4   6    2.13    0.32
  -4   4  -6   33.56    1.08
  -4   4  -6   29.31    1.72
   4  -4   6   34.22    1.19
   4  -4   6   32.89    1.24
  -5   4  -6  270.98    7.07
   5  -4   6  269.39    7.04
   5  -4   6  267.13    7.16
  -6   4  -6   46.75    2.29
  -6   4  -6   46.98    1.52
   6  -4   6   46.53    1.46
   6  -4   6   44.39    1.61
  -7   4  -6    1.39    1.24
  -7   4  -6    0.60    0.43
   7  -4   6    0.87    0.37
  -8   4  -6    2.53    1.40
   8  -4   6    1.53    0.42
  -9   4  -6   21.34    2.60
   9  -4   6   26.72    1.34
   8   3  -6    1.83    0.64
   7   3  -6    2.44    0.60
   6   3  -6   11.08    0.79
   6   3  -6   10.78    1.00
   5   3  -6    0.21    0.43
   5   3  -6    0.11    0.30
   4   3  -6   61.95    1.99
   4   3  -6   62.97    1.89
  -4  -3   6   64.54    1.91
   3   3  -6   10.82    0.63
   3   3  -6    9.86    0.75
  -3  -3   6   11.45    0.55
  -3  -3   6   10.72    0.68
   2   3  -6   37.31    1.26
   2   3  -6   37.42    1.17
  -2  -3   6   36.47    1.14
  -2  -3   6   38.29    1.21
   1   3  -6    4.76    0.68
  -1  -3   6    4.99    0.50
  -1  -3   6    4.92    0.46
   0   3  -6  310.75    8.25
   0  -3   6  318.96    8.29
   0  -3   6  325.48    8.28
  -1   3  -6  160.72    4.33
   1  -3   6  157.78    4.25
   1  -3   6  157.79    4.21
  -2   3  -6    0.83    0.27
  -2   3  -6    0.29    0.49
   2  -3   6    1.02    0.25
   2  -3   6    0.80    0.31
  -3   3  -6   13.55    0.98
  -3   3  -6   12.52    0.62
   3  -3   6   12.14    0.75
  -4   3  -6   33.27    1.15
  -4   3  -6   34.34    1.54
   4  -3   6   33.46    1.26
  -5   3  -6  144.53    4.17
  -5   3  -6  139.07    3.81
   5  -3   6  138.44    3.78
   5  -3   6  133.81    3.87
  -6   3  -6   20.90    0.98
  -6   3  -6   22.61    1.55
   6  -3   6   21.85    0.95
   6  -3   6   19.85    1.02
  -7   3  -6    0.97    0.98
  -8   3  -6    2.31    1.31
   8  -3   6    3.70    0.56
  -9   3  -6   25.56    2.71
   9  -3   6   29.43    1.34
   8   2  -6    0.92    0.58
   7   2  -6   36.07    1.54
   7   2  -6   32.91    1.30
   6   2  -6   87.10    2.66
   6   2  -6   83.67    2.47
   5   2  -6    4.92    0.58
   5   2  -6    5.08    0.79
   4   2  -6   17.96    0.95
   4   2  -6   16.76    1.07
   3   2  -6   11.38    0.76
   3   2  -6   11.73    0.56
  -3  -2   6   10.91    0.58
  -3  -2   6   11.67    0.51
   2   2  -6  244.03    6.50
   2   2  -6  243.73    6.40
  -2  -2   6  246.89    6.39
  -2  -2   6  249.34    6.40
   1   2  -6   33.05    1.07
   1   2  -6   33.23    1.00
  -1  -2   6   35.09    1.09
  -1  -2   6   35.34    1.05
   0   2  -6   89.38    2.53
   0   2  -6   92.07    2.52
   0  -2   6   90.56    2.53
   0  -2   6   92.23    2.46
  -1   2  -6   34.57    1.26
  -1   2  -6   34.87    1.16
   1  -2   6   33.49    1.05
   1  -2   6   35.32    1.14
  -2   2  -6   71.35    2.11
  -2   2  -6   72.57    2.27
  -2   2  -6   72.24    2.04
   2  -2   6   74.08    2.10
  -3   2  -6   53.72    1.70
  -3   2  -6   53.72    1.95
  -3   2  -6   54.36    1.62
   3  -2   6   53.23    1.67
  -4   2  -6   16.66    0.87
  -4   2  -6   17.05    1.29
  -4   2  -6   14.27    0.92
   4  -2   6   16.91    0.79
   4  -2   6   14.81    0.85
  -5   2  -6   53.73    1.74
  -5   2  -6   55.07    2.23
  -5   2  -6   55.02    1.80
   5  -2   6   55.81    1.78
   5  -2   6   55.32    1.72
  -6   2  -6    0.61    0.37
  -6   2  -6    0.10    0.87
   6  -2   6   -0.33    0.41
   6  -2   6   -0.58    0.35
  -7   2  -6    2.63    1.08
   7  -2   6    1.49    0.44
  -8   2  -6    3.96    1.24
   8  -2   6    2.73    0.57
   9  -2   6   14.01    1.29
   9   1  -6    0.49    0.69
   8   1  -6    1.38    0.57
   7   1  -6   58.78    1.88
   7   1  -6   62.20    2.13
   6   1  -6  129.72    3.54
   6   1  -6  128.88    3.72
   5   1  -6    2.62    0.38
   5   1  -6    3.06    0.52
   4   1  -6    1.50    0.24
   4   1  -6    1.52    0.42
   3   1  -6   83.63    2.48
   3   1  -6   88.31    2.32
  -3  -1   6   84.81    2.30
   2   1  -6  351.42    9.03
  -2  -1   6  346.81    9.03
   1   1  -6   71.72    1.92
  -1  -1   6   63.36    2.10
   0   1  -6   21.60    0.83
   0  -1   6   21.22    0.81
   0  -1   6   21.70    0.69
  -1   1  -6   21.51    0.87
  -1   1  -6   22.00    0.82
   1  -1   6   22.25    0.85
  -2   1  -6  188.50    5.11
  -2   1  -6  194.37    5.09
   2  -1   6  191.93    5.11
  -3   1  -6   80.59    2.30
  -3   1  -6   78.95    2.33
   3  -1   6   79.48    2.33
  -4   1  -6    0.52    0.35
  -4   1  -6   -0.28    0.47
   4  -1   6    0.19    0.37
   4  -1   6    0.49    0.34
  -5   1  -6    0.42    0.37
  -5   1  -6    0.43    1.05
  -5   1  -6    0.26    0.46
   5  -1   6    0.34    0.37
  -6   1  -6    8.99    1.60
   6  -1   6   10.51    0.87
  -7   1  -6   15.10    1.87
  -7   1  -6   16.02    1.14
   7  -1   6   15.64    1.06
  -8   1  -6    1.67    1.33
   8  -1   6    0.33    0.52
   9   0  -6    3.92    0.75
   8   0  -6    0.23    0.57
   8   0  -6   -0.49    0.56
   7   0  -6   51.34    1.66
   7   0  -6   54.09    1.94
   6   0  -6   44.76    1.95
   6   0  -6   41.09    1.34
   5   0  -6    0.24    0.23
   5   0  -6    0.09    0.45
   4   0  -6   13.58    0.87
   3   0  -6  108.81    2.86
  -3   0   6  104.18    2.85
   2   0  -6  228.96    5.80
  -2   0   6  213.29    5.85
   1   0  -6  101.50    2.75
  -1   0   6   98.49    2.73
   0   0  -6   -0.18    0.32
   0   0   6    0.41    0.26
  -1   0  -6   42.96    1.35
  -1   0  -6   42.58    1.39
   1   0   6   43.29    1.36
  -2   0  -6   99.91    2.85
  -2   0  -6  101.04    2.82
   2   0   6  102.52    2.84
  -3   0  -6   70.92    2.17
  -3   0  -6   71.75    2.14
   3   0   6   72.93    2.13
   3   0   6   71.87    2.14
  -4   0  -6   34.24    1.35
  -4   0  -6   33.29    1.28
   4   0   6   34.00    1.29
   4   0   6   34.44    1.30
   4   0   6   34.99    1.28
  -5   0  -6   25.50    1.18
   5   0   6   21.94    1.05
   5   0   6   24.82    1.13
  -6   0  -6   13.75    1.08
   6   0   6   11.55    0.99
  -7   0  -6    9.58    1.29
  -7   0  -6   10.08    1.96
   7   0   6    9.89    1.05
  -8   0  -6   11.45    1.31
  -8   0  -6    8.46    1.77
   8   0   6    8.19    1.19
   9  -1  -6   10.88    1.53
   8  -1  -6    1.97    0.63
   8  -1  -6    1.38    0.36
   7  -1  -6    6.89    0.63
   7  -1  -6    8.32    1.02
   6  -1  -6    9.32    0.56
   5  -1  -6    7.36    0.89
   4  -1  -6    3.27    0.50
   4  -1  -6    3.01    0.49
  -4   1   6    3.27    0.44
   3  -1  -6   23.38    0.86
  -3   1   6   22.11    0.91
   2  -1  -6   33.39    1.12
  -2   1   6   33.55    1.08
   1  -1  -6    6.43    0.61
  -1   1   6    7.08    0.53
   0  -1  -6   18.41    0.78
   0  -1  -6   17.74    0.84
   0   1   6   18.35    0.66
   0   1   6   18.05    0.78
  -1  -1  -6    9.83    0.70
  -1  -1  -6   10.02    0.76
   1   1   6   10.40    0.59
   1   1   6   11.04    0.75
  -2  -1  -6   24.06    1.00
  -2  -1  -6   25.90    1.15
   2   1   6   26.35    1.04
   2   1   6   25.93    1.00
  -3  -1  -6   25.27    1.08
  -3  -1  -6   25.37    1.20
   3   1   6   26.39    1.10
   3   1   6   26.47    1.09
  -4  -1  -6   38.41    1.48
   4   1   6   40.99    1.46
   4   1   6   36.97    1.40
  -5  -1  -6   28.89    1.36
   5   1   6   29.42    1.30
  -6  -1  -6    7.57    1.06
   6   1   6    6.40    0.99
  -7  -1  -6    2.99    0.78
   7   1   6    2.74    0.67
   9  -2  -6   21.88    1.47
   8  -2  -6    5.31    0.72
   7  -2  -6   13.94    0.69
   7  -2  -6   13.17    1.30
   6  -2  -6   27.17    1.16
   5  -2  -6    0.32    0.47
   5  -2  -6    0.43    0.32
   4  -2  -6   36.19    1.56
   4  -2  -6   32.35    1.12
  -4   2   6   31.72    1.09
   3  -2  -6    8.61    1.63
   3  -2  -6    9.00    0.66
  -3   2   6    9.30    0.59
   2  -2  -6    1.82    0.39
  -2   2   6    1.69    0.33
   1  -2  -6   -0.07    0.40
  -1   2   6   -0.07    0.29
   0  -2  -6   -0.12    0.30
   0  -2  -6    0.17    0.40
   0   2   6    0.49    0.32
   0   2   6    0.21    0.24
  -1  -2  -6    8.61    0.82
  -1  -2  -6    8.34    0.70
   1   2   6    9.44    0.66
   1   2   6    8.65    0.68
  -2  -2  -6    8.14    0.74
  -2  -2  -6    8.47    0.93
   2   2   6    8.82    0.75
   2   2   6   10.00    0.78
  -3  -2  -6   -0.38    0.52
   3   2   6   -0.59    0.36
   3   2   6   -0.20    0.38
  -4  -2  -6   21.33    1.26
   4   2   6   21.17    1.15
   4   2   6   23.94    1.55
  -5  -2  -6    7.42    1.05
   5   2   6    7.60    1.01
  -6  -2  -6    4.04    0.77
   6   2   6    3.85    0.66
  -7  -2  -6    0.81    0.78
   7   2   6    1.04    0.87
   9  -3  -6    9.73    1.33
   8  -3  -6   15.64    0.80
   8  -3  -6   18.00    1.31
   7  -3  -6   36.17    1.52
   7  -3  -6   36.31    1.64
   6  -3  -6   15.90    1.20
   6  -3  -6   19.64    0.79
   6  -3  -6   17.02    1.88
   5  -3  -6   12.88    1.03
   5  -3  -6    9.42    1.24
   5  -3  -6   12.69    0.72
   4  -3  -6   30.54    1.54
   4  -3  -6   34.39    1.19
  -4   3   6   33.37    1.14
   3  -3  -6   94.52    2.70
  -3   3   6   95.67    2.68
   2  -3  -6   58.15    1.81
  -2   3   6   57.70    1.77
   1  -3  -6    1.35    0.47
   1  -3  -6    0.48    0.32
  -1   3   6    0.67    0.31
  -1   3   6    0.40    0.33
   0  -3  -6    7.78    0.68
   0  -3  -6    8.15    0.85
   0   3   6    7.96    0.65
   0   3   6    7.58    0.69
  -1  -3  -6  130.94    3.74
   1   3   6  136.84    3.65
   1   3   6  128.67    3.68
  -2  -3  -6   31.75    1.91
   2   3   6   35.04    1.31
  -3  -3  -6    1.37    0.62
   3   3   6    1.75    0.48
  -4  -3  -6    1.42    0.67
   4   3   6    2.15    0.60
  -5  -3  -6    1.13    0.76
   5   3   6    1.39    0.63
  -6  -3  -6   17.43    1.48
   6   3   6   17.75    1.48
   9  -4  -6    0.88    0.70
   8  -4  -6   12.63    1.30
   7  -4  -6   34.45    1.66
   7  -4  -6   34.22    1.18
   7  -4  -6   32.86    1.61
   6  -4  -6    3.76    0.47
   6  -4  -6    5.45    1.23
   6  -4  -6    4.70    0.70
   5  -4  -6    0.58    1.13
   5  -4  -6    1.66    0.43
   4  -4  -6   43.40    1.92
   4  -4  -6   46.34    1.54
  -4   4   6   46.23    1.49
   3  -4  -6  107.63    3.04
  -3   4   6  105.43    3.00
   2  -4  -6   31.62    1.28
   2  -4  -6   31.71    1.20
  -2   4   6   31.35    1.19
   1  -4  -6    0.22    0.50
   1  -4  -6   -0.07    0.35
  -1   4   6    0.21    0.29
  -1   4   6    0.49    0.39
   0  -4  -6    8.58    0.92
   0  -4  -6    8.20    0.73
   0   4   6    7.36    0.70
  -1  -4  -6   69.90    2.27
   1   4   6   69.43    2.14
  -2  -4  -6  127.62    3.65
   2   4   6  121.11    3.55
  -3  -4  -6    3.57    0.75
  -4  -4  -6    0.22    0.76
  -5  -4  -6   20.55    1.62
   5   4   6   22.47    1.54
   9  -5  -6    2.47    0.77
   8  -5  -6    4.89    0.57
   8  -5  -6    3.86    0.78
   7  -5  -6    7.00    0.83
   7  -5  -6    6.68    0.88
   7  -5  -6    7.80    1.34
   6  -5  -6    4.37    1.36
   6  -5  -6    2.87    0.66
   6  -5  -6    3.44    0.51
   5  -5  -6    7.98    1.51
   5  -5  -6    8.26    0.83
   4  -5  -6    9.50    0.87
  -4   5   6    9.62    0.82
   3  -5  -6   63.87    2.00
   3  -5  -6   59.62    1.92
  -3   5   6   61.53    1.94
   2  -5  -6   -0.08    0.95
   2  -5  -6    0.20    0.38
   2  -5  -6    0.46    0.30
  -2   5   6   -0.43    0.28
   1  -5  -6    3.07    0.63
  -1   5   6    2.77    0.43
   0  -5  -6   18.10    1.17
   0   5   6   16.85    0.98
  -1  -5  -6   42.33    1.67
   1   5   6   37.43    1.52
  -2  -5  -6   27.60    1.53
  -3  -5  -6    1.87    0.79
  -4  -5  -6    2.02    0.88
   8  -6  -6    0.72    0.85
   8  -6  -6   -0.20    0.57
   7  -6  -6    0.70    0.56
   7  -6  -6    1.11    0.69
   6  -6  -6   18.41    1.34
   6  -6  -6   16.31    1.26
   5  -6  -6   21.53    1.19
   4  -6  -6    0.94    0.60
   3  -6  -6    1.22    0.56
   3  -6  -6    1.49    0.35
  -3   6   6    1.58    0.40
   2  -6  -6    7.80    1.05
   2  -6  -6    8.00    0.74
  -2   6   6    7.91    0.75
   1  -6  -6   13.36    1.15
  -1   6   6   11.75    1.10
   0  -6  -6    1.20    0.70
   0   6   6   -0.32    0.73
  -1  -6  -6    5.51    0.81
  -2  -6  -6    0.81    0.83
  -3  -6  -6    1.75    0.90
   8  -7  -6    1.19    0.81
   8  -7  -6    2.01    0.86
   7  -7  -6    7.31    1.11
   7  -7  -6    9.18    1.32
   6  -7  -6   23.77    1.33
   5  -7  -6   27.32    1.42
   4  -7  -6    2.68    0.43
   4  -7  -6    3.85    0.73
   3  -7  -6    1.43    0.70
   3  -7  -6    1.41    0.43
   2  -7  -6   23.37    1.40
   2  -7  -6   23.65    1.09
  -2   7   6   17.42    1.53
   1  -7  -6   27.40    1.51
  -1   7   6   21.26    1.61
   0  -7  -6    6.40    0.89
  -1  -7  -6    1.55    0.82
  -2  -7  -6    2.84    1.04
   6  -8  -6    8.82    1.26
   5  -8  -6    9.33    1.27
   4  -8  -6   10.67    1.28
   3  -8  -6    5.91    0.86
   3  -8  -6    4.74    0.78
   2  -8  -6   13.66    1.43
   2  -8  -6   14.91    1.14
   1  -8  -6   11.45    1.48
   0  -8  -6   11.71    1.66
   0 -12   7    8.39    1.09
   1 -12   7   11.59    1.83
   1 -12   7   16.89    1.65
   2 -12   7    6.00    1.03
   3 -12   7    0.06    0.74
   4 -12   7    0.79    0.81
   5 -12   7    4.36    0.96
  -2 -11   7    0.12    0.86
  -2 -11   7    2.27    1.38
  -1 -11   7    8.40    1.34
  -1 -11   7    5.33    1.02
   0 -11   7   18.58    1.49
   0 -11   7   16.37    1.71
   1 -11   7   18.92    1.67
   1 -11   7   24.07    1.52
   2 -11   7    3.79    0.87
   3 -11   7   13.74    1.39
   4 -11   7   14.93    1.44
   5 -11   7    4.40    0.90
   6 -11   7    2.03    0.83
  -7  11  -7    8.05    1.92
   7 -11   7    6.42    0.95
   3  10  -7   -0.66    0.64
  -3 -10   7    0.40    0.79
  -3 -10   7    0.82    0.92
   2  10  -7   -0.42    0.59
  -2 -10   7    1.18    0.71
  -2 -10   7   -0.54    0.80
   1  10  -7    5.92    0.83
  -1 -10   7    6.64    0.85
  -1 -10   7    8.38    1.37
  -1 -10   7    5.90    0.87
   0  10  -7    4.10    0.65
   0 -10   7    3.72    0.78
   0 -10   7    4.09    0.99
   0 -10   7    5.73    0.79
   1 -10   7    1.84    1.28
   1 -10   7    0.08    0.60
   2 -10   7    3.66    0.78
   3 -10   7   26.04    1.80
   4 -10   7   13.25    1.31
  -5  10  -7   -0.86    1.32
   5 -10   7   -0.74    0.59
  -6  10  -7    9.45    2.12
   6 -10   7    7.29    1.05
  -7  10  -7   29.36    2.54
   7 -10   7   30.33    1.74
  -8  10  -7   24.25    2.73
   8 -10   7   19.17    1.77
   4   9  -7    9.30    1.21
  -4  -9   7   11.45    1.67
   3   9  -7    7.61    1.01
  -3  -9   7    8.15    1.27
  -3  -9   7    6.40    0.88
   2   9  -7    0.70    0.46
  -2  -9   7    0.91    0.86
  -2  -9   7    0.74    0.72
  -2  -9   7    0.90    0.98
   1   9  -7    1.28    0.40
  -1  -9   7    2.11    0.83
  -1  -9   7    0.04    0.69
  -1  -9   7    1.42    1.04
   0   9  -7   11.04    0.70
   0  -9   7   13.96    1.27
   0  -9   7   10.12    1.28
   1  -9   7    5.44    1.13
   2  -9   7    9.71    1.13
   2  -9   7   13.87    1.35
   3  -9   7   14.60    1.55
   3  -9   7   12.34    1.16
  -4   9  -7    0.65    1.15
   4  -9   7   -0.09    0.52
  -5   9  -7   20.18    1.98
   5  -9   7   18.71    1.29
  -6   9  -7    1.02    1.47
   6  -9   7    1.12    0.57
  -7   9  -7   38.49    2.56
   7  -9   7   36.97    1.95
  -8   9  -7   10.53    1.88
   8  -9   7   10.14    1.39
   5   8  -7   14.04    1.33
  -5  -8   7   13.69    1.57
   4   8  -7   40.07    1.66
  -4  -8   7   37.57    1.63
  -4  -8   7   41.22    2.33
   3   8  -7   13.73    1.03
  -3  -8   7   16.13    1.24
  -3  -8   7   15.31    1.01
  -3  -8   7   12.25    1.39
   2   8  -7    1.55    0.44
  -2  -8   7    2.00    0.73
  -2  -8   7    1.45    0.53
  -2  -8   7    1.78    0.64
   1   8  -7    3.23    0.42
  -1  -8   7    3.02    0.66
   0   8  -7  105.78    2.95
   0   8  -7  106.27    3.21
   0  -8   7  108.34    3.28
   0  -8   7  110.04    3.27
  -1   8  -7   64.83    1.84
  -1   8  -7   61.41    2.10
   1  -8   7   70.05    2.36
   1  -8   7   66.30    2.21
  -2   8  -7    1.98    0.42
   2  -8   7    2.93    0.89
   2  -8   7    1.92    0.52
  -3   8  -7    3.58    1.04
   3  -8   7    2.53    0.80
   3  -8   7    1.93    0.60
  -4   8  -7   45.04    2.17
   4  -8   7   41.13    1.63
   4  -8   7   38.32    1.86
  -5   8  -7   53.44    2.48
   5  -8   7   50.08    1.90
  -6   8  -7    0.25    1.27
   6  -8   7    0.60    0.50
  -7   8  -7   15.90    2.20
   7  -8   7   16.49    1.28
   8  -8   7    0.42    0.65
   6   7  -7   -0.04    0.61
   5   7  -7   30.45    1.50
  -5  -7   7   31.31    1.69
   4   7  -7   75.42    2.39
  -4  -7   7   71.09    2.21
  -4  -7   7   77.97    2.58
   3   7  -7   11.86    0.94
  -3  -7   7   11.98    1.20
  -3  -7   7   11.37    0.84
   2   7  -7    5.74    0.73
   2   7  -7    6.13    0.77
  -2  -7   7    5.79    0.69
   1   7  -7   48.00    1.68
   1   7  -7   48.29    1.54
  -1  -7   7   49.11    1.81
  -1  -7   7   46.65    1.78
   0   7  -7  128.68    3.75
   0   7  -7  134.85    3.61
   0  -7   7  137.69    3.85
   0  -7   7  132.56    3.87
  -1   7  -7   46.91    1.67
  -1   7  -7   48.00    1.44
   1  -7   7   50.03    1.96
   1  -7   7   49.75    1.76
  -2   7  -7    1.95    0.40
  -2   7  -7    2.77    0.92
   2  -7   7    1.90    0.72
   2  -7   7    1.95    0.47
  -3   7  -7    2.44    1.02
   3  -7   7    2.73    0.49
   3  -7   7    2.82    0.78
   3  -7   7    2.59    0.50
  -4   7  -7  106.33    3.46
   4  -7   7  103.63    3.04
   4  -7   7   97.13    3.31
   5  -7   7   83.53    2.59
  -6   7  -7    6.36    1.63
   6  -7   7    3.73    0.56
  -7   7  -7    0.01    0.40
  -7   7  -7   -0.23    1.76
   7  -7   7    0.29    0.51
  -8   7  -7    7.70    1.92
   8  -7   7    9.46    1.21
  -9   7  -7   14.43    3.03
   9  -7   7   23.01    1.72
   7   6  -7    6.79    0.95
   6   6  -7    4.30    0.68
   5   6  -7   20.52    1.25
  -5  -6   7   21.57    1.33
   4   6  -7   44.87    1.65
  -4  -6   7   43.58    1.41
  -4  -6   7   45.44    2.14
  -4  -6   7   44.78    1.39
   3   6  -7    7.52    0.96
   3   6  -7    8.02    0.82
  -3  -6   7    7.87    0.98
   2   6  -7    4.74    0.73
   2   6  -7    5.21    0.70
  -2  -6   7    6.75    0.92
   1   6  -7   30.57    1.19
   1   6  -7   28.99    1.16
  -1  -6   7   29.43    1.32
   0   6  -7  117.96    3.22
   0   6  -7  114.52    3.58
   0  -6   7  122.41    3.38
   0  -6   7  115.77    3.38
  -1   6  -7   18.68    0.92
  -1   6  -7   19.74    1.25
  -1   6  -7   20.14    0.80
   1  -6   7   18.49    1.05
   1  -6   7   20.74    1.04
   1  -6   7   19.56    0.97
  -2   6  -7    4.50    1.07
   2  -6   7    3.04    0.52
   2  -6   7    4.79    0.95
   2  -6   7    3.32    0.46
  -3   6  -7   14.22    1.47
  -3   6  -7   14.23    0.61
   3  -6   7   14.20    0.95
   3  -6   7   15.01    0.91
   3  -6   7   15.02    1.24
  -4   6  -7  117.86    3.73
  -4   6  -7  114.48    3.08
   4  -6   7  116.10    3.30
   4  -6   7  111.62    3.33
  -5   6  -7   39.34    1.40
  -5   6  -7   45.03    2.20
   5  -6   7   43.45    1.87
  -6   6  -7   10.70    1.93
  -6   6  -7   11.05    0.72
   6  -6   7   12.65    0.98
  -7   6  -7   -0.79    1.63
   7  -6   7   -0.12    0.49
  -8   6  -7    6.07    1.87
   8  -6   7   10.00    1.11
   9  -6   7   15.77    1.50
   9  -6   7   16.23    1.00
   7   5  -7   25.29    1.47
   6   5  -7   13.45    1.15
   5   5  -7    6.45    0.97
   5   5  -7    6.29    0.81
  -5  -5   7    6.30    0.95
   4   5  -7    4.19    0.68
   4   5  -7    4.48    0.69
  -4  -5   7    5.21    0.86
   3   5  -7   57.37    1.83
   3   5  -7   54.89    1.79
  -3  -5   7   57.75    1.88
  -3  -5   7   55.63    1.68
   2   5  -7   31.94    1.21
   2   5  -7   31.21    1.16
  -2  -5   7   31.56    1.27
  -2  -5   7   30.62    1.10
   1   5  -7    9.79    0.73
   1   5  -7   10.41    0.70
  -1  -5   7    9.91    0.69
  -1  -5   7   10.47    0.82
   0   5  -7   23.27    0.98
   0   5  -7   22.09    0.90
   0  -5   7   21.83    0.96
   0  -5   7   23.18    1.00
   0  -5   7   23.66    1.03
  -1   5  -7    5.04    0.79
  -1   5  -7    3.47    0.54
   1  -5   7    4.37    0.78
   1  -5   7    3.95    0.64
   1  -5   7    4.22    0.64
  -2   5  -7   25.29    0.87
  -2   5  -7   25.13    1.44
   2  -5   7   25.11    1.03
   2  -5   7   24.63    1.07
  -3   5  -7    4.50    0.49
  -3   5  -7    5.95    1.12
   3  -5   7    3.96    0.48
   3  -5   7    4.92    0.64
  -4   5  -7    2.48    0.33
  -4   5  -7    2.94    1.15
   4  -5   7    2.89    0.44
   4  -5   7    2.07    0.47
  -5   5  -7    7.10    1.55
  -5   5  -7    6.77    0.62
   5  -5   7    6.56    0.84
   5  -5   7    7.20    0.79
  -6   5  -7    4.34    0.46
  -6   5  -7    7.01    1.38
   6  -5   7    4.66    0.57
  -7   5  -7    8.58    0.82
  -7   5  -7    6.80    1.51
  -8   5  -7    2.18    1.65
   8  -5   7    3.00    0.49
  -9   5  -7    6.47    2.52
   7   4  -7   44.13    1.82
   6   4  -7   18.33    1.18
   6   4  -7   16.79    1.02
   5   4  -7    4.43    0.58
   5   4  -7    4.34    0.66
   4   4  -7   13.59    0.92
   4   4  -7   12.59    0.77
  -4  -4   7   12.52    0.86
   3   4  -7   57.57    1.81
   3   4  -7   58.31    1.90
  -3  -4   7   61.74    1.86
  -3  -4   7   60.08    1.72
   2   4  -7   42.19    1.36
   2   4  -7   42.82    1.46
  -2  -4   7   41.80    1.33
  -2  -4   7   43.39    1.42
   1   4  -7   28.72    1.06
   1   4  -7   27.74    1.01
  -1  -4   7   28.39    1.03
  -1  -4   7   29.74    1.08
   0   4  -7   27.25    0.96
   0  -4   7   27.30    1.02
   0  -4   7   28.10    1.07
  -1   4  -7   29.58    1.36
   1  -4   7   31.59    1.15
   1  -4   7   33.54    1.11
  -2   4  -7   13.60    1.21
  -2   4  -7   15.06    0.66
   2  -4   7   14.85    0.73
   2  -4   7   15.03    0.84
  -3   4  -7   11.34    1.32
  -3   4  -7   12.73    0.65
   3  -4   7   12.58    0.84
   3  -4   7   12.84    0.75
  -4   4  -7   10.99    1.39
  -4   4  -7   11.93    0.70
   4  -4   7   13.60    0.91
   4  -4   7   12.13    0.80
  -5   4  -7    2.17    0.99
  -5   4  -7    2.20    0.39
   5  -4   7    2.24    0.50
  -6   4  -7    0.57    0.38
  -6   4  -7    1.32    1.11
  -7   4  -7    0.98    1.30
   7  -4   7    0.44    0.43
  -8   4  -7    5.52    1.58
   8  -4   7    7.49    0.87
   9  -4   7    2.93    0.59
   8   3  -7    5.35    0.79
   7   3  -7   18.48    1.24
   6   3  -7    8.38    0.78
   6   3  -7    9.78    1.01
   5   3  -7   17.56    1.06
   5   3  -7   17.19    0.84
   4   3  -7   26.13    1.17
   4   3  -7   25.51    0.99
  -4  -3   7   26.44    1.04
   3   3  -7   25.45    1.14
  -3  -3   7   27.18    0.89
  -3  -3   7   25.72    0.98
   2   3  -7   51.78    1.51
   2   3  -7   51.09    1.63
  -2  -3   7   53.20    1.53
  -2  -3   7   46.31    1.76
   1   3  -7   44.27    1.33
  -1  -3   7   45.28    1.39
  -1  -3   7   44.51    1.42
   0  -3   7  122.34    3.31
   0  -3   7  122.94    3.35
  -1   3  -7   42.83    1.53
   1  -3   7   45.85    1.37
   1  -3   7   46.10    1.45
  -2   3  -7    6.54    0.54
  -2   3  -7    6.50    0.84
   2  -3   7    6.44    0.68
   2  -3   7    6.13    0.54
  -3   3  -7  114.82    3.12
  -3   3  -7  112.93    3.40
   3  -3   7  112.79    3.20
  -4   3  -7  107.46    3.37
  -4   3  -7  109.13    3.00
   4  -3   7  105.56    3.08
  -5   3  -7   15.62    1.37
  -5   3  -7   15.99    0.84
   5  -3   7   14.12    0.92
  -6   3  -7    0.21    0.39
  -6   3  -7    1.14    0.89
   6  -3   7    0.03    0.37
  -7   3  -7    4.79    1.39
   7  -3   7    5.33    0.80
  -8   3  -7   27.56    2.45
   8  -3   7   35.06    1.40
   8   2  -7   -0.22    0.60
   7   2  -7   -0.13    0.34
   7   2  -7   -0.28    0.51
   6   2  -7    9.96    0.71
   6   2  -7   11.26    1.00
   5   2  -7   13.59    0.70
   4   2  -7    5.55    0.86
   4   2  -7    4.88    0.55
   3   2  -7    3.89    0.47
   3   2  -7    3.74    0.42
  -3  -2   7    3.54    0.43
  -3  -2   7    3.87    0.43
   2   2  -7   14.84    0.58
  -2  -2   7   16.20    0.63
   1   2  -7   90.37    2.51
  -1  -2   7   88.55    2.43
  -1  -2   7   90.48    2.50
   0   2  -7   75.97    2.12
   0   2  -7   71.89    2.10
   0  -2   7   70.74    2.09
   0  -2   7   71.21    2.00
  -1   2  -7    0.91    0.55
  -1   2  -7    0.65    0.37
   1  -2   7    0.38    0.21
   1  -2   7    0.46    0.32
  -2   2  -7    0.26    0.26
  -2   2  -7    0.03    0.41
  -2   2  -7    0.78    0.65
   2  -2   7    0.26    0.45
  -3   2  -7  132.91    3.94
  -3   2  -7  133.23    3.64
  -3   2  -7  135.41    3.86
   3  -2   7  129.67    3.68
  -4   2  -7  143.28    4.33
  -4   2  -7  149.16    4.06
  -4   2  -7  141.69    3.97
   4  -2   7  145.95    4.03
  -5   2  -7    7.11    1.34
  -5   2  -7    6.55    0.92
  -5   2  -7    6.11    0.75
   5  -2   7    6.94    1.05
  -6   2  -7    6.77    1.52
  -6   2  -7    5.83    0.73
   6  -2   7    7.91    0.82
  -7   2  -7   14.22    1.82
   7  -2   7   13.75    1.00
  -8   2  -7   63.77    2.91
   8  -2   7   59.19    2.10
   8   1  -7   21.27    1.41
   7   1  -7   16.60    0.85
   7   1  -7   18.21    1.24
   6   1  -7    0.28    0.50
   6   1  -7    0.25    0.28
   5   1  -7    6.15    0.75
   5   1  -7    5.57    0.49
   4   1  -7   46.86    1.68
   3   1  -7  102.99    2.77
  -3  -1   7  100.48    2.76
   2   1  -7   -0.08    0.32
  -2  -1   7    0.30    0.27
   1   1  -7   71.57    2.07
  -1  -1   7   72.65    2.06
   0   1  -7   -0.08    0.34
   0  -1   7    0.38    0.30
   0  -1   7    0.44    0.18
  -1   1  -7   24.89    1.02
  -1   1  -7   24.97    0.96
   1  -1   7   24.86    0.98
  -2   1  -7    9.98    0.67
  -2   1  -7   10.02    0.79
   2  -1   7    9.36    0.73
  -3   1  -7   63.26    2.05
  -3   1  -7   63.29    1.94
   3  -1   7   64.30    1.98
  -4   1  -7   48.98    1.65
  -4   1  -7   52.23    1.74
   4  -1   7   48.90    1.68
  -5   1  -7    2.31    0.57
  -5   1  -7    1.52    1.02
   5  -1   7    2.25    0.49
  -6   1  -7    4.77    1.23
  -6   1  -7    4.43    0.69
   6  -1   7    3.68    0.54
  -7   1  -7   12.13    1.19
  -7   1  -7    8.67    1.89
   7  -1   7    9.53    1.02
  -8   1  -7   28.21    3.05
   8  -1   7   24.15    1.40
   9   0  -7    6.23    0.88
   8   0  -7   67.69    2.42
   7   0  -7   27.39    1.40
   7   0  -7   25.64    1.00
   6   0  -7    0.14    0.24
   6   0  -7    0.20    0.53
   5   0  -7   -0.10    0.46
   4   0  -7   77.43    2.40
   4   0  -7   79.03    2.16
  -4   0   7   75.55    2.13
   3   0  -7  186.38    4.86
  -3   0   7  180.53    4.84
   2   0  -7    8.99    0.65
  -2   0   7    9.85    0.59
   1   0  -7    4.24    0.63
  -1   0   7    4.67    0.55
   0   0  -7   37.18    1.32
   0   0   7   38.07    1.28
   0   0   7   39.00    1.12
  -1   0  -7  203.06    5.43
  -1   0  -7  201.56    5.44
   1   0   7  204.67    5.34
   1   0   7  203.33    5.44
  -2   0  -7   22.48    0.99
  -2   0  -7   23.37    1.09
   2   0   7   23.49    1.02
   2   0   7   24.22    0.95
  -3   0  -7    9.39    0.92
  -3   0  -7    9.80    0.76
   3   0   7   10.73    0.79
   3   0   7   10.58    0.82
   4   0   7    5.74    0.94
  -5   0  -7   33.65    1.46
   5   0   7   34.47    1.42
  -6   0  -7   16.02    1.25
   6   0   7   16.28    1.15
  -7   0  -7    1.16    0.75
  -7   0  -7   -0.51    1.48
   7   0   7    0.61    0.58
   9  -1  -7    4.17    0.79
   8  -1  -7   51.58    2.04
   7  -1  -7   17.25    1.26
   6  -1  -7    2.04    0.61
   5  -1  -7    3.06    0.57
   5  -1  -7    2.91    0.35
  -5   1   7    2.98    0.44
   4  -1  -7  189.42    4.93
  -4   1   7  182.40    4.91
   3  -1  -7  118.84    3.24
   3  -1  -7  116.61    3.39
  -3   1   7  119.53    3.22
   2  -1  -7    8.55    0.71
  -2   1   7    7.79    0.59
   1  -1  -7    3.33    0.45
  -1   1   7    4.36    0.57
   0  -1  -7   71.92    2.15
   0  -1  -7   72.72    2.18
   0   1   7   72.00    2.14
   0   1   7   72.93    2.00
  -1  -1  -7  138.09    3.86
  -1  -1  -7  142.01    3.90
   1   1   7  140.58    3.90
  -2  -1  -7   34.93    1.30
  -2  -1  -7   36.53    1.45
   2   1   7   35.89    1.26
   2   1   7   34.59    1.32
  -3  -1  -7    0.41    0.91
   3   1   7    0.64    0.39
  -4  -1  -7    6.15    0.96
   4   1   7    5.59    0.84
  -5  -1  -7   34.47    1.56
   5   1   7   33.29    1.51
  -6  -1  -7   27.56    1.53
   6   1   7   27.98    1.47
  -7  -1  -7    1.84    0.85
  -7  -1  -7   -0.69    2.37
   7   1   7    0.63    0.70
   9  -2  -7    0.53    0.76
   8  -2  -7   17.59    1.35
   7  -2  -7    1.80    0.60
   6  -2  -7   20.93    1.31
   5  -2  -7    1.49    0.37
  -5   2   7    1.37    0.34
   4  -2  -7   35.39    1.54
   4  -2  -7   37.77    1.27
  -4   2   7   38.74    1.24
   3  -2  -7   34.23    1.22
  -3   2   7   32.28    1.15
   2  -2  -7    2.94    0.49
  -2   2   7    2.82    0.43
   1  -2  -7    0.24    0.36
   1  -2  -7    0.59    0.49
  -1   2   7    0.49    0.39
   0  -2  -7   47.58    1.64
   0  -2  -7   45.73    1.55
   0   2   7   46.82    1.55
   0   2   7   48.01    1.43
  -1  -2  -7   58.16    1.98
   1   2   7   61.05    2.27
   1   2   7   60.04    1.81
  -2  -2  -7   22.43    1.50
   2   2   7   23.87    1.06
  -3  -2  -7   20.08    1.25
   3   2   7   19.12    1.08
  -4  -2  -7    7.18    1.12
  -5  -2  -7   12.31    1.26
  -6  -2  -7   16.88    1.46
   6   2   7   18.61    1.44
   9  -3  -7    3.15    0.78
   8  -3  -7    0.24    0.66
   7  -3  -7    1.11    0.72
   7  -3  -7    4.61    0.93
   6  -3  -7   30.63    1.57
   6  -3  -7   37.02    1.65
   6  -3  -7   38.04    1.26
   5  -3  -7    5.25    0.68
  -5   3   7    5.31    0.74
   4  -3  -7    1.04    0.71
   4  -3  -7    0.08    0.41
  -4   3   7    0.94    0.36
   3  -3  -7    0.22    0.43
  -3   3   7    0.09    0.35
   2  -3  -7    0.96    0.49
  -2   3   7    0.05    0.39
   1  -3  -7   -0.19    0.36
   1  -3  -7    0.35    0.49
  -1   3   7    0.12    0.38
   0  -3  -7    3.20    0.61
   0  -3  -7    2.94    0.48
   0   3   7    3.20    0.53
   0   3   7    2.99    0.53
  -1  -3  -7    0.14    0.55
   1   3   7   -0.41    0.34
  -2  -3  -7    1.87    0.65
   2   3   7    2.01    0.45
  -3  -3  -7    1.07    0.66
   3   3   7    0.44    0.67
  -4  -3  -7    0.78    0.72
  -5  -3  -7    0.21    0.79
   9  -4  -7    3.41    0.88
   8  -4  -7    4.52    0.93
   7  -4  -7   14.23    0.97
   7  -4  -7   15.59    1.36
   7  -4  -7   12.05    1.60
   6  -4  -7   18.75    1.33
   6  -4  -7   16.79    0.91
   6  -4  -7   12.51    1.49
   5  -4  -7   19.80    1.63
   5  -4  -7   24.36    1.08
  -5   4   7   24.65    1.04
   4  -4  -7   26.66    1.15
   4  -4  -7   25.17    1.56
  -4   4   7   23.79    1.05
   3  -4  -7   17.84    1.03
  -3   4   7   16.13    0.91
   2  -4  -7    6.10    0.90
   1  -4  -7   17.04    1.09
  -1   4   7   15.22    0.82
   0  -4  -7   29.07    1.39
   0   4   7   27.67    1.14
  -1  -4  -7   11.30    1.13
   1   4   7    8.06    0.87
  -2  -4  -7    0.58    0.71
   2   4   7   -0.70    0.50
  -3  -4  -7   -0.85    0.70
  -4  -4  -7    4.74    0.92
   8  -5  -7    3.44    0.90
   7  -5  -7    2.07    0.69
   7  -5  -7    1.80    0.74
   6  -5  -7   11.55    1.32
   6  -5  -7   13.14    1.77
   6  -5  -7   11.82    0.97
   5  -5  -7   36.85    1.76
   5  -5  -7   37.20    2.13
   4  -5  -7   20.38    1.64
   4  -5  -7   26.09    1.23
   3  -5  -7   15.04    1.11
   2  -5  -7    7.64    1.05
   1  -5  -7    8.72    1.07
  -1   5   7    7.65    0.81
   0  -5  -7   72.65    2.44
   0   5   7   70.61    2.30
  -1  -5  -7   14.03    1.31
   1   5   7   11.76    1.06
  -2  -5  -7    1.13    0.78
  -3  -5  -7    4.05    0.98
   8  -6  -7    0.46    0.81
   7  -6  -7   -0.30    0.62
   7  -6  -7    0.49    0.75
   6  -6  -7   -0.19    0.59
   5  -6  -7   18.06    1.19
   4  -6  -7   13.56    1.13
   3  -6  -7    1.54    0.67
   2  -6  -7   -0.54    0.66
   1  -6  -7    9.91    1.23
   0  -6  -7   29.36    1.62
  -1  -6  -7   10.04    1.44
  -2  -6  -7   -0.74    0.88
   7  -7  -7   16.83    1.58
   7  -7  -7   12.83    1.26
   6  -7  -7    3.41    0.77
   5  -7  -7    0.47    0.75
   4  -7  -7   -1.62    0.71
   3  -7  -7    3.70    0.81
   2  -7  -7    1.01    0.77
   1  -7  -7    1.79    0.87
   0  -7  -7    1.92    0.92
   5  -8  -7   -0.18    0.78
   4  -8  -7    1.48    0.87
   3  -8  -7    6.78    0.99
   2  -8  -7    8.29    1.49
   1 -12   8   -0.33    0.97
   1 -12   8   -0.08    0.91
   2 -12   8    4.82    0.89
   3 -12   8    1.16    0.80
   4 -12   8    1.47    1.00
   5 -12   8   -0.20    0.89
  -1 -11   8    9.82    1.57
  -1 -11   8   12.52    1.41
   0 -11   8   21.03    1.79
   0 -11   8   22.90    1.58
   1 -11   8   -0.77    0.70
   2 -11   8   -0.59    0.65
   3 -11   8    3.52    1.07
   4 -11   8   15.66    1.51
   5 -11   8   -0.54    0.73
  -6  11  -8    0.93    1.66
   6 -11   8    1.63    0.81
  -7  11  -8   -1.13    1.83
   3  10  -8   -0.69    0.65
  -3 -10   8   -0.34    0.94
  -3 -10   8   -0.52    0.77
   2  10  -8    3.59    0.62
  -2 -10   8    2.62    0.88
  -2 -10   8    1.90    0.78
   1  10  -8   38.38    1.53
  -1 -10   8   40.51    1.73
  -1 -10   8   37.28    1.96
   0  10  -8   23.07    1.01
   0 -10   8   24.24    1.66
   0 -10   8   26.14    1.59
   1 -10   8    8.24    1.29
   1 -10   8   12.42    1.41
   2 -10   8    2.74    0.70
   3 -10   8   12.86    1.30
   4 -10   8   17.29    1.41
  -5  10  -8    7.80    1.56
   5 -10   8    4.31    0.77
  -6  10  -8    1.04    1.53
   6 -10   8    1.24    0.69
  -7  10  -8    7.17    1.95
   7 -10   8    4.52    0.83
   4   9  -8    1.10    0.65
  -4  -9   8    2.01    0.88
   3   9  -8   -1.14    0.52
  -3  -9   8   -0.76    0.73
   2   9  -8    3.38    0.54
  -2  -9   8    2.76    0.79
  -2  -9   8    4.50    0.87
   1   9  -8   17.87    0.97
  -1  -9   8   18.64    1.38
  -1  -9   8   18.10    1.45
   0   9  -8    2.53    0.40
   0  -9   8    2.25    0.79
   0  -9   8    3.73    0.99
   1  -9   8    2.80    0.85
   1  -9   8    1.76    0.64
   2  -9   8   36.92    1.67
   2  -9   8   38.88    1.89
   3  -9   8   15.89    1.24
   3  -9   8   16.30    1.36
  -4   9  -8   10.36    1.79
   4  -9   8   10.12    1.14
  -5   9  -8   14.73    2.00
   5  -9   8   13.45    1.27
  -6   9  -8   28.07    2.32
   6  -9   8   26.04    1.53
  -7   9  -8    8.50    1.78
   7  -9   8    5.90    0.83
  -8   9  -8    5.42    1.84
   8  -9   8    1.95    0.81
   5   8  -8    0.33    0.65
  -5  -8   8    0.02    0.75
   4   8  -8    1.85    0.67
  -4  -8   8    2.87    0.59
  -4  -8   8    2.52    0.75
   3   8  -8   -0.13    0.49
  -3  -8   8    0.61    0.53
  -3  -8   8   -0.73    0.64
   2   8  -8    0.85    0.44
  -2  -8   8   -0.24    0.59
   1   8  -8   -0.45    0.37
  -1  -8   8   -0.98    0.56
  -1  -8   8    0.84    0.68
   0   8  -8    0.25    0.32
   0  -8   8   -0.08    0.84
   0  -8   8    0.49    0.72
  -1   8  -8    6.93    0.95
  -1   8  -8    7.62    0.58
   1  -8   8    6.98    1.00
   2  -8   8   15.38    1.14
   2  -8   8   12.36    1.37
  -3   8  -8    0.16    0.96
   3  -8   8    1.02    0.70
   3  -8   8    0.03    0.49
   4  -8   8    3.48    1.00
   4  -8   8    2.06    0.56
  -5   8  -8   11.73    1.85
   5  -8   8   12.12    1.14
  -6   8  -8   21.98    2.27
   6  -8   8   24.54    1.38
  -7   8  -8    1.76    1.86
   7  -8   8    2.57    0.63
  -8   8  -8    2.39    2.06
   8  -8   8    0.95    0.66
   6   7  -8    6.27    0.87
   5   7  -8   11.37    1.18
  -5  -7   8   12.60    1.37
   4   7  -8    4.94    0.67
  -4  -7   8    7.81    1.17
  -4  -7   8    6.09    0.74
  -3  -7   8    3.17    0.66
  -3  -7   8    4.74    0.73
   2   7  -8    5.21    0.76
   2   7  -8    5.81    0.74
  -2  -7   8    4.85    0.64
  -2  -7   8    7.37    0.85
   1   7  -8   84.64    2.61
   1   7  -8   88.67    2.53
  -1  -7   8   90.52    2.72
  -1  -7   8   85.46    2.55
   0   7  -8   24.27    0.98
   0   7  -8   23.01    1.08
   0  -7   8   24.67    1.23
   0  -7   8   23.54    1.07
   0  -7   8   24.47    1.19
  -1   7  -8    8.42    0.65
   1  -7   8    8.35    0.94
   1  -7   8    8.78    0.81
   1  -7   8    8.48    0.93
  -2   7  -8   -0.05    0.28
  -2   7  -8   -0.32    0.83
   2  -7   8   -0.07    0.42
   2  -7   8    0.41    0.66
   2  -7   8   -0.17    0.44
  -3   7  -8   45.42    2.08
   3  -7   8   45.03    1.91
   3  -7   8   44.96    1.66
  -4   7  -8   28.81    1.84
   4  -7   8   23.02    1.79
  -5   7  -8    9.69    1.85
   5  -7   8    9.72    0.97
  -6   7  -8   12.21    2.08
  -6   7  -8   11.96    0.74
   6  -7   8   14.67    1.11
  -7   7  -8    0.91    1.79
   7  -7   8    1.09    0.58
   8  -7   8    8.87    1.26
   6   6  -8   26.41    1.48
   5   6  -8   31.15    1.48
  -5  -6   8   31.17    1.85
   4   6  -8    0.24    0.48
   4   6  -8    0.41    0.48
  -4  -6   8   -0.04    0.54
   3   6  -8    0.29    0.44
   3   6  -8    0.58    0.37
  -3  -6   8    0.46    0.49
  -3  -6   8    0.91    0.36
   2   6  -8   45.44    1.58
   2   6  -8   47.96    1.60
  -2  -6   8   47.18    1.70
  -2  -6   8   47.77    1.53
   1   6  -8  166.76    4.68
   1   6  -8  173.14    4.66
  -1  -6   8  169.23    4.67
  -1  -6   8  178.52    4.76
   0   6  -8   28.89    1.11
   0   6  -8   27.61    1.14
   0  -6   8   29.83    1.26
   0  -6   8   28.94    1.17
  -1   6  -8    5.73    0.64
  -1   6  -8    5.31    0.65
  -1   6  -8    4.70    1.06
   1  -6   8    5.70    0.92
   1  -6   8    4.96    0.53
   1  -6   8    5.13    0.76
  -2   6  -8    6.85    0.57
  -2   6  -8    8.31    1.08
   2  -6   8    6.70    0.83
   2  -6   8    7.71    0.81
  -3   6  -8  105.64    3.13
  -3   6  -8  118.32    3.66
   3  -6   8  119.23    3.45
   3  -6   8  117.58    3.31
  -4   6  -8   82.86    2.35
  -4   6  -8   84.72    3.01
   4  -6   8   85.22    2.55
  -5   6  -8    8.81    1.86
  -5   6  -8    7.72    0.66
   5  -6   8    9.88    0.91
  -6   6  -8    1.48    1.55
  -6   6  -8   -0.04    0.41
   6  -6   8   -0.05    0.46
  -7   6  -8   50.24    1.73
   7  -6   8   51.99    1.93
   8  -6   8   19.79    1.41
   7   5  -8   -0.40    0.71
   6   5  -8   31.55    1.54
   5   5  -8    4.08    0.48
  -5  -5   8    6.83    0.93
   4   5  -8    2.05    0.38
   4   5  -8    1.53    0.51
  -4  -5   8    1.79    0.47
   3   5  -8    3.65    0.60
   3   5  -8    2.93    0.48
  -3  -5   8    2.97    0.48
  -3  -5   8    2.92    0.38
   2   5  -8   75.29    2.24
   2   5  -8   77.64    2.31
  -2  -5   8   73.09    2.19
  -2  -5   8   77.38    2.31
   1   5  -8  149.81    4.06
   1   5  -8  146.11    4.03
  -1  -5   8  144.40    4.02
  -1  -5   8  151.13    4.14
   0   5  -8    2.09    0.39
   0   5  -8    1.72    0.33
   0  -5   8    2.21    0.42
   0  -5   8    2.20    0.42
  -1   5  -8    5.97    0.88
   1  -5   8    5.20    0.71
   1  -5   8    5.94    0.71
  -2   5  -8   48.43    1.51
  -2   5  -8   47.46    1.97
   2  -5   8   53.14    1.64
   2  -5   8   49.56    1.68
  -3   5  -8  139.47    3.76
  -3   5  -8  135.27    4.24
   3  -5   8  144.15    3.88
  -4   5  -8   35.55    1.98
  -4   5  -8   39.91    1.29
   4  -5   8   41.43    1.44
   4  -5   8   38.30    1.77
  -5   5  -8    2.08    1.76
  -5   5  -8   -0.31    0.32
   5  -5   8    0.31    0.43
  -6   5  -8    0.35    0.40
  -6   5  -8    2.54    1.32
   6  -5   8    1.12    0.49
  -7   5  -8   34.65    1.45
  -8   5  -8   12.15    2.42
   7   4  -8    0.83    0.62
   6   4  -8   13.46    0.91
   6   4  -8   16.76    1.20
   5   4  -8    0.59    0.48
   5   4  -8    0.39    0.34
   4   4  -8   67.32    2.43
   4   4  -8   64.89    2.01
  -4  -4   8   68.97    2.06
   3   4  -8   14.07    0.95
   3   4  -8   13.59    0.72
  -3  -4   8   13.14    0.82
  -3  -4   8   14.02    0.70
   2   4  -8   43.08    1.50
   2   4  -8   40.81    1.33
  -2  -4   8   40.59    1.39
  -2  -4   8   40.66    1.34
   1   4  -8   34.23    1.27
   1   4  -8   33.61    1.15
  -1  -4   8   34.41    1.21
  -1  -4   8   35.90    1.23
   0  -4   8    4.17    0.63
   0  -4   8    4.79    0.66
  -1   4  -8   23.40    1.38
   1  -4   8   27.33    1.10
   1  -4   8   27.58    1.01
  -2   4  -8    4.81    0.92
  -2   4  -8    4.16    0.56
   2  -4   8    4.81    0.61
   2  -4   8    3.65    0.49
  -3   4  -8   92.58    2.62
  -3   4  -8   91.30    3.03
   3  -4   8   95.32    2.68
   3  -4   8   93.65    2.78
  -4   4  -8    0.54    0.86
  -4   4  -8    1.15    0.35
   4  -4   8    1.79    0.52
   4  -4   8    0.52    0.38
  -5   4  -8    0.93    0.38
  -5   4  -8    1.50    1.09
  -6   4  -8    5.41    0.78
  -6   4  -8    4.29    1.23
  -7   4  -8   20.71    2.17
  -8   4  -8   11.32    2.19
   7   3  -8    2.62    0.64
   6   3  -8    0.70    0.55
   6   3  -8    0.78    0.34
   5   3  -8   22.06    0.93
   5   3  -8   24.09    1.21
   4   3  -8   94.31    3.05
   4   3  -8   95.63    2.68
  -4  -3   8   97.99    2.68
   3   3  -8   36.64    1.19
   3   3  -8   37.33    1.40
  -3  -3   8   34.80    1.26
  -3  -3   8   34.18    1.18
   2   3  -8    1.51    0.42
   2   3  -8    1.49    0.25
  -2  -3   8    1.28    0.30
  -2  -3   8    1.13    0.35
  -1  -3   8    1.07    0.37
  -1  -3   8    0.82    0.29
   0  -3   8   33.90    1.13
   0  -3   8   33.62    1.21
  -1   3  -8   43.13    1.49
  -1   3  -8   45.71    1.57
   1  -3   8   44.08    1.38
   1  -3   8   45.11    1.50
  -2   3  -8    0.16    0.41
  -2   3  -8    0.39    0.30
  -2   3  -8   -0.09    0.63
   2  -3   8    0.38    0.29
   2  -3   8   -0.02    0.41
  -3   3  -8    1.00    0.48
  -3   3  -8    0.97    0.36
  -3   3  -8    1.06    0.79
   3  -3   8    1.02    0.44
   3  -3   8    0.61    0.33
  -4   3  -8    3.29    0.88
  -4   3  -8    2.64    0.40
  -4   3  -8    2.30    0.58
   4  -3   8    3.18    0.77
  -5   3  -8    1.69    0.93
  -5   3  -8    2.26    0.44
  -6   3  -8    1.23    1.00
  -7   3  -8    1.27    1.12
  -8   3  -8    1.42    1.45
   8  -3   8    0.52    0.59
   8   2  -8   21.37    1.50
   7   2  -8    0.91    0.67
   6   2  -8    1.93    0.60
   6   2  -8    1.91    0.33
   5   2  -8   26.18    0.98
   5   2  -8   29.69    1.33
   4   2  -8   73.85    2.13
   4   2  -8   80.21    2.43
   3   2  -8   25.22    1.18
  -3  -2   8   25.87    0.92
   2   2  -8   51.97    1.59
  -2  -2   8   52.44    1.59
   1   2  -8   34.78    1.25
  -1  -2   8   35.74    1.22
   0   2  -8   31.24    1.21
   0   2  -8   29.15    1.15
   0  -2   8   28.68    1.12
   0  -2   8   29.81    0.97
  -1   2  -8   55.92    1.79
  -1   2  -8   56.67    1.93
  -1   2  -8   54.83    1.73
   1  -2   8   56.38    1.63
   1  -2   8   55.17    1.76
  -2   2  -8   41.81    1.40
  -2   2  -8   43.96    1.78
  -2   2  -8   42.00    1.52
   2  -2   8   41.76    1.55
  -3   2  -8   21.51    0.97
  -3   2  -8   21.35    1.48
  -3   2  -8   21.06    1.12
   3  -2   8   20.26    1.05
  -4   2  -8   11.50    0.82
  -4   2  -8   11.16    1.37
  -4   2  -8   11.39    1.19
  -5   2  -8    8.38    1.46
  -5   2  -8    7.34    1.01
  -6   2  -8   12.40    1.76
  -6   2  -8   14.80    1.19
  -7   2  -8   12.98    1.93
   8  -2   8    0.67    0.63
   8   1  -8    1.81    0.67
   7   1  -8    0.06    0.52
   6   1  -8    1.93    0.54
   6   1  -8    1.72    0.37
   5   1  -8    9.43    1.03
   4   1  -8   25.49    1.20
  -4  -1   8   23.72    0.87
   3   1  -8   21.71    0.91
  -3  -1   8   20.65    0.84
   2   1  -8   23.83    0.99
  -2  -1   8   24.51    0.93
   1   1  -8   28.38    1.11
  -1  -1   8   28.66    1.06
   0   1  -8    0.33    0.42
   0  -1   8   -0.03    0.34
   0  -1   8    0.46    0.20
  -1   1  -8   19.88    1.01
  -1   1  -8   20.62    0.91
   1  -1   8   19.48    0.95
  -2   1  -8  103.44    3.03
  -2   1  -8   95.89    2.90
   2  -1   8  100.56    2.90
  -3   1  -8   63.44    2.10
  -3   1  -8   62.47    1.97
   3  -1   8   63.24    2.19
  -4   1  -8    1.41    0.55
  -5   1  -8    3.62    1.21
  -6   1  -8   25.92    2.15
  -6   1  -8   28.89    1.52
  -7   1  -8   34.50    1.72
  -7   1  -8   31.87    2.46
   7  -1   8   32.27    1.54
   8   0  -8    4.64    0.80
   7   0  -8    0.14    0.57
   6   0  -8    0.43    0.58
   5   0  -8   18.69    1.20
   4   0  -8    9.00    0.66
   4   0  -8   10.94    1.11
  -4   0   8    8.91    0.59
   3   0  -8   15.42    0.83
  -3   0   8   14.28    0.72
   2   0  -8   28.38    1.11
  -2   0   8   28.05    1.12
   1   0  -8   -0.03    0.43
  -1   0   8   -0.14    0.36
   0   0  -8   19.70    1.00
   0   0  -8   18.48    0.93
   0   0   8   20.28    0.92
   0   0   8   19.58    0.72
  -1   0  -8    2.53    0.51
  -1   0  -8    2.81    0.39
   1   0   8    3.15    0.46
   1   0   8    2.88    0.43
  -2   0  -8   67.97    2.18
  -2   0  -8   66.75    2.11
   2   0   8   70.76    2.04
  -3   0  -8   12.90    1.04
   3   0   8   13.90    0.86
  -4   0  -8    1.21    0.60
   4   0   8    1.67    0.44
  -5   0  -8    0.39    0.62
  -6   0  -8   25.58    1.50
  -6   0  -8   20.09    2.62
  -7   0  -8   24.15    1.66
   8  -1  -8    7.91    1.26
   7  -1  -8    1.09    0.63
   6  -1  -8   13.14    1.22
   5  -1  -8   44.94    1.38
   5  -1  -8   44.49    1.88
  -5   1   8   41.14    1.35
   4  -1  -8   55.19    1.67
  -4   1   8   53.03    1.63
   3  -1  -8    0.35    0.42
  -3   1   8   -0.28    0.31
   2  -1  -8    6.24    0.78
  -2   1   8    5.38    0.62
   1  -1  -8   65.62    2.03
  -1   1   8   63.74    1.97
   0  -1  -8   79.42    2.56
   0  -1  -8   84.33    2.50
   0   1   8   82.72    2.43
  -1  -1  -8    3.96    0.63
   1   1   8    2.54    0.45
   1   1   8    4.46    0.60
  -2  -1  -8   15.96    1.08
   2   1   8   15.42    0.87
  -3  -1  -8    1.80    0.60
   3   1   8    2.22    0.45
  -4  -1  -8   19.17    1.29
  -5  -1  -8    0.76    0.78
  -6  -1  -8    6.83    0.97
   8  -2  -8    4.30    0.80
   7  -2  -8   -0.41    0.72
   6  -2  -8   26.00    1.00
   6  -2  -8   27.38    1.55
   5  -2  -8   81.37    2.58
   5  -2  -8   76.23    2.24
  -5   2   8   73.43    2.22
   4  -2  -8   48.16    1.84
   4  -2  -8   51.53    1.64
  -4   2   8   51.96    1.60
   3  -2  -8   -0.16    0.42
  -3   2   8    0.01    0.34
   2  -2  -8    2.81    0.53
  -2   2   8    2.61    0.49
   1  -2  -8   80.53    2.45
   1  -2  -8   82.57    2.82
  -1   2   8   77.38    2.38
   0  -2  -8   94.96    3.11
   0   2   8  102.96    2.73
  -1  -2  -8   10.96    1.04
   1   2   8   11.56    0.78
  -2  -2  -8    2.63    0.66
   2   2   8    2.54    0.45
  -3  -2  -8   15.73    1.26
   3   2   8   13.81    1.08
  -4  -2  -8   65.35    2.34
  -5  -2  -8    5.14    0.93
   8  -3  -8    2.44    0.84
   7  -3  -8   -0.46    0.70
   6  -3  -8    5.89    0.80
   6  -3  -8    6.62    0.75
   5  -3  -8   54.07    1.91
  -5   3   8   55.43    1.76
   4  -3  -8   14.88    0.93
   4  -3  -8   13.83    1.29
  -4   3   8   14.13    0.83
   3  -3  -8    2.94    0.55
  -3   3   8    2.14    0.45
   2  -3  -8    2.76    0.59
  -2   3   8    2.98    0.60
   1  -3  -8   64.31    2.12
   0  -3  -8   48.98    1.80
   0   3   8   46.11    1.54
  -1  -3  -8   13.01    1.17
   1   3   8   10.14    0.88
  -2  -3  -8    6.80    0.86
   2   3   8    5.46    0.61
  -3  -3  -8   19.02    1.46
  -4  -3  -8   21.60    1.59
  -5  -3  -8   10.90    1.56
   8  -4  -8    8.48    1.11
   7  -4  -8    9.42    0.93
   7  -4  -8    9.98    1.41
   6  -4  -8    0.59    0.76
   6  -4  -8    0.46    0.50
   5  -4  -8    4.49    0.59
   5  -4  -8    3.64    1.31
  -5   4   8    5.70    0.84
   4  -4  -8    0.63    0.93
   4  -4  -8   -0.52    0.88
   3  -4  -8    2.27    0.58
   2  -4  -8    0.60    0.61
   1  -4  -8    2.50    0.70
   0  -4  -8   17.79    1.29
   0   4   8   17.12    1.03
  -1  -4  -8    0.09    0.73
  -2  -4  -8    0.73    0.78
   2   4   8   -0.21    0.75
  -3  -4  -8    4.70    0.96
  -4  -4  -8    2.94    1.05
   7  -5  -8   20.33    1.69
   6  -5  -8    5.17    0.87
   6  -5  -8    4.35    0.68
   5  -5  -8    2.27    0.62
   4  -5  -8    7.11    1.04
   3  -5  -8    9.37    1.12
   2  -5  -8   13.63    1.28
   1  -5  -8    1.70    0.75
   0  -5  -8    1.65    0.77
  -1  -5  -8    0.12    0.83
  -2  -5  -8   -0.71    0.89
   6  -6  -8    4.13    0.75
   5  -6  -8   13.10    1.22
   4  -6  -8    5.07    0.82
   3  -6  -8    6.35    0.84
   2  -6  -8   34.15    1.76
   1  -6  -8   18.04    1.53
   0  -6  -8    4.84    0.99
  -1  -6  -8    1.73    1.08
   5  -7  -8    1.92    0.77
   4  -7  -8    1.92    0.85
   3  -7  -8    0.73    0.82
   2  -7  -8    7.54    1.01
   1 -12   9   18.83    2.34
   2 -12   9    2.86    0.89
   4 -12   9    0.59    1.04
  -1 -11   9    2.45    0.94
  -1 -11   9    3.22    0.90
   0 -11   9    2.03    0.88
   1 -11   9   23.70    1.73
   2 -11   9   -0.36    0.68
   3 -11   9    0.96    0.74
   4 -11   9    1.72    0.78
   5 -11   9   17.37    1.63
  -6  11  -9   10.08    2.04
   6 -11   9    7.60    1.08
   2  10  -9   17.70    1.22
  -2 -10   9   14.84    1.73
  -2 -10   9   20.86    1.41
   1  10  -9   20.97    1.37
  -1 -10   9   18.48    1.60
   0  10  -9    3.70    0.47
   0 -10   9    2.05    0.79
   1 -10   9    5.42    0.90
   2 -10   9   12.97    1.33
   2 -10   9   16.51    2.28
   3 -10   9   36.36    1.80
   4 -10   9   -0.06    0.64
  -5  10  -9    9.08    1.69
   5 -10   9    8.56    1.35
  -6  10  -9    0.92    1.60
   6 -10   9   -0.27    0.73
  -7  10  -9    3.62    1.80
   7 -10   9    1.59    0.90
   4   9  -9    0.42    0.64
  -4  -9   9    0.82    0.81
   3   9  -9   10.04    1.13
  -3  -9   9    8.67    1.31
  -3  -9   9    8.65    1.07
   2   9  -9   56.14    1.95
  -2  -9   9   58.00    2.32
   1   9  -9   27.77    1.20
  -1  -9   9   27.99    1.62
   0   9  -9   -0.31    0.38
   0  -9   9    1.68    0.82
   0  -9   9   -1.13    0.57
  -1   9  -9    0.08    0.33
   1  -9   9   -0.27    0.61
   1  -9   9    1.45    0.73
   2  -9   9   25.72    1.46
   2  -9   9   26.32    1.52
  -3   9  -9   40.05    2.34
   3  -9   9   39.09    1.74
   3  -9   9   37.84    2.02
  -4   9  -9    3.27    1.27
   4  -9   9    2.23    0.64
  -5   9  -9    1.68    1.38
   5  -9   9    0.65    0.61
  -6   9  -9   10.80    1.71
   6  -9   9   11.00    1.32
   7  -9   9    3.95    0.82
   4   8  -9    0.78    0.59
  -4  -8   9    0.33    0.70
   3   8  -9   10.49    1.06
  -3  -8   9   13.91    1.12
  -3  -8   9    9.42    1.36
   2   8  -9   37.57    1.45
  -2  -8   9   37.75    1.73
  -2  -8   9   35.89    1.41
   1   8  -9   13.86    0.90
  -1  -8   9   14.97    0.94
  -1  -8   9   12.79    1.24
   0   8  -9   -0.05    0.37
   0  -8   9    0.80    0.58
   0  -8   9   -0.51    0.59
  -1   8  -9    4.75    0.66
   1  -8   9    4.07    0.78
   1  -8   9    6.23    1.01
  -2   8  -9   51.25    2.18
  -2   8  -9   50.32    1.54
   2  -8   9   48.77    2.06
   2  -8   9   48.57    1.87
  -3   8  -9   26.88    1.77
   3  -8   9   28.02    1.37
   3  -8   9   21.73    1.56
  -4   8  -9   12.24    1.88
   4  -8   9   10.42    1.11
  -5   8  -9   12.34    1.82
   5  -8   9   11.58    1.17
  -6   8  -9   13.47    2.23
   6  -8   9   16.89    1.28
  -7   8  -9    3.22    1.96
   7  -8   9    5.44    0.75
  -8   8  -9    5.42    2.48
   8  -8   9    3.44    1.35
   5   7  -9    1.62    0.66
  -5  -7   9    2.11    0.70
   4   7  -9    1.78    0.59
  -4  -7   9    0.93    0.63
  -4  -7   9    1.57    0.48
   3   7  -9    3.25    0.60
  -3  -7   9    3.12    0.66
   2   7  -9    5.93    0.77
   2   7  -9    5.41    0.84
  -2  -7   9    6.09    0.73
  -2  -7   9    4.30    0.64
   1   7  -9    0.22    0.36
   1   7  -9    0.24    0.39
  -1  -7   9    0.88    0.43
  -1  -7   9    0.07    0.51
   0   7  -9    0.71    0.39
   0   7  -9    0.00    0.34
   0  -7   9   -0.49    0.43
   0  -7   9    0.49    0.48
  -1   7  -9    5.52    0.79
  -1   7  -9    7.53    0.70
   1  -7   9    5.26    1.02
   1  -7   9    7.08    0.85
   1  -7   9    6.30    0.89
  -2   7  -9    3.70    0.53
  -2   7  -9    4.98    0.64
  -2   7  -9    5.51    0.99
   2  -7   9    3.87    0.57
  -3   7  -9    6.33    1.14
  -3   7  -9    4.54    0.53
   3  -7   9    4.42    0.58
  -4   7  -9    9.76    1.55
  -4   7  -9    8.07    0.62
   4  -7   9   10.42    1.00
  -5   7  -9   14.55    1.95
  -5   7  -9   15.14    0.81
   5  -7   9   16.08    1.14
  -6   7  -9    2.47    1.74
   6  -7   9    4.21    0.66
  -7   7  -9    0.77    1.86
   7  -7   9    0.65    0.58
  -8   7  -9    5.44    2.19
   8  -7   9    4.68    0.81
   6   6  -9    6.54    1.04
   5   6  -9   14.93    1.19
  -5  -6   9   17.37    1.25
   4   6  -9    0.22    0.51
   4   6  -9    0.95    0.40
  -4  -6   9    0.58    0.58
  -4  -6   9    0.56    0.54
   3   6  -9   19.48    1.20
   3   6  -9   21.26    1.11
  -3  -6   9   20.56    0.95
  -3  -6   9   19.62    1.18
   2   6  -9    7.24    0.70
   2   6  -9    7.41    0.83
  -2  -6   9    7.41    0.91
  -2  -6   9    8.16    0.71
   1   6  -9    2.65    0.46
  -1  -6   9    2.68    0.43
  -1  -6   9    2.06    0.46
   0   6  -9    0.42    0.39
   0   6  -9    0.20    0.30
   0  -6   9    0.34    0.39
   0  -6   9    0.36    0.41
  -1   6  -9    5.26    0.88
   1  -6   9    3.51    0.64
   1  -6   9    5.45    0.76
  -2   6  -9   28.85    1.04
  -2   6  -9   27.47    1.68
   2  -6   9   29.20    1.29
   2  -6   9   28.93    1.22
  -3   6  -9    3.80    1.08
  -3   6  -9    1.41    0.33
   3  -6   9    1.71    0.45
  -4   6  -9   13.10    0.73
  -4   6  -9   10.94    1.58
  -5   6  -9    7.59    1.42
  -5   6  -9    8.03    0.94
   5  -6   9    7.07    0.93
  -6   6  -9    2.10    1.61
  -6   6  -9    0.24    0.44
   6  -6   9    0.65    0.52
  -7   6  -9    3.92    1.89
   7  -6   9    4.29    0.67
  -8   6  -9    4.96    2.12
   8  -6   9    2.57    0.85
   6   5  -9   13.96    1.25
   5   5  -9    3.92    0.65
   5   5  -9    1.97    0.41
  -5  -5   9    2.64    0.53
   4   5  -9    3.59    0.58
   4   5  -9    4.06    0.63
  -4  -5   9    2.60    0.50
  -4  -5   9    3.69    0.59
   3   5  -9   43.51    1.44
  -3  -5   9   42.84    1.54
  -3  -5   9   42.19    1.42
   2   5  -9   69.38    2.17
   2   5  -9   67.18    2.04
  -2  -5   9   68.27    2.04
  -2  -5   9   69.32    2.11
   1   5  -9    8.06    0.81
   1   5  -9    6.44    0.62
  -1  -5   9    6.65    0.71
  -1  -5   9    7.11    0.76
   0  -5   9   -0.01    0.37
   0  -5   9    0.25    0.40
  -1   5  -9   25.25    1.46
   1  -5   9   31.14    1.20
   1  -5   9   31.30    1.25
  -2   5  -9  131.68    4.11
  -2   5  -9  141.23    3.80
   2  -5   9  137.06    3.93
   2  -5   9  147.01    3.88
  -3   5  -9   11.40    0.73
  -3   5  -9   12.05    1.52
   3  -5   9   12.07    0.84
  -4   5  -9    1.74    0.38
  -4   5  -9    1.24    1.15
   4  -5   9    1.35    0.43
  -5   5  -9   -0.20    0.37
  -5   5  -9    1.07    1.26
   5  -5   9    0.27    0.44
  -6   5  -9   28.89    1.28
  -6   5  -9   26.00    2.28
   6  -5   9   34.77    1.43
  -7   5  -9   15.88    2.19
   7  -5   9   17.81    1.28
  -8   5  -9    3.92    2.03
   7   4  -9   19.51    1.48
   6   4  -9    8.82    1.16
   5   4  -9    1.81    0.58
   5   4  -9    2.00    0.36
   4   4  -9    2.93    0.36
   4   4  -9    3.54    0.59
  -4  -4   9    3.63    0.44
   3   4  -9   83.60    2.60
   3   4  -9   78.03    2.32
  -3  -4   9   82.53    2.37
  -3  -4   9   82.15    2.33
   2   4  -9   64.82    1.94
   2   4  -9   68.21    2.12
  -2  -4   9   68.18    1.99
  -2  -4   9   65.80    1.98
  -1  -4   9    1.28    0.42
  -1  -4   9    0.55    0.34
   0  -4   9    0.89    0.45
   0  -4   9    0.38    0.34
   1  -4   9  103.02    3.03
   1  -4   9  105.85    2.94
  -2   4  -9  117.52    3.32
   2  -4   9  121.30    3.33
   2  -4   9  119.40    3.42
  -3   4  -9   22.78    0.98
  -3   4  -9   22.97    1.52
   3  -4   9   23.35    1.03
  -4   4  -9    6.42    0.71
  -4   4  -9    4.04    0.99
   4  -4   9    5.92    0.75
  -5   4  -9    9.71    0.85
  -5   4  -9    7.83    1.61
   5  -4   9   10.26    0.91
  -6   4  -9   57.94    2.77
  -7   4  -9   14.89    2.16
   7   3  -9    6.11    0.79
   6   3  -9    1.05    0.58
   5   3  -9   28.88    1.06
   5   3  -9   29.99    1.42
   4   3  -9    0.17    0.31
   4   3  -9    0.49    0.53
   3   3  -9   41.23    1.57
   3   3  -9   39.11    1.23
  -3  -3   9   39.75    1.30
  -3  -3   9   40.88    1.25
  -2  -3   9   15.42    0.72
  -2  -3   9   16.59    0.82
  -1  -3   9   42.57    1.45
  -1  -3   9   43.93    1.35
   0  -3   9    3.69    0.57
   0  -3   9    4.61    0.70
  -1   3  -9   94.26    2.81
  -1   3  -9   91.96    2.74
   1  -3   9   93.35    2.74
   1  -3   9   95.11    2.63
  -2   3  -9   67.64    2.16
  -2   3  -9   68.30    2.08
  -2   3  -9   70.16    2.35
   2  -3   9   67.51    2.15
   2  -3   9   71.62    2.05
  -3   3  -9    4.33    0.85
  -3   3  -9    3.27    0.56
  -3   3  -9    3.26    0.45
   3  -3   9    3.15    0.41
  -4   3  -9    3.77    0.62
  -4   3  -9    2.96    1.10
  -4   3  -9    3.32    0.48
  -5   3  -9    7.49    1.50
  -6   3  -9   37.74    2.15
  -7   3  -9   12.26    1.94
   7   2  -9    0.89    0.65
   5   2  -9   64.21    2.26
   4   2  -9    6.81    0.99
  -4  -2   9    5.97    0.55
   3   2  -9   19.42    1.27
  -3  -2   9   20.45    0.84
   2   2  -9   -0.01    0.37
  -2  -2   9    0.38    0.37
   1   2  -9  101.75    2.86
  -1  -2   9   96.96    2.82
   0   2  -9   29.37    1.25
   0   2  -9   27.47    1.20
   0  -2   9   27.41    1.14
   0  -2   9   25.76    0.94
  -1   2  -9    9.14    1.13
  -1   2  -9   11.45    0.78
  -1   2  -9   10.11    0.91
   1  -2   9   11.38    0.63
   1  -2   9   10.76    0.83
  -2   2  -9    6.25    0.70
  -2   2  -9    6.89    0.88
  -2   2  -9    5.99    1.19
   2  -2   9    6.26    0.78
   2  -2   9    5.58    0.59
  -3   2  -9    8.53    1.35
  -3   2  -9    8.92    0.79
  -3   2  -9   10.14    0.98
  -4   2  -9   10.00    1.08
  -4   2  -9    8.35    1.42
  -5   2  -9    2.05    0.70
  -5   2  -9    1.68    1.09
  -6   2  -9    6.34    1.40
  -6   2  -9    4.56    0.78
  -7   2  -9    0.82    1.38
   8   1  -9   -0.09    0.87
   7   1  -9    0.28    0.61
   6   1  -9   45.56    1.86
   5   1  -9   54.75    2.03
   4   1  -9   12.20    0.68
   4   1  -9   11.10    1.02
  -4  -1   9   10.42    0.65
   3   1  -9    3.59    0.47
  -3  -1   9    3.02    0.40
   2   1  -9   43.67    1.46
  -2  -1   9   41.27    1.40
   1   1  -9   86.52    2.51
  -1  -1   9   84.59    2.49
   0   1  -9   44.42    1.58
   0  -1   9   45.58    1.54
  -1   1  -9    2.11    0.51
  -1   1  -9    1.59    0.45
   1  -1   9    1.78    0.28
   1  -1   9    1.75    0.45
  -2   1  -9    2.38    0.53
  -2   1  -9    2.55    0.57
  -3   1  -9   16.83    1.14
  -4   1  -9   10.13    1.11
   4  -1   9   10.02    0.97
  -5   1  -9    6.20    1.48
  -5   1  -9    8.46    1.20
  -6   1  -9    5.14    0.86
  -6   1  -9    2.91    1.40
   8   0  -9    0.17    0.69
   7   0  -9    0.69    0.60
   6   0  -9   15.32    1.35
   5   0  -9   27.85    1.45
   5   0  -9   27.94    1.01
  -5   0   9   25.73    1.03
  -4   0   9    4.17    0.59
   3   0  -9    4.18    0.49
  -3   0   9    2.98    0.42
   2   0  -9   15.76    0.92
  -2   0   9   15.29    0.82
   1   0  -9   54.05    1.79
  -1   0   9   54.66    1.75
   0   0  -9   30.09    1.29
   0   0   9   29.72    1.22
  -1   0  -9   29.97    1.52
   1   0   9   28.06    1.04
  -2   0  -9   15.67    1.12
   2   0   9   16.50    0.87
  -3   0  -9   12.94    1.14
   3   0   9   12.57    0.92
  -4   0  -9   13.55    1.23
  -5   0  -9   29.87    1.61
  -6   0  -9   11.25    1.85
  -6   0  -9   16.18    1.60
   8  -1  -9    0.12    0.75
   7  -1  -9    0.54    0.72
   6  -1  -9   -0.12    0.66
   5  -1  -9    0.86    0.40
   5  -1  -9    1.01    0.62
  -5   1   9    0.06    0.37
   4  -1  -9    2.81    0.47
  -4   1   9    1.91    0.43
   3  -1  -9    0.17    0.44
  -3   1   9   -0.22    0.37
   2  -1  -9   -0.29    0.45
  -2   1   9    0.12    0.39
   1  -1  -9    1.16    0.50
  -1   1   9    0.24    0.42
   0  -1  -9   24.58    1.23
  -1  -1  -9   19.25    1.27
   1   1   9   19.58    0.90
  -2  -1  -9    6.41    1.03
   2   1   9    6.50    0.81
  -3  -1  -9    0.41    0.71
   3   1   9   -0.04    0.47
  -4  -1  -9    2.50    0.78
  -5  -1  -9   22.90    1.60
   8  -2  -9    2.02    0.83
   7  -2  -9    1.96    0.80
   6  -2  -9   37.88    1.84
   6  -2  -9   39.05    1.38
   5  -2  -9    3.86    0.54
  -5   2   9    3.65    0.48
   4  -2  -9    0.51    0.72
   4  -2  -9   -0.37    0.46
  -4   2   9   -0.66    0.39
   3  -2  -9    5.75    0.85
  -3   2   9    3.47    0.51
   2  -2  -9   18.03    1.57
   1  -2  -9   15.76    1.10
   0  -2  -9    2.44    0.63
  -1  -2  -9    3.45    0.75
   1   2   9    2.25    0.45
  -2  -2  -9    5.43    0.79
   2   2   9    4.10    0.56
  -3  -2  -9    6.46    0.99
  -4  -2  -9    0.41    0.88
  -5  -2  -9    7.10    1.11
   7  -3  -9   15.54    1.61
   6  -3  -9   32.36    1.33
   6  -3  -9   35.19    1.78
   5  -3  -9   11.96    0.96
  -5   3   9   11.49    0.90
   4  -3  -9    0.49    0.96
   3  -3  -9   16.31    1.11
   2  -3  -9   56.93    2.00
   1  -3  -9   30.04    1.48
   0  -3  -9    0.88    0.69
   0   3   9   -0.71    0.44
  -1  -3  -9   -0.55    0.68
  -2  -3  -9   20.33    1.51
  -3  -3  -9   28.19    1.73
  -4  -3  -9    3.46    1.27
   7  -4  -9   15.84    1.71
   6  -4  -9   19.06    1.42
   6  -4  -9   23.76    1.67
   5  -4  -9    3.18    0.64
   4  -4  -9   -0.43    0.58
   4  -4  -9    1.14    0.97
   3  -4  -9   14.67    1.20
   2  -4  -9   57.90    2.11
   1  -4  -9   15.72    1.31
   0  -4  -9    1.88    0.77
  -1  -4  -9    1.36    0.82
  -2  -4  -9   22.38    1.73
   6  -5  -9    2.72    0.89
   6  -5  -9    1.56    0.69
   5  -5  -9    0.30    0.65
   4  -5  -9    2.55    0.74
   3  -5  -9    0.90    0.68
   2  -5  -9   19.08    1.43
   1  -5  -9    0.16    0.80
   0  -5  -9    0.67    0.84
  -1  -5  -9    1.91    1.00
   5  -6  -9    3.12    0.78
   4  -6  -9    6.11    0.89
   3  -6  -9    1.48    0.77
   2  -6  -9   -0.47    0.84
   1  -6  -9   -0.98    1.05
   0 -11  10    5.39    1.06
   1 -11  10    7.16    1.04
   2 -11  10    0.44    0.67
   3 -11  10    0.37    0.76
   4 -11  10   28.76    2.13
   5 -11  10   10.35    1.78
   2  10 -10    0.25    0.62
  -2 -10  10    3.43    0.84
  -2 -10  10    0.17    0.84
   1  10 -10    8.10    0.99
  -1 -10  10    7.18    0.99
   0  10 -10   10.11    0.87
   0 -10  10    9.75    1.43
   1 -10  10    0.61    0.70
   2 -10  10   -0.11    0.69
   3 -10  10    5.35    0.81
  -4  10 -10   28.88    2.29
   4 -10  10   25.76    1.65
   5 -10  10    3.02    0.80
  -6  10 -10    1.39    1.71
   6 -10  10    0.54    0.93
   3   9 -10   14.44    1.28
  -3  -9  10   17.92    1.30
  -3  -9  10   17.34    1.65
   2   9 -10    5.23    0.66
  -2  -9  10    6.44    0.86
  -1  -9  10    1.12    0.72
   0   9 -10    2.66    0.47
   0  -9  10    2.68    0.70
  -1   9 -10   22.93    1.03
   1  -9  10   22.93    1.42
   1  -9  10   23.08    1.48
   2  -9  10   10.73    1.37
   2  -9  10   13.31    1.27
   3  -9  10    4.76    0.72
  -4   9 -10   23.33    2.02
   4  -9  10   19.67    1.42
  -5   9 -10   -0.86    1.38
   5  -9  10    0.38    0.62
   6  -9  10    5.68    0.85
  -7   9 -10    5.83    2.13
   4   8 -10   13.21    1.30
  -4  -8  10   14.94    1.50
   3   8 -10   53.87    1.96
  -3  -8  10   54.81    2.20
   2   8 -10    9.31    0.97
  -2  -8  10    9.78    1.27
   1   8 -10    3.17    0.52
  -1  -8  10    2.33    0.64
   0   8 -10    2.74    0.49
   0  -8  10    2.71    0.62
  -1   8 -10   55.95    1.81
   1  -8  10   56.55    2.06
  -2   8 -10   35.16    1.24
  -2   8 -10   37.68    2.08
  -2   8 -10   36.46    1.30
   2  -8  10   35.98    1.61
  -3   8 -10    2.57    0.43
  -3   8 -10    4.04    0.59
  -3   8 -10    3.18    1.14
   3  -8  10    3.19    0.62
  -4   8 -10    2.61    1.27
   4  -8  10    2.20    0.59
  -5   8 -10    4.86    1.69
   5  -8  10    7.25    1.16
  -6   8 -10   21.13    2.44
   6  -8  10   30.09    1.56
  -7   8 -10    2.31    2.11
   7  -8  10    0.20    0.79
   5   7 -10   -0.06    0.65
  -5  -7  10    1.57    0.71
   4   7 -10   15.50    1.21
  -4  -7  10   12.76    1.32
   3   7 -10   69.42    2.31
  -3  -7  10   70.44    2.40
   2   7 -10    3.78    0.65
   2   7 -10    2.75    0.43
  -2  -7  10    3.21    0.63
  -2  -7  10    5.04    0.78
   1   7 -10    0.43    0.37
   1   7 -10   -0.02    0.44
  -1  -7  10    1.35    0.46
  -1  -7  10   -0.45    0.49
   0   7 -10   16.60    1.01
   0   7 -10   14.83    0.91
   0  -7  10   15.76    1.10
  -1   7 -10   62.88    2.37
  -1   7 -10   69.71    2.08
   1  -7  10   68.96    2.41
  -2   7 -10   27.49    1.07
  -2   7 -10   28.76    1.69
   2  -7  10   28.42    1.33
  -3   7 -10    1.04    0.35
  -3   7 -10    1.19    1.02
   3  -7  10    0.78    0.51
  -4   7 -10    4.72    1.77
  -4   7 -10    5.41    0.70
   4  -7  10    4.18    0.62
  -5   7 -10   15.97    1.33
  -5   7 -10   17.87    2.13
   5  -7  10   21.69    1.26
   6  -7  10   19.85    1.32
  -7   7 -10    5.46    2.05
   7  -7  10    4.34    0.78
   5   6 -10    4.90    0.74
  -5  -6  10    6.64    1.12
   4   6 -10   18.48    1.21
   4   6 -10   13.71    0.92
  -4  -6  10   15.85    1.17
   3   6 -10   14.67    1.09
   3   6 -10   15.22    0.87
  -3  -6  10   13.90    0.91
  -3  -6  10   13.97    1.08
   2   6 -10    0.66    0.33
  -2  -6  10    0.86    0.43
  -2  -6  10    0.54    0.47
   1   6 -10    0.78    0.49
   1   6 -10    0.41    0.32
  -1  -6  10    0.17    0.45
  -1  -6  10    0.75    0.47
   0   6 -10   11.51    0.90
   0  -6  10    9.33    0.89
   0  -6  10   10.59    0.92
  -1   6 -10   33.65    1.61
   1  -6  10   36.72    1.41
  -2   6 -10    8.93    1.31
  -2   6 -10   11.31    0.73
   2  -6  10   10.64    0.90
  -3   6 -10    0.30    0.36
  -3   6 -10    1.50    0.98
   3  -6  10    0.11    0.43
  -4   6 -10    5.62    0.76
   4  -6  10    8.43    0.96
  -5   6 -10    7.76    0.83
   5  -6  10   10.47    1.04
  -6   6 -10    5.41    1.59
   6  -6  10    7.88    1.12
   7  -6  10   11.44    1.30
   6   5 -10    9.18    1.32
   5   5 -10   13.29    1.20
   4   5 -10    0.58    0.33
   4   5 -10    0.60    0.56
  -4  -5  10    0.40    0.44
   3   5 -10    0.23    0.31
   3   5 -10    0.36    0.53
  -3  -5  10   -0.52    0.39
  -3  -5  10    0.07    0.44
   2   5 -10    6.34    0.61
   2   5 -10    6.78    0.98
  -2  -5  10    5.55    0.79
  -2  -5  10    6.40    0.75
   1   5 -10    3.32    0.52
  -1  -5  10    2.57    0.44
  -1  -5  10    3.89    0.52
   0  -5  10    0.19    0.37
   0  -5  10    0.00    0.44
  -1   5 -10   -0.51    0.79
   1  -5  10    0.05    0.37
   1  -5  10   -0.34    0.66
  -2   5 -10    1.58    0.98
  -2   5 -10    0.86    0.36
   2  -5  10    0.76    0.38
  -3   5 -10    6.22    0.69
  -3   5 -10    4.81    1.15
   3  -5  10    5.98    0.78
  -4   5 -10   -0.47    0.39
  -4   5 -10    0.24    1.50
   4  -5  10    0.54    0.45
  -5   5 -10    0.15    0.47
  -5   5 -10    0.58    1.31
   5  -5  10    1.20    0.50
  -6   5 -10    1.92    1.47
   6  -5  10    1.52    0.57
  -7   5 -10    6.71    1.76
   7  -5  10    7.81    1.21
   6   4 -10   13.11    1.29
   5   4 -10    9.85    1.14
   4   4 -10   17.48    0.83
   4   4 -10   19.02    1.22
  -4  -4  10   19.20    0.91
  -4  -4  10   17.34    0.86
   3   4 -10   19.84    1.21
   3   4 -10   19.23    0.81
  -3  -4  10   19.47    0.92
  -3  -4  10   18.67    0.89
  -2  -4  10    4.28    0.63
  -1  -4  10    8.50    0.77
  -1  -4  10    7.87    0.68
   0  -4  10   36.51    1.28
   0  -4  10   36.18    1.37
   1  -4  10   38.08    1.60
   1  -4  10   35.69    1.30
  -2   4 -10    4.66    0.67
  -2   4 -10    3.17    0.91
   2  -4  10    5.62    0.69
  -3   4 -10    0.37    0.42
  -3   4 -10    0.84    0.91
   3  -4  10    0.55    0.38
  -4   4 -10    7.34    1.50
   4  -4  10    6.46    0.94
  -5   4 -10   20.83    1.95
   5  -4  10   22.97    1.20
  -6   4 -10    2.60    1.33
  -7   4 -10    3.06    1.62
   7   3 -10    0.86    0.80
   6   3 -10    1.00    0.63
   5   3 -10   15.86    1.24
   4   3 -10   48.10    1.87
  -4  -3  10   47.08    1.51
   3   3 -10   20.84    1.21
  -3  -3  10   17.80    0.89
  -2  -3  10    3.06    0.46
  -1  -3  10    4.69    0.70
  -1  -3  10    4.82    0.54
   0  -3  10   32.45    1.12
   0  -3  10   31.19    1.27
  -1   3 -10   92.68    2.83
  -1   3 -10   96.89    3.07
  -1   3 -10  100.15    2.95
   1  -3  10   99.08    2.73
  -2   3 -10    0.85    0.74
  -2   3 -10    0.99    0.36
  -2   3 -10    0.69    0.51
   2  -3  10    0.14    0.31
  -3   3 -10   -0.09    0.53
  -3   3 -10   -0.07    0.83
   3  -3  10    0.11    0.37
  -4   3 -10   39.50    2.04
  -4   3 -10   40.58    1.67
   4  -3  10   38.04    1.96
  -5   3 -10   60.23    2.61
  -6   3 -10   10.72    1.76
  -7   3 -10    2.45    1.59
   7   2 -10    3.54    0.79
   6   2 -10    4.42    0.75
   5   2 -10    3.35    0.70
   4   2 -10   42.74    1.74
  -4  -2  10   40.05    1.35
  -3  -2  10   -0.57    0.35
   2   2 -10   12.24    0.82
  -2  -2  10   11.11    0.76
   1   2 -10    6.75    0.81
  -1  -2  10    5.99    0.74
   0   2 -10   79.17    2.39
   0   2 -10   78.34    2.36
   0  -2  10   69.77    2.29
  -1   2 -10   33.65    1.59
  -1   2 -10   34.51    1.45
   1  -2  10   34.96    1.16
  -2   2 -10    0.09    0.60
  -2   2 -10    0.21    0.82
   2  -2  10    0.27    0.31
  -3   2 -10    0.67    0.61
  -4   2 -10   29.66    1.52
  -4   2 -10   26.39    1.85
  -5   2 -10   54.68    2.13
  -5   2 -10   52.64    2.58
  -6   2 -10    5.71    0.98
  -6   2 -10    6.07    1.94
   7   1 -10   26.97    1.65
   6   1 -10   22.93    1.59
   5   1 -10    1.68    0.66
   4   1 -10    6.29    0.68
   4   1 -10    6.80    0.77
  -4  -1  10    5.41    0.70
   3   1 -10    5.35    0.79
  -3  -1  10    3.47    0.47
   2   1 -10   52.62    1.74
  -2  -1  10   50.69    1.69
   1   1 -10    2.70    0.53
  -1  -1  10    1.32    0.42
  -1   1 -10    1.66    0.55
   1  -1  10    1.38    0.30
   1  -1  10    1.99    0.33
  -2   1 -10   20.09    1.23
   2  -1  10   19.69    0.96
  -3   1 -10    4.73    0.74
   3  -1  10    4.10    0.52
  -4   1 -10    6.21    1.35
  -5   1 -10   14.85    2.12
  -5   1 -10   18.08    1.48
  -6   1 -10    0.67    0.84
  -6   1 -10   -1.75    1.37
   7   0 -10   42.46    2.00
   6   0 -10   38.54    1.88
   5   0 -10   -0.38    0.59
   5   0 -10    0.89    0.40
  -5   0  10   -0.29    0.42
   4   0 -10   -0.18    0.43
  -4   0  10   -0.27    0.40
   3   0 -10   41.10    1.48
  -3   0  10   39.83    1.51
   2   0 -10   58.31    1.87
  -2   0  10   54.07    1.89
   0   0 -10    0.62    0.57
  -1   0 -10    8.16    1.04
   1   0  10    7.10    0.68
  -2   0 -10   21.19    1.32
   2   0  10   20.68    1.14
  -3   0 -10   20.15    1.35
   3   0  10   15.89    1.08
  -4   0 -10    1.74    0.78
  -5   0 -10    1.79    0.82
   7  -1 -10   23.92    2.22
   6  -1 -10   17.51    1.55
   5  -1 -10    0.70    0.64
   5  -1 -10    0.54    0.44
  -5   1  10   -0.26    0.62
   4  -1 -10    3.12    0.54
  -4   1  10    2.53    0.49
   3  -1 -10   38.23    1.44
  -3   1  10   34.58    1.36
   2  -1 -10   33.19    1.41
   1  -1 -10   12.21    1.05
   0  -1 -10    4.99    0.69
  -1  -1 -10   17.91    1.27
   1   1  10   16.11    0.92
  -2  -1 -10   26.43    1.51
   2   1  10   22.81    1.19
  -3  -1 -10   22.51    1.51
  -4  -1 -10   13.28    1.52
   7  -2 -10    7.64    1.05
   6  -2 -10    3.14    0.52
   6  -2 -10    1.15    0.75
   5  -2 -10    1.20    0.54
   3  -2 -10    2.32    0.58
   2  -2 -10   14.47    1.16
   1  -2 -10    6.85    0.79
   0  -2 -10    3.28    0.74
  -1  -2 -10    4.28    0.81
  -2  -2 -10    7.94    1.28
  -3  -2 -10    7.31    1.06
   6  -3 -10    0.43    0.72
   6  -3 -10    1.48    0.80
   5  -3 -10    2.12    0.63
   4  -3 -10    2.58    0.66
   3  -3 -10    2.96    0.72
   2  -3 -10    1.02    0.65
   1  -3 -10    0.89    0.80
   0  -3 -10    1.45    0.75
  -1  -3 -10    1.46    0.88
  -2  -3 -10    0.49    0.89
   6  -4 -10    3.59    0.95
   5  -4 -10    2.39    0.73
   4  -4 -10   13.16    1.24
   3  -4 -10   20.66    1.43
   2  -4 -10    5.67    0.85
   1  -4 -10    1.97    0.88
   0  -4 -10    1.84    0.89
  -1  -4 -10   16.09    1.83
   4  -5 -10   14.62    1.35
   3  -5 -10   13.09    1.42
   2  -5 -10   10.60    1.45
   1  -5 -10   -0.23    1.03
   1 -11  11    3.77    0.98
   2 -11  11    0.55    0.72
   3 -11  11   -0.38    0.82
   4 -11  11   -0.13    0.84
  -1 -10  11    4.87    0.91
   0 -10  11    6.33    0.92
   1 -10  11    1.44    0.78
   2 -10  11    2.37    0.74
   3 -10  11   13.09    1.45
  -4  10 -11    9.73    2.17
   4 -10  11    7.72    0.97
  -5  10 -11    2.75    1.50
   5 -10  11    2.06    0.77
   2   9 -11    3.12    0.65
  -2  -9  11    4.81    0.84
   1   9 -11    5.41    0.67
  -1  -9  11    5.57    0.82
   0   9 -11    2.17    0.77
   0  -9  11    0.66    0.66
  -1   9 -11    0.00    0.47
   1  -9  11   -0.58    0.58
  -2   9 -11   11.46    0.89
   2  -9  11   11.05    1.31
  -3   9 -11   24.00    2.01
   3  -9  11   22.05    1.55
  -4   9 -11    5.51    1.45
   4  -9  11    3.21    0.72
  -5   9 -11   -0.58    1.42
   5  -9  11   -0.45    0.64
  -6   9 -11    5.94    1.72
   6  -9  11    5.57    0.90
   3   8 -11    1.03    0.63
  -3  -8  11    0.05    0.70
   2   8 -11    2.38    0.62
  -2  -8  11    2.38    0.71
   1   8 -11   -0.55    0.58
  -1  -8  11   -0.25    0.59
   0   8 -11    9.92    0.97
   0  -8  11    7.35    1.13
  -1   8 -11    2.81    0.55
   1  -8  11    2.88    0.62
  -2   8 -11    9.67    0.83
  -2   8 -11   12.06    0.97
  -2   8 -11   11.86    1.54
   2  -8  11   12.52    1.21
  -3   8 -11   13.02    2.63
   3  -8  11   12.73    1.20
  -4   8 -11    2.88    1.32
   4  -8  11    1.27    0.67
  -5   8 -11    2.24    1.77
   5  -8  11    2.49    0.77
  -6   8 -11    5.71    2.04
   6  -8  11    7.98    1.32
   4   7 -11   17.83    1.34
  -4  -7  11   15.51    1.80
   3   7 -11    3.12    0.68
  -3  -7  11    2.36    0.64
   2   7 -11    3.49    0.67
   2   7 -11    4.98    0.82
  -2  -7  11    2.76    0.63
  -2  -7  11    5.18    0.78
   1   7 -11    3.03    0.46
   1   7 -11    4.34    0.81
  -1  -7  11    2.92    0.60
   0   7 -11   80.88    2.49
   0  -7  11   77.65    2.52
  -1   7 -11   14.10    1.07
  -1   7 -11   14.35    1.35
   1  -7  11   12.82    1.12
  -2   7 -11    7.90    0.79
  -2   7 -11    6.37    1.41
   2  -7  11    6.40    1.07
  -3   7 -11    1.82    1.08
   3  -7  11    1.69    0.57
  -4   7 -11   16.00    2.04
   4  -7  11   24.34    1.36
  -5   7 -11   14.32    2.18
   5  -7  11   16.80    1.29
  -6   7 -11    4.92    1.89
   6  -7  11    2.65    0.72
   5   6 -11   42.96    1.94
   4   6 -11   25.48    1.46
  -4  -6  11   26.78    1.38
   3   6 -11    0.48    0.55
   3   6 -11    1.52    0.58
  -3  -6  11    0.40    0.63
   2   6 -11    0.28    0.33
   2   6 -11    1.07    0.60
  -2  -6  11   -0.27    0.46
  -2  -6  11    0.63    0.51
   1   6 -11   26.82    1.53
  -1  -6  11   23.23    1.20
   0   6 -11   94.53    2.75
   0  -6  11   84.28    2.68
  -1   6 -11   16.89    1.35
   1  -6  11   16.53    1.07
  -2   6 -11    1.13    0.96
  -2   6 -11    1.05    0.41
   2  -6  11    0.78    0.46
  -3   6 -11    2.57    0.45
  -3   6 -11    2.96    1.37
   3  -6  11    1.77    0.54
  -4   6 -11   37.95    1.48
   4  -6  11   41.97    1.63
   5  -6  11   23.47    1.35
  -6   6 -11    1.83    1.60
   6  -6  11    0.27    0.62
   5   5 -11   15.84    1.33
   4   5 -11   15.88    1.25
  -4  -5  11   15.80    0.99
   3   5 -11    2.54    0.63
   3   5 -11    3.97    0.57
  -3  -5  11    3.13    0.47
  -3  -5  11    3.43    0.53
   2   5 -11    4.41    0.69
  -2  -5  11    2.60    0.46
  -2  -5  11    3.18    0.53
   1   5 -11   26.28    1.31
  -1  -5  11   23.36    1.09
  -1  -5  11   21.99    1.14
   0  -5  11   52.54    1.75
  -1   5 -11    4.17    1.04
   1  -5  11    3.82    0.49
  -2   5 -11    1.08    0.98
  -2   5 -11    0.76    0.41
   2  -5  11   -0.19    0.40
   3  -5  11   10.21    0.93
   4  -5  11   36.78    1.52
  -5   5 -11   10.61    2.07
   5  -5  11   12.86    1.30
  -6   5 -11    4.72    1.56
   6   4 -11   -0.31    0.66
   5   4 -11    3.16    0.71
   4   4 -11   -0.42    0.61
   3   4 -11   15.12    1.25
  -3  -4  11   14.58    0.90
   2   4 -11    5.34    0.68
  -2  -4  11    3.81    0.64
  -2  -4  11    4.13    0.54
  -1  -4  11    4.71    0.61
  -1  -4  11    4.24    0.66
   0  -4  11    5.58    0.70
  -1   4 -11    0.85    0.86
   1  -4  11    2.09    0.40
  -2   4 -11    7.70    1.64
   2  -4  11    6.70    0.78
  -3   4 -11    2.77    1.01
   3  -4  11    2.22    0.46
  -4   4 -11    3.59    1.17
   4  -4  11    4.31    0.58
  -5   4 -11    2.22    1.29
   5  -4  11    0.83    0.52
  -6   4 -11    3.37    1.50
   6  -4  11    2.87    0.67
   6   3 -11    3.05    0.83
   5   3 -11   -0.02    0.66
   4   3 -11    9.60    1.22
   3   3 -11   22.96    1.34
  -3  -3  11   20.27    1.22
  -2  -3  11   11.81    0.87
  -1  -3  11   20.53    1.30
   0  -3  11    5.12    0.63
  -1   3 -11    1.25    0.68
  -1   3 -11    1.52    0.65
   1  -3  11    1.36    0.35
  -2   3 -11    1.52    0.60
  -2   3 -11    1.81    0.79
   2  -3  11    1.30    0.39
  -3   3 -11    5.32    0.73
  -3   3 -11    5.32    1.07
   3  -3  11    4.70    0.79
  -4   3 -11    3.41    0.73
  -4   3 -11    3.18    1.10
  -5   3 -11    0.29    1.11
   5  -3  11    0.40    0.52
  -6   3 -11    3.37    1.34
   6   2 -11   10.26    1.37
   5   2 -11    6.31    0.84
   4   2 -11   13.65    1.27
  -4  -2  11    9.76    0.80
  -3  -2  11    8.03    0.81
   2   2 -11   13.55    0.94
  -2  -2  11   11.97    0.87
   1   2 -11   39.62    1.74
   0   2 -11   14.29    1.11
   0   2 -11   15.77    1.19
  -1   2 -11    2.70    0.65
  -1   2 -11    3.65    0.85
   1  -2  11    2.51    0.37
  -2   2 -11    4.90    0.99
  -2   2 -11    5.50    0.81
   2  -2  11    4.24    0.69
  -3   2 -11   32.19    1.60
  -3   2 -11   31.16    1.86
   3  -2  11   28.85    1.23
  -4   2 -11   24.50    1.56
  -4   2 -11   22.77    1.97
  -5   2 -11    0.81    0.80
  -5   2 -11    3.63    1.28
   6   1 -11    2.89    0.87
   5   1 -11    5.20    0.82
   4   1 -11    0.77    0.43
   4   1 -11    0.99    0.63
  -4  -1  11   -0.85    0.44
   3   1 -11   -0.06    0.48
  -3  -1  11    0.49    0.46
   1   1 -11   46.95    1.74
   0   1 -11   14.02    1.13
  -1   1 -11    0.00    0.60
   1  -1  11    0.13    0.30
   1  -1  11    0.67    0.34
  -2   1 -11    2.31    0.72
   2  -1  11    1.85    0.46
   2  -1  11    3.07    0.41
  -3   1 -11   44.90    1.91
  -4   1 -11   15.69    2.16
  -4   1 -11   21.71    1.58
  -5   1 -11    0.28    1.41
  -5   1 -11    2.96    1.26
   6   0 -11    1.16    0.89
   5   0 -11    0.02    0.72
   5   0 -11    0.55    0.45
  -4   0  11   11.01    0.92
   3   0 -11   11.88    1.64
   2   0 -11    3.94    0.63
   1   0 -11   23.09    1.29
   0   0 -11    0.00    0.62
  -1   0 -11   16.77    1.29
   1   0  11   15.52    0.77
  -2   0 -11    1.42    0.79
  -3   0 -11   15.65    1.45
  -4   0 -11    4.27    0.93
   6  -1 -11   -1.06    0.87
   5  -1 -11    2.66    0.82
   5  -1 -11    2.96    0.57
   4  -1 -11   28.57    1.33
   3  -1 -11   38.43    1.58
   2  -1 -11   -0.08    0.58
   1  -1 -11    1.01    0.66
   0  -1 -11    5.35    0.81
  -1  -1 -11   31.28    1.62
  -2  -1 -11    3.27    0.88
  -3  -1 -11    3.75    0.99
   6  -2 -11    1.93    1.44
   5  -2 -11    8.05    1.05
   4  -2 -11   33.54    1.50
   3  -2 -11   26.05    1.37
   2  -2 -11    1.93    0.70
   1  -2 -11    0.48    0.70
   0  -2 -11   20.40    1.43
  -1  -2 -11   24.69    1.62
  -2  -2 -11   11.22    1.58
   5  -3 -11    1.12    0.68
   4  -3 -11   11.16    1.67
   3  -3 -11    9.53    1.27
   2  -3 -11    2.47    0.80
   1  -3 -11    0.55    0.82
   0  -3 -11    5.57    0.97
   3  -4 -11   -1.54    0.81
   2  -4 -11   -0.48    0.83
   0 -10  12    9.26    1.49
   1 -10  12   -0.08    0.78
   2 -10  12    1.61    0.77
   3 -10  12    0.48    0.77
  -4  10 -12    7.30    1.70
   4 -10  12    3.64    0.85
   1   9 -12   24.09    1.43
  -1  -9  12   21.24    1.65
   0   9 -12   11.14    1.32
   0  -9  12   10.93    1.40
  -1   9 -12    1.87    0.59
   1  -9  12    0.68    0.69
   2  -9  12   -0.03    0.68
   3  -9  12    5.59    0.83
  -4   9 -12    9.56    2.03
   4  -9  12    5.94    0.85
  -5   9 -12    4.26    1.51
   3   8 -12   -0.89    0.67
  -3  -8  12    0.43    0.74
   2   8 -12    4.29    0.72
  -2  -8  12    3.49    0.77
   1   8 -12    7.36    1.13
  -1  -8  12    4.77    0.75
   0   8 -12    4.90    0.71
   0  -8  12    4.45    0.70
   1  -8  12    2.30    0.64
  -2   8 -12   13.55    1.49
  -2   8 -12   12.10    1.63
   2  -8  12    9.65    1.27
  -3   8 -12    5.49    1.33
   3  -8  12    4.50    0.72
  -4   8 -12    4.62    1.79
   4  -8  12    2.39    0.70
  -5   8 -12    5.46    1.88
   5  -8  12    3.42    0.75
   3   7 -12    0.73    0.66
  -3  -7  12    0.19    0.63
   2   7 -12   -0.05    0.63
  -2  -7  12   -0.69    0.69
   1   7 -12    0.37    0.61
  -1  -7  12   -0.93    0.52
   0   7 -12    0.72    0.63
   0  -7  12   -0.34    0.53
  -1   7 -12   13.26    1.94
   1  -7  12    7.55    1.03
  -2   7 -12    1.15    0.45
   2  -7  12    1.38    0.59
  -3   7 -12    0.94    1.48
   3  -7  12    0.20    0.55
  -4   7 -12    0.73    1.66
   4  -7  12    0.17    0.58
   5  -7  12   12.36    1.31
   4   6 -12    0.73    0.65
   3   6 -12    0.02    0.66
  -3  -6  12   -0.32    0.55
   2   6 -12   14.10    1.31
  -2  -6  12   11.20    1.04
   1   6 -12   22.32    1.37
  -1  -6  12   19.98    1.17
   0   6 -12    1.25    0.63
   0  -6  12    0.08    0.45
   1  -6  12    4.57    0.60
  -2   6 -12    1.07    0.99
   2  -6  12    0.49    0.52
   3  -6  12   23.28    1.30
  -4   6 -12    3.20    1.67
   4  -6  12    2.28    0.60
  -5   6 -12    3.96    1.74
   5  -6  12    4.33    0.69
   5   5 -12   14.45    1.45
   4   5 -12    0.94    0.72
   3   5 -12    0.84    0.67
   2   5 -12   37.90    1.71
  -2  -5  12   33.06    1.39
   1   5 -12   56.35    2.02
  -1  -5  12   48.30    1.71
   0  -5  12    1.22    0.43
   1  -5  12    6.15    0.89
  -2   5 -12    7.94    1.47
   2  -5  12   10.42    0.96
   3  -5  12   46.95    1.78
  -4   5 -12    5.05    1.42
   4  -5  12    8.97    1.08
  -5   5 -12    1.58    1.94
   5  -5  12    1.19    0.61
   5   4 -12    3.14    0.79
   4   4 -12    3.74    0.81
   3   4 -12   -0.50    0.62
   2   4 -12   44.77    1.90
   0  -4  12    0.93    0.38
  -1   4 -12    0.58    0.91
   1  -4  12    0.42    0.40
  -2   4 -12   19.17    2.11
   2  -4  12   22.59    1.11
  -3   4 -12   34.00    2.08
   3  -4  12   37.97    1.75
  -4   4 -12   12.46    1.89
   4  -4  12   13.39    1.12
  -5   4 -12    2.92    1.37
   5  -4  12   -0.16    0.57
   5   3 -12    0.25    0.82
   4   3 -12    8.79    1.38
   3   3 -12    0.77    0.66
  -3  -3  12   -0.79    0.48
  -1   3 -12    2.24    0.66
  -1   3 -12    2.37    0.90
   1  -3  12    1.19    0.38
  -2   3 -12    8.90    1.16
  -2   3 -12    9.61    1.32
   2  -3  12    8.45    0.84
  -3   3 -12   17.04    1.34
  -3   3 -12   15.48    1.58
   3  -3  12   12.87    1.01
   4  -3  12    1.79    0.57
  -5   3 -12    2.21    1.23
   5  -3  12    1.24    0.59
   5   2 -12    6.81    0.96
   4   2 -12   29.20    1.68
   2   2 -12    0.62    0.52
   1   2 -12    2.20    0.59
   0   2 -12    7.90    1.06
   0   2 -12    7.13    1.11
  -1   2 -12   10.35    1.32
  -1   2 -12    9.22    1.17
   1  -2  12    7.49    0.72
  -2   2 -12    0.43    0.68
  -2   2 -12    0.70    1.00
   2  -2  12    0.70    0.47
  -3   2 -12    2.65    0.82
  -3   2 -12   -0.55    1.08
   3  -2  12    0.38    0.48
  -4   2 -12    0.95    0.91
  -4   2 -12    0.13    1.68
   4  -2  12   -0.21    0.55
   5   1 -12    6.27    1.02
   4   1 -12   22.47    1.66
   3   1 -12   12.23    1.04
   2   1 -12    7.30    1.05
   1   1 -12    7.16    1.10
   0   1 -12   10.42    1.18
  -1   1 -12   15.51    1.33
  -2   1 -12    9.50    1.12
  -2   1 -12    6.22    1.32
   2  -1  12    8.61    0.86
  -3   1 -12    4.83    1.44
   3  -1  12    4.25    0.97
   5   0 -12    0.97    0.89
   4   0 -12    6.36    1.04
   3   0 -12   10.01    1.10
   2   0 -12    8.53    1.11
   1   0 -12    3.71    0.74
   0   0 -12    3.42    0.72
  -1   0 -12   17.94    1.41
  -2   0 -12   16.27    1.51
   4  -1 -12    1.40    0.64
   3  -1 -12    4.10    0.72
   2  -1 -12    2.15    0.72
   1  -1 -12    0.20    0.67
   0  -1 -12   -0.42    0.83
  -1  -1 -12    4.45    0.90
   4  -2 -12    4.77    0.80
   3  -2 -12   -0.28    0.65
   2  -2 -12    0.32    0.76
   1  -2 -12   13.39    1.42
   0  -2 -12    5.88    0.99
   0  -9  13    2.75    0.79
   1  -9  13    0.19    0.70
   2  -9  13    5.74    0.92
   1   8 -13    5.48    0.81
  -1  -8  13    4.98    0.80
   0   8 -13   -1.16    0.68
   0  -8  13   -1.02    0.64
  -1   8 -13    1.22    0.71
   1  -8  13   -0.03    0.62
  -2   8 -13   21.44    1.42
   2  -8  13   15.66    1.45
  -3   8 -13    9.25    1.87
   3  -8  13    5.20    0.81
   2   7 -13   20.24    1.52
   1   7 -13    1.58    0.77
  -1  -7  13    0.73    0.75
   0   7 -13    0.52    0.71
   0  -7  13   -0.20    0.87
  -1   7 -13    5.05    0.79
   1  -7  13    5.39    0.71
  -2   7 -13   10.86    1.61
   2  -7  13   13.79    1.30
  -3   7 -13    4.48    1.26
  -4   7 -13    6.46    1.87
   4  -7  13    2.92    0.74
   3   6 -13    1.73    0.77
   2   6 -13    1.52    0.73
   1   6 -13    1.37    0.73
  -1  -6  13   -0.03    0.62
   0   6 -13    1.92    0.73
   0  -6  13    0.28    0.51
   1  -6  13    2.77    0.60
  -2   6 -13    0.76    1.08
   2  -6  13    1.69    0.58
  -3   6 -13    2.19    1.62
   3  -6  13    2.35    0.64
  -4   6 -13    4.63    1.83
   4  -6  13    3.48    0.72
   3   5 -13    3.06    0.81
   2   5 -13    3.64    0.79
   1   5 -13   -0.14    0.71
   1  -5  13    1.58    0.55
  -2   5 -13    3.71    1.19
   2  -5  13    6.50    1.01
  -3   5 -13    1.92    1.39
   3  -5  13    0.38    0.57
   4  -5  13   10.09    1.24
   4   4 -13    5.05    0.93
   3   4 -13   28.86    1.75
   2   4 -13   18.75    1.50
  -1   4 -13    4.07    1.13
   1  -4  13    6.79    0.96
   2  -4  13   25.32    1.29
  -3   4 -13    3.00    1.30
  -4   4 -13    2.28    1.62
   4  -4  13    1.80    0.63
   4   3 -13    4.08    1.14
   3   3 -13   36.84    1.99
  -1   3 -13   24.62    1.64
  -2   3 -13   24.95    1.76
  -3   3 -13    0.93    1.07
   4   2 -13    2.90    0.91
   1   2 -13    2.57    0.94
   0   2 -13    0.35    0.65
   0   2 -13    0.48    1.20
  -1   2 -13   13.31    2.62
  -1   2 -13   18.56    1.47
  -2   2 -13   13.52    1.73
  -2   2 -13   14.27    1.49
   3   1 -13    3.43    0.66
   2   1 -13    0.43    0.65
   1   1 -13   15.45    1.35
   0   1 -13    1.40    0.76
   0   1 -13   -0.18    1.02
  -1   1 -13    1.98    0.85
  -1   1 -13   -0.27    1.76
  -2   1 -13    0.01    1.31
   3   0 -13    3.06    0.73
   2   0 -13    6.94    0.94
   1   0 -13   15.71    1.40
   0   0 -13    3.06    0.80
  -1   7 -14   25.44    1.72
   1   6 -14    1.06    0.84
   0   6 -14    5.51    0.89
   1   5 -14    0.41    0.83
   2   4 -14    0.44    0.96
   1   2 -14    7.44    1.20
   0   0   0    0.00    0.00
;
_shelx_hkl_checksum              32989
_shelx_res_file
;
    mxm05.res created by SHELXL-2014/7
TITL mxm05 in P-1
CELL 0.71073   8.0315   9.7147  10.7577 111.205  90.226 109.381
ZERR    2.00   0.0011   0.0014   0.0015   0.004   0.005   0.004
LATT 1
SFAC C  H  N  Br Sn
UNIT 26  24  4  4  2
OMIT -3 50
L.S. 4
ACTA
BOND $H
eqiv $1 x+1, y, z
htab N2 Br1_$1
htab N2 Br2_$1
FMAP 2
PLAN 5
size 0.06 0.06 0.05
TEMP -73.150
WGHT    0.016900    1.892700
EXTI    0.003472
FVAR       0.15388
SN1   5    0.485678    0.621913    0.838839    11.00000    0.02065    0.02166 =
         0.02717    0.00613    0.00258    0.00595
BR1   4    0.260907    0.385822    0.887575    11.00000    0.02613    0.04442 =
         0.04721    0.02987    0.00491    0.00800
BR2   4    0.287712    0.532822    0.608750    11.00000    0.02822    0.04845 =
         0.03054    0.01734    0.00397    0.01055
N1    3    0.625358    0.463841    0.738509    11.00000    0.01626    0.02943 =
         0.03321    0.00606   -0.00148    0.00863
AFIX  43
H1    2    0.559217    0.366982    0.684713    11.00000   -1.20000
AFIX   0
N2    3    0.877706    0.393183    0.720334    11.00000    0.01769    0.03244 =
         0.04996    0.01512    0.00420    0.00913
AFIX  43
H2    2    0.994974    0.428748    0.730218    11.00000   -1.20000
AFIX   0
C1    1    0.799017    0.499040    0.750482    11.00000    0.02946    0.02969 =
         0.02160    0.00925    0.00481    0.01028
C2    1    0.922306    0.667244    0.799587    11.00000    0.01832    0.02645 =
         0.02525    0.00355    0.00829    0.00560
C3    1    0.889622    0.765416    0.743921    11.00000    0.02793    0.03689 =
         0.02582    0.01138    0.00326    0.00800
AFIX  43
H3    2    0.788477    0.726743    0.678132    11.00000   -1.20000
AFIX   0
C4    1    1.004905    0.919504    0.784704    11.00000    0.04467    0.03116 =
         0.02986    0.01417    0.00670    0.01276
AFIX  43
H4    2    0.984372    0.986975    0.745739    11.00000   -1.20000
AFIX   0
C5    1    1.150522    0.976724    0.882115    11.00000    0.03089    0.02516 =
         0.03518    0.00748    0.00337    0.00232
AFIX  43
H5    2    1.229792    1.083175    0.909618    11.00000   -1.20000
AFIX   0
C6    1    1.180774    0.880221    0.939092    11.00000    0.02324    0.03209 =
         0.03365    0.00478   -0.00294    0.00393
AFIX  43
H6    2    1.280114    0.920649    1.006852    11.00000   -1.20000
AFIX   0
C7    1    1.067978    0.724792    0.898732    11.00000    0.02456    0.02989 =
         0.03844    0.01440    0.00867    0.01413
AFIX  43
H7    2    1.089306    0.657864    0.937994    11.00000   -1.20000
AFIX   0
C8    1    0.786900    0.224521    0.672669    11.00000    0.02801    0.02564 =
         0.03426    0.01035   -0.00247    0.01086
C9    1    0.832346    0.132032    0.558645    11.00000    0.03028    0.03860 =
         0.04570    0.01672    0.00652    0.01306
AFIX  43
H9    2    0.919269    0.179557    0.512435    11.00000   -1.20000
AFIX   0
C10   1    0.751885   -0.030506    0.510630    11.00000    0.03979    0.03036 =
         0.04328    0.00375    0.00391    0.01737
AFIX  43
H10   2    0.785848   -0.094242    0.432437    11.00000   -1.20000
AFIX   0
C11   1    0.623896   -0.100769    0.574331    11.00000    0.03537    0.02595 =
         0.04266    0.01066   -0.01120    0.00601
AFIX  43
H11   2    0.568935   -0.212628    0.540581    11.00000   -1.20000
AFIX   0
C12   1    0.575264   -0.007637    0.688174    11.00000    0.03659    0.04581 =
         0.04940    0.02957    0.00444    0.01125
AFIX  43
H12   2    0.484674   -0.055591    0.731797    11.00000   -1.20000
AFIX   0
C13   1    0.658297    0.156163    0.739353    11.00000    0.04433    0.03931 =
         0.03704    0.01510    0.00849    0.02028
AFIX  43
H13   2    0.627133    0.220172    0.818963    11.00000   -1.20000
AFIX   0
HKLF 4
REM  mxm05 in P-1
REM R1 =  0.0248 for    2278 Fo > 4sig(Fo)  and  0.0313 for all    2558 data
REM    164 parameters refined using      0 restraints
END
WGHT      0.0164      1.8354
REM Highest difference peak  0.643,  deepest hole -0.565,  1-sigma level  0.097
Q1    1   0.5647  0.5935  0.8372  11.00000  0.05    0.64
Q2    1   0.9195  0.4956  0.7870  11.00000  0.05    0.61
Q3    1   0.7354  0.3746  0.7353  11.00000  0.05    0.55
Q4    1   0.6742  0.2068  0.6800  11.00000  0.05    0.54
Q5    1   0.5641  0.3631  0.7347  11.00000  0.05    0.45
;
_shelx_res_checksum              14710
loop_
_space_group_symop_operation_xyz
'x, y, z'
'-x, -y, -z'
loop_
_atom_site_type_symbol
_atom_site_label
_atom_site_fract_x
_atom_site_fract_y
_atom_site_fract_z
_atom_site_U_iso_or_equiv
_atom_site_adp_type
_atom_site_calc_flag
_atom_site_occupancy
Sn Sn1 0.48568(3) 0.62191(3) 0.83884(3) 0.02458(11) Uani d 1
Br Br1 0.26091(5) 0.38582(5) 0.88757(5) 0.03684(14) Uani d 1
Br Br2 0.28771(6) 0.53282(5) 0.60875(4) 0.03595(13) Uani d 1
N N1 0.6254(4) 0.4638(4) 0.7385(3) 0.0280(8) Uani d 1
H H1 0.5592 0.3670 0.6847 0.034 Uiso calc 1
N N2 0.8777(4) 0.3932(4) 0.7203(4) 0.0335(8) Uani d 1
H H2 0.9950 0.4287 0.7302 0.040 Uiso calc 1
C C1 0.7990(5) 0.4990(5) 0.7505(4) 0.0272(9) Uani d 1
C C2 0.9223(5) 0.6672(5) 0.7996(4) 0.0259(9) Uani d 1
C C3 0.8896(6) 0.7654(5) 0.7439(4) 0.0314(9) Uani d 1
H H3 0.7885 0.7267 0.6781 0.038 Uiso calc 1
C C4 1.0049(6) 0.9195(5) 0.7847(4) 0.0347(10) Uani d 1
H H4 0.9844 0.9870 0.7457 0.042 Uiso calc 1
C C5 1.1505(6) 0.9767(5) 0.8821(4) 0.0337(10) Uani d 1
H H5 1.2298 1.0832 0.9096 0.040 Uiso calc 1
C C6 1.1808(5) 0.8802(5) 0.9391(4) 0.0337(10) Uani d 1
H H6 1.2801 0.9206 1.0069 0.040 Uiso calc 1
C C7 1.0680(5) 0.7248(5) 0.8987(4) 0.0294(9) Uani d 1
H H7 1.0893 0.6579 0.9380 0.035 Uiso calc 1
C C8 0.7869(5) 0.2245(5) 0.6727(4) 0.0293(9) Uani d 1
C C9 0.8323(6) 0.1320(5) 0.5586(5) 0.0378(11) Uani d 1
H H9 0.9193 0.1796 0.5124 0.045 Uiso calc 1
C C10 0.7519(6) -0.0305(5) 0.5106(5) 0.0396(11) Uani d 1
H H10 0.7858 -0.0942 0.4324 0.048 Uiso calc 1
C C11 0.6239(6) -0.1008(5) 0.5743(5) 0.0368(11) Uani d 1
H H11 0.5689 -0.2126 0.5406 0.044 Uiso calc 1
C C12 0.5753(6) -0.0076(6) 0.6882(5) 0.0415(11) Uani d 1
H H12 0.4847 -0.0556 0.7318 0.050 Uiso calc 1
C C13 0.6583(6) 0.1562(5) 0.7394(5) 0.0386(11) Uani d 1
H H13 0.6271 0.2202 0.8190 0.046 Uiso calc 1
loop_
_atom_site_aniso_label
_atom_site_aniso_U_11
_atom_site_aniso_U_22
_atom_site_aniso_U_33
_atom_site_aniso_U_12
_atom_site_aniso_U_13
_atom_site_aniso_U_23
Sn1 0.02065(15) 0.02166(15) 0.02717(17) 0.00595(11) 0.00258(11) 0.00613(12)
Br1 0.0261(2) 0.0444(3) 0.0472(3) 0.00800(19) 0.00491(19) 0.0299(2)
Br2 0.0282(2) 0.0485(3) 0.0305(3) 0.0105(2) 0.00397(18) 0.0173(2)
N1 0.0163(16) 0.0294(18) 0.033(2) 0.0086(14) -0.0015(14) 0.0061(15)
N2 0.0177(17) 0.0324(19) 0.050(2) 0.0091(15) 0.0042(15) 0.0151(17)
C1 0.029(2) 0.030(2) 0.022(2) 0.0103(17) 0.0048(17) 0.0093(17)
C2 0.0183(19) 0.026(2) 0.025(2) 0.0056(16) 0.0083(16) 0.0036(17)
C3 0.028(2) 0.037(2) 0.026(2) 0.0080(18) 0.0033(17) 0.0114(19)
C4 0.045(3) 0.031(2) 0.030(2) 0.013(2) 0.007(2) 0.0142(19)
C5 0.031(2) 0.025(2) 0.035(3) 0.0023(18) 0.0034(19) 0.0075(19)
C6 0.023(2) 0.032(2) 0.034(2) 0.0039(18) -0.0029(18) 0.0048(19)
C7 0.025(2) 0.030(2) 0.038(3) 0.0141(17) 0.0087(18) 0.0144(19)
C8 0.028(2) 0.026(2) 0.034(2) 0.0109(17) -0.0025(18) 0.0104(18)
C9 0.030(2) 0.039(2) 0.046(3) 0.013(2) 0.007(2) 0.017(2)
C10 0.040(3) 0.030(2) 0.043(3) 0.017(2) 0.004(2) 0.004(2)
C11 0.035(2) 0.026(2) 0.043(3) 0.0060(19) -0.011(2) 0.011(2)
C12 0.037(3) 0.046(3) 0.049(3) 0.011(2) 0.004(2) 0.030(2)
C13 0.044(3) 0.039(3) 0.037(3) 0.020(2) 0.008(2) 0.015(2)
loop_
_atom_type_symbol
_atom_type_description
_atom_type_scat_dispersion_real
_atom_type_scat_dispersion_imag
_atom_type_scat_source
C C 0.0033 0.0016 'International Tables Vol C Tables 4.2.6.8 and 6.1.1.4'
H H 0.0000 0.0000 'International Tables Vol C Tables 4.2.6.8 and 6.1.1.4'
N N 0.0061 0.0033 'International Tables Vol C Tables 4.2.6.8 and 6.1.1.4'
Br Br -0.2901 2.4595 'International Tables Vol C Tables 4.2.6.8 and 6.1.1.4'
Sn Sn -0.6537 1.4246 'International Tables Vol C Tables 4.2.6.8 and 6.1.1.4'
loop_
_geom_angle_atom_site_label_1
_geom_angle_atom_site_label_2
_geom_angle_atom_site_label_3
_geom_angle
N1 Sn1 Br2 89.80(9)
N1 Sn1 Br1 87.49(9)
Br2 Sn1 Br1 90.618(18)
C1 N1 Sn1 126.3(3)
C1 N1 H1 116.8
Sn1 N1 H1 116.8
C1 N2 C8 125.3(3)
C1 N2 H2 117.4
C8 N2 H2 117.4
N1 C1 N2 124.3(4)
N1 C1 C2 120.4(4)
N2 C1 C2 115.2(3)
C3 C2 C7 120.4(4)
C3 C2 C1 118.5(4)
C7 C2 C1 121.1(4)
C4 C3 C2 119.4(4)
C4 C3 H3 120.3
C2 C3 H3 120.3
C3 C4 C5 120.4(4)
C3 C4 H4 119.8
C5 C4 H4 119.8
C6 C5 C4 120.2(4)
C6 C5 H5 119.9
C4 C5 H5 119.9
C5 C6 C7 120.5(4)
C5 C6 H6 119.8
C7 C6 H6 119.8
C6 C7 C2 119.1(4)
C6 C7 H7 120.4
C2 C7 H7 120.4
C9 C8 C13 120.3(4)
C9 C8 N2 117.8(4)
C13 C8 N2 121.9(4)
C8 C9 C10 120.0(4)
C8 C9 H9 120.0
C10 C9 H9 120.0
C11 C10 C9 120.8(4)
C11 C10 H10 119.6
C9 C10 H10 119.6
C10 C11 C12 119.4(4)
C10 C11 H11 120.3
C12 C11 H11 120.3
C11 C12 C13 120.4(4)
C11 C12 H12 119.8
C13 C12 H12 119.8
C8 C13 C12 119.1(4)
C8 C13 H13 120.4
C12 C13 H13 120.4
loop_
_geom_bond_atom_site_label_1
_geom_bond_atom_site_label_2
_geom_bond_distance
Sn1 N1 2.176(3)
Sn1 Br2 2.6286(6)
Sn1 Br1 2.6313(6)
N1 C1 1.315(5)
N1 H1 0.8800
N2 C1 1.324(5)
N2 C8 1.441(5)
N2 H2 0.8800
C1 C2 1.492(5)
C2 C3 1.384(6)
C2 C7 1.394(6)
C3 C4 1.376(6)
C3 H3 0.9500
C4 C5 1.383(6)
C4 H4 0.9500
C5 C6 1.371(6)
C5 H5 0.9500
C6 C7 1.380(6)
C6 H6 0.9500
C7 H7 0.9500
C8 C9 1.367(6)
C8 C13 1.385(6)
C9 C10 1.381(6)
C9 H9 0.9500
C10 C11 1.368(7)
C10 H10 0.9500
C11 C12 1.381(7)
C11 H11 0.9500
C12 C13 1.392(6)
C12 H12 0.9500
C13 H13 0.9500
loop_
_geom_hbond_atom_site_label_D
_geom_hbond_atom_site_label_H
_geom_hbond_atom_site_label_A
_geom_hbond_site_symmetry_A
_geom_hbond_distance_DH
_geom_hbond_distance_HA
_geom_hbond_distance_DA
_geom_hbond_angle_DHA
N2 H2 Br1 1_655 0.88 2.95 3.593(4) 131.9
N2 H2 Br2 1_655 0.88 2.77 3.517(3) 143.9

_cod_database_fobs_code 1545385
