#------------------------------------------------------------------------------
#$Date: 2017-03-04 14:58:44 +0200 (Sat, 04 Mar 2017) $
#$Revision: 193378 $
#$URL: file:///home/coder/svn-repositories/cod/cif/1/54/54/1545459.cif $
#------------------------------------------------------------------------------
#
# This file is available in the Crystallography Open Database (COD),
# http://www.crystallography.net/
#
# All data on this site have been placed in the public domain by the
# contributors.
#
data_1545459
loop_
_publ_author_name
'Arai, Takayoshi'
'Tsuchida, Akiko'
'Miyazaki, Tomoya'
'Awata, Atsuko'
_publ_section_title
;
 Catalytic Asymmetric Synthesis of Chiral 2-Vinylindole Scaffolds by
 Friedel-Crafts Reaction.
;
_journal_issue                   4
_journal_name_full               'Organic letters'
_journal_page_first              758
_journal_page_last               761
_journal_paper_doi               10.1021/acs.orglett.6b03584
_journal_volume                  19
_journal_year                    2017
_chemical_absolute_configuration ad
_chemical_formula_sum            'C18 H14 Br N2 O2'
_chemical_formula_weight         370.22
_chemical_name_common            FC-4d
_space_group_crystal_system      monoclinic
_space_group_IT_number           4
_space_group_name_Hall           'P 2yb'
_space_group_name_H-M_alt        'P 1 21 1'
_symmetry_space_group_name_Hall  'P 2yb'
_symmetry_space_group_name_H-M   'P 1 21 1'
_atom_sites_solution_hydrogens   mixed
_cell_angle_alpha                90
_cell_angle_beta                 108.402(2)
_cell_angle_gamma                90
_cell_formula_units_Z            2
_cell_length_a                   9.0525(12)
_cell_length_b                   8.6536(12)
_cell_length_c                   10.8768(14)
_cell_measurement_reflns_used    2986
_cell_measurement_temperature    296
_cell_measurement_theta_max      27.80
_cell_measurement_theta_min      2.37
_cell_volume                     808.48(19)
_computing_cell_refinement       'SAINT V8.34A (Bruker AXS Inc., 2013)'
_computing_data_collection       'APEX2 (Bruker AXS, 2006)'
_computing_data_reduction        'SAINT V8.34A (Bruker AXS Inc., 2013)'
_computing_molecular_graphics    'XSHEL (Bruker AXS,2002)'
_computing_publication_material  'XCIF (Bruker AXS, 2001)'
_computing_structure_refinement  'SHELXL-2013 (Sheldrick, 2013)'
_computing_structure_solution    'SHELXS-97 (Sheldrick, 1997)'
_diffrn_ambient_temperature      296
_diffrn_measured_fraction_theta_full 0.998
_diffrn_measured_fraction_theta_max 0.928
_diffrn_measurement_device_type  'Bruker APEXII CCD area detector'
_diffrn_measurement_method       'Phi and Omega scans'
_diffrn_radiation_monochromator  graphite
_diffrn_radiation_type           MoK\a
_diffrn_radiation_wavelength     0.71073
_diffrn_reflns_av_R_equivalents  0.0172
_diffrn_reflns_av_unetI/netI     0.0540
_diffrn_reflns_limit_h_max       11
_diffrn_reflns_limit_h_min       -12
_diffrn_reflns_limit_k_max       9
_diffrn_reflns_limit_k_min       -11
_diffrn_reflns_limit_l_max       13
_diffrn_reflns_limit_l_min       -14
_diffrn_reflns_number            4611
_diffrn_reflns_theta_full        25.242
_diffrn_reflns_theta_max         28.418
_diffrn_reflns_theta_min         2.37
_diffrn_source                   'fine-focus sealed tube'
_exptl_absorpt_coefficient_mu    2.553
_exptl_absorpt_correction_T_max  0.88
_exptl_absorpt_correction_T_min  0.52
_exptl_absorpt_correction_type   empirical
_exptl_absorpt_process_details   'SADABS (Sheldrick 1996)'
_exptl_crystal_density_diffrn    1.521
_exptl_crystal_density_method    'not measured'
_exptl_crystal_description       plate
_exptl_crystal_F_000             374
_exptl_crystal_size_max          0.300
_exptl_crystal_size_mid          0.100
_exptl_crystal_size_min          0.050
_refine_diff_density_max         0.393
_refine_diff_density_min         -0.458
_refine_ls_abs_structure_details
;
Flack x determined using 836 quotients [(I+)-(I-)]/[(I+)+(I-)]
(Parsons, Flack and Wagner, Acta Cryst. B69 (2013) 249-259).
;
_refine_ls_abs_structure_Flack   0.041(7)
_refine_ls_extinction_method     none
_refine_ls_goodness_of_fit_ref   1.008
_refine_ls_hydrogen_treatment    mixed
_refine_ls_matrix_type           full
_refine_ls_number_parameters     216
_refine_ls_number_reflns         2935
_refine_ls_number_restraints     1
_refine_ls_restrained_S_all      1.008
_refine_ls_R_factor_all          0.0264
_refine_ls_R_factor_gt           0.0239
_refine_ls_shift/su_max          0.000
_refine_ls_shift/su_mean         0.000
_refine_ls_structure_factor_coef Fsqd
_refine_ls_weighting_details     'w=1/[\s^2^(Fo^2^)] where P=(Fo^2^+2Fc^2^)/3'
_refine_ls_weighting_scheme      calc
_refine_ls_wR_factor_gt          0.0572
_refine_ls_wR_factor_ref         0.0581
_reflns_number_gt                2732
_reflns_number_total             2935
_reflns_threshold_expression     'I > 2\s(I)'
_cod_data_source_file            ol6b03584_si_002.cif
_cod_data_source_block           I
_cod_database_code               1545459
_shelx_res_file
;
TITL arai43_1_0m in P2(1)
CELL 0.71073 9.0525 8.6536 10.8768 90.000 108.402 90.000
ZERR 2.00 0.0012 0.0012 0.0014 0.000 0.002 0.000
LATT -1
SYMM -x, y+1/2, -z
SFAC C  H  N  O  Br
UNIT 36  28  4  4  2
L.S. 3
ACTA
BOND $H
FMAP 2
PLAN 20
size 0.3 0.1 0.05
TEMP 23.000
WGHT    0.000000
FVAR       0.35430
BR1   5    1.072103    0.244313    1.018904    11.00000    0.05174    0.07775 =
         0.02147    0.00418    0.01129   -0.01745
C4    1    0.923915    0.184529    0.398320    11.00000    0.02385    0.02325 =
         0.02674    0.00315    0.00836    0.00009
O2    4    0.660467    0.081398    0.715409    11.00000    0.02847    0.06203 =
         0.07070   -0.01669    0.02769   -0.01010
C3    1    0.846387    0.288435    0.454733    11.00000    0.01463    0.02178 =
         0.02013    0.00253    0.00189   -0.00319
N1    3    0.677442    0.481469    0.448682    11.00000    0.01533    0.02686 =
         0.02789    0.00677    0.00564    0.00601
C6    1    0.781372    0.285956    0.186080    11.00000    0.03151    0.04110 =
         0.02004   -0.00179    0.00486   -0.00584
AFIX  43
H4    2    0.761134    0.282793    0.096804    11.00000   -1.20000
AFIX   0
C5    1    0.889821    0.183586    0.264911    11.00000    0.03515    0.02870 =
         0.02641   -0.00519    0.01377   -0.00331
AFIX  43
H3    2    0.940139    0.113382    0.227024    11.00000   -1.20000
AFIX   0
C2    1    0.846312    0.321787    0.585281    11.00000    0.01428    0.02130 =
         0.02192    0.00054    0.00598   -0.00211
C17   1    0.933129    0.241886    0.710922    11.00000    0.01666    0.02267 =
         0.02109    0.00289    0.00721   -0.00240
AFIX  13
H13   2    0.886241    0.277442    0.775718    11.00000   -1.20000
AFIX   0
C11   1    1.106866    0.274888    0.765884    11.00000    0.02038    0.01874 =
         0.02414    0.00101    0.00424   -0.00178
C16   1    1.183448    0.278306    0.898178    11.00000    0.03133    0.04611 =
         0.02455    0.00612    0.00476   -0.01182
C15   1    1.341156    0.309794    0.950276    11.00000    0.03937    0.08787 =
         0.02591    0.01029   -0.00554   -0.02772
AFIX  43
H9    2    1.388260    0.313353    1.039587    11.00000   -1.20000
AFIX   0
C14   1    1.426967    0.335689    0.868081    11.00000    0.02498    0.07877 =
         0.04320    0.00971   -0.00263   -0.02180
AFIX  43
H10   2    1.533186    0.355251    0.901657    11.00000   -1.20000
AFIX   0
C1    1    0.740271    0.438439    0.576005    11.00000    0.01571    0.02117 =
         0.02502    0.00123    0.00659   -0.00219
C8    1    0.737094    0.391075    0.372286    11.00000    0.01388    0.02407 =
         0.02450    0.00256    0.00418   -0.00111
C7    1    0.703696    0.391720    0.238266    11.00000    0.01787    0.03637 =
         0.02618    0.00845   -0.00115   -0.00176
AFIX  43
H5    2    0.632056    0.460519    0.186069    11.00000   -1.20000
AFIX   0
C9    1    0.695430    0.515413    0.678070    11.00000    0.02339    0.03101 =
         0.03364   -0.00270    0.01368   -0.00076
AFIX  43
H6    2    0.742591    0.481682    0.762596    11.00000   -1.20000
AFIX   0
C10   1    0.593233    0.629270    0.660517    11.00000    0.03435    0.03373 =
         0.04820   -0.00901    0.01747    0.00493
AFIX  93
H8    2    0.543431    0.666428    0.577504    11.00000   -1.20000
H7    2    0.571223    0.672119    0.731196    11.00000   -1.20000
AFIX   0
C18   1    0.912400    0.065304    0.701719    11.00000    0.01580    0.02427 =
         0.02983    0.00501    0.00645   -0.00126
AFIX  23
H15   2    0.961769    0.023971    0.641534    11.00000   -1.20000
H14   2    0.961819    0.019111    0.785973    11.00000   -1.20000
AFIX   0
N2    3    0.742443    0.026001    0.656265    11.00000    0.02047    0.02948 =
         0.03450    0.00683    0.00728   -0.00509
O1    4    0.694281   -0.057155    0.563384    11.00000    0.03416    0.05779 =
         0.04411   -0.01160    0.00293   -0.01444
C13   1    1.355418    0.332619    0.735965    11.00000    0.02324    0.04487 =
         0.03697    0.00682    0.00806   -0.00827
AFIX  43
H11   2    1.413502    0.350356    0.680462    11.00000   -1.20000
AFIX   0
C12   1    1.197435    0.303243    0.685491    11.00000    0.02009    0.02707 =
         0.02525    0.00212    0.00492   -0.00219
AFIX  43
H12   2    1.150592    0.302372    0.596100    11.00000   -1.20000
AFIX   0
H1    2    0.609095    0.535175    0.417766    11.00000    0.02845
H2    2    0.999148    0.114455    0.451349    11.00000    0.02603
HKLF 4 1 1 0 0 0 1 0 0 0 1

REM  arai43_1_0m in P2(1)
REM R1 =  0.0239 for    2732 Fo > 4sig(Fo)  and  0.0264 for all    2935 data
REM    216 parameters refined using      1 restraints

END

WGHT      0.0000      0.0000

REM Highest difference peak  0.393,  deepest hole -0.458,  1-sigma level  0.047
Q1    1   1.0723  0.1609  0.9883  11.00000  0.05    0.39
Q2    1   0.8037  0.3408  0.4154  11.00000  0.05    0.21
Q3    1   0.8554  0.2932  0.5358  11.00000  0.05    0.19
Q4    1   0.6994  0.1265  0.7891  11.00000  0.05    0.19
Q5    1   1.0626  0.3154  0.9818  11.00000  0.05    0.19
Q6    1   1.0992  0.3215  0.9934  11.00000  0.05    0.17
Q7    1   1.0165  0.2553  0.7232  11.00000  0.05    0.16
Q8    1   0.8938  0.2837  0.6481  11.00000  0.05    0.16
Q9    1   0.8360  0.4012  0.5858  11.00000  0.05    0.16
Q10   1   0.7224  0.4462  0.4050  11.00000  0.05    0.16
Q11   1   0.7246  0.0503  0.8030  11.00000  0.05    0.15
Q12   1   1.4583  0.2362  0.6172  11.00000  0.05    0.15
Q13   1   0.9398  0.0318  0.8266  11.00000  0.05    0.14
Q14   1   0.8095  0.4518  0.0969  11.00000  0.05    0.14
Q15   1   0.4735  0.7624  0.4625  11.00000  0.05    0.14
Q16   1   1.3842  0.2892  0.7782  11.00000  0.05    0.14
Q17   1   0.5085  0.7353  0.5380  11.00000  0.05    0.13
Q18   1   0.7461  0.1502  0.2156  11.00000  0.05    0.13
Q19   1   1.2806  0.2446  0.7155  11.00000  0.05    0.13
Q20   1   0.9153  0.3167  0.2631  11.00000  0.05    0.13
;
_shelx_res_checksum              32075
_shelx_hkl_file
;
  -1   0   0  500.87   27.18
  -1   0   0  546.86   32.48
  -2   0   0  130.88    6.87
  -2   0   0  133.31    8.21
  -3   0   0  166.01    8.57
  -3   0   0  162.77   10.23
  -4   0   0  113.14    5.97
  -4   0   0  114.12    7.13
  -5   0   0  267.38   13.92
  -5   0   0  267.17   16.62
  -6   0   0  106.97    5.50
  -6   0   0   99.72    6.54
  -7   0   0   47.44    3.30
  -7   0   0   52.42    2.79
  -8   0   0   64.43    4.26
  -9   0   0    6.26    0.85
 -10   0   0    0.90    0.58
 -11   0   0    2.45    0.77
   0   1   0   -0.99    0.04
  -1  -1   0   20.39    1.34
   1  -1   0   20.69    0.87
  -1  -1   0   20.77    1.14
  -1   1   0   19.43    1.35
  -2  -1   0    8.19    0.49
   2  -1   0    7.54    0.36
  -2  -1   0    7.54    0.55
  -3  -1   0  393.43   25.20
   3  -1   0  385.47   16.37
  -3  -1   0  400.68   21.10
  -3   1   0  439.32   21.21
  -3   1   0  416.65   25.18
  -4  -1   0   41.61    2.62
  -4   1   0   55.75    2.62
  -5  -1   0   31.35    1.64
  -5  -1   0   31.37    1.94
  -5   1   0   26.43    1.94
  -5   1   0   26.09    1.60
  -6  -1   0   47.33    2.71
  -6  -1   0   46.50    3.19
  -6   1   0   52.06    2.69
  -6   1   0   49.79    3.23
  -7  -1   0    1.43    0.35
  -7  -1   0    1.09    0.36
  -7   1   0    1.35    0.43
  -7   1   0    1.49    0.37
  -8  -1   0   20.12    1.69
  -8  -1   0   21.56    1.46
  -8   1   0   27.46    1.81
  -9  -1   0   22.60    1.81
  -9   1   0   24.27    1.87
 -10  -1   0    1.61    0.61
 -10   1   0    1.46    0.64
 -11   1   0    0.93    0.72
   0  -2   0  799.27   44.90
   0   2   0  928.83   53.50
  -1  -2   0  933.68   47.65
  -1  -2   0  930.70   56.70
  -1   2   0  888.28   56.85
  -2  -2   0  648.65   41.28
   2  -2   0  691.00   26.93
  -2  -2   0  661.14   34.70
  -3  -2   0  219.84   13.58
   3  -2   0  215.69    8.84
  -3  -2   0  218.29   11.42
  -3   2   0  222.59   13.62
  -4  -2   0  166.45    8.83
   4  -2   0  167.11    6.83
  -4  -2   0  173.01   10.49
  -4   2   0  165.15    8.79
  -4   2   0  171.07   10.54
  -6  -2   0   87.89    4.41
  -6  -2   0   88.12    5.20
  -6   2   0   79.48    5.25
  -6   2   0   71.16    4.34
  -7  -2   0  117.39    6.06
  -7  -2   0  115.37    7.16
  -7   2   0  106.08    7.21
  -8  -2   0   22.84    1.47
  -8  -2   0   21.89    1.66
  -8   2   0   22.18    1.76
  -9  -2   0    7.35    0.96
  -9   2   0    8.27    1.07
 -10   2   0    4.09    0.78
   0  -3   0    0.03    0.11
   0   3   0   -0.07    0.08
  -1  -3   0  255.44   15.72
  -1  -3   0  243.73   13.23
  -1   3   0  264.22   15.75
  -2  -3   0  120.07    6.02
   2  -3   0  119.09    4.64
  -2  -3   0  119.46    7.09
  -2   3   0   98.92    7.13
  -3  -3   0   73.03    4.56
   3  -3   0   73.22    2.98
  -3  -3   0   72.04    3.89
  -4  -3   0  196.90   10.78
  -4  -3   0  200.19   12.79
   4  -3   0  198.90    8.33
  -4   3   0  228.70   12.87
   5  -3   0   63.58    2.59
  -5  -3   0   66.01    3.96
  -5  -3   0   63.95    3.39
  -5   3   0   54.70    4.01
  -6  -3   0    8.40    0.76
  -6  -3   0    7.84    0.73
  -6   3   0    9.73    0.85
  -7  -3   0    9.13    0.83
  -7  -3   0    9.49    0.85
  -7   3   0    9.64    0.95
  -8  -3   0   20.77    1.51
  -8   3   0   25.92    1.83
  -9  -3   0    3.96    0.68
  -9   3   0    6.97    0.93
 -10   3   0   14.23    1.58
   0  -4   0  394.58   21.09
   0   4   0  418.41   25.11
  -1  -4   0  340.65   17.18
  -1  -4   0  341.04   20.41
  -1   4   0  309.68   20.43
  -2  -4   0   27.54    1.59
  -2  -4   0   28.34    1.78
   3  -4   0   19.38    0.82
  -3  -4   0   19.17    1.20
  -3   4   0   15.49    1.27
  -4  -4   0   10.37    0.76
   4  -4   0   10.34    0.53
  -4  -4   0   10.95    0.76
  -5  -4   0   95.59    5.77
   5  -4   0   95.61    3.78
  -5  -4   0   90.34    4.92
  -5   4   0   84.51    5.84
  -6  -4   0   48.29    2.49
  -6   4   0   38.31    2.90
  -7  -4   0   44.58    2.68
  -7   4   0   47.74    3.17
  -8  -4   0   24.57    1.69
  -8   4   0   27.18    2.06
  -9  -4   0    2.35    0.57
  -9   4   0    0.89    0.61
 -10  -4   0    3.15    0.70
 -10   4   0    3.75    0.91
   0  -5   0    0.04    0.14
   0  -5   0    0.02    0.17
   1  -5   0    0.98    0.23
  -1  -5   0    1.11    0.27
  -1  -5   0    1.11    0.18
  -2  -5   0  114.84    6.17
  -2  -5   0  116.46    7.23
  -2   5   0  117.60    7.29
   3  -5   0   42.37    1.84
  -3   5   0   44.54    2.85
   4  -5   0   45.23    1.89
  -4  -5   0   44.10    2.50
  -4   5   0   43.13    2.93
   5  -5   0   20.52    0.95
  -5  -5   0   19.46    1.30
  -6  -5   0    1.64    0.47
  -6   5   0    3.55    0.61
  -7  -5   0    6.16    0.74
  -7   5   0    4.62    0.80
  -8  -5   0    0.76    0.52
  -8   5   0    0.74    0.56
  -9  -5   0    5.91    0.82
  -9   5   0    5.60    0.91
 -10  -5   0    2.50    0.68
   0  -6   0   39.02    2.20
   0  -6   0   39.15    2.51
   1  -6   0   76.01    4.01
  -1  -6   0   72.70    4.02
  -1   6   0   74.36    4.70
   2  -6   0   26.09    1.41
  -2  -6   0   25.29    1.46
  -2   6   0   20.33    1.61
  -3  -6   0   11.24    0.81
   3  -6   0   10.44    0.55
  -3   6   0    7.25    0.77
  -4  -6   0    2.21    0.43
   4  -6   0    2.49    0.28
  -4   6   0    2.00    0.42
  -5  -6   0   45.72    2.55
   5  -6   0   44.78    1.89
  -5   6   0   39.92    2.94
  -6  -6   0   50.06    2.86
  -6   6   0   49.27    3.40
  -7  -6   0   16.06    1.29
  -7   6   0   16.49    1.51
  -8  -6   0    2.85    0.64
  -8   6   0    3.57    0.75
  -9  -6   0    5.27    0.82
  -9   6   0    4.50    1.00
   0  -7   0   -0.07    0.25
   1  -7   0    7.03    0.64
  -1  -7   0    7.09    0.65
   2  -7   0   64.68    3.50
  -2  -7   0   62.77    3.55
  -2   7   0   64.48    4.12
   3  -7   0   35.74    1.63
  -3  -7   0   34.56    2.16
   3  -7   0   35.95    2.09
  -3   7   0   39.52    2.48
   4  -7   0   10.98    0.66
  -4  -7   0   11.96    0.96
  -5  -7   0    9.43    0.92
  -5   7   0    6.98    0.88
  -6  -7   0    0.84    0.51
  -6   7   0    0.15    0.48
  -7  -7   0    7.86    0.96
  -7   7   0   10.90    1.20
  -8  -7   0    0.44    0.63
  -8   7   0    0.38    0.66
   0  -8   0    5.61    0.63
  -1  -8   0    2.38    0.48
   1  -8   0    2.32    0.45
   2  -8   0   16.59    1.13
  -2  -8   0   16.58    1.23
  -3  -8   0   14.86    1.15
   3  -8   0   13.49    0.80
   4  -8   0    8.95    0.63
  -4  -8   0    7.78    0.86
  -4   8   0    6.85    0.86
  -5  -8   0    1.85    0.59
  -5   8   0    1.30    0.51
  -6  -8   0    4.18    0.72
  -6   8   0    7.20    0.90
  -7  -8   0    4.17    0.78
  -7   8   0    1.95    0.70
   0  -9   0    0.09    0.40
   1  -9   0   11.12    0.97
  -1  -9   0   12.55    1.04
  -2  -9   0    6.14    0.74
  -3  -9   0   13.61    1.16
   3  -9   0   14.80    0.87
   4  -9   0    9.84    0.73
  -4  -9   0   10.48    1.10
  -5  -9   0    0.73    0.62
  -6  -9   0    2.78    0.73
  -7   9   0    0.88    0.69
   0 -10   0    0.23    0.47
  -1 -10   0    2.39    0.61
   2 -10   0    5.98    0.57
  -2 -10   0    5.97    0.80
  -3 -10   0    1.33    0.60
   3 -10   0    2.16    0.46
  -4 -10   0    0.81    0.62
   0 -11   0    0.34    0.54
  -1 -11   0    1.15    0.56
  -2 -11   0    0.24    0.60
   2 -11   0    0.77    0.45
   3 -11   0    0.99    0.46
 -11   0   1    2.49    0.75
 -10   0   1    0.42    0.51
  -9   0   1   -0.08    0.45
  -8   0   1   13.19    1.17
  -8   0   1   13.64    1.03
  -7   0   1  106.77    5.76
  -7   0   1  108.41    6.85
  -6   0   1   86.60    5.54
  -6   0   1   87.60    4.67
  -5   0   1   11.46    0.89
  -5   0   1   11.88    0.77
  -4   0   1   20.87    1.18
  -4   0   1   20.09    1.38
  -3   0   1    1.94    0.22
  -3   0   1    2.02    0.24
  -2   0   1  368.00   21.89
  -2   0   1  336.54   18.30
  -1   0   1  103.74    5.62
  -1   0   1  111.39    6.70
  -1   0  -1  387.24   20.71
  -1   0  -1  411.45   24.83
  -2   0  -1  668.17   34.49
  -2   0  -1  660.56   41.30
  -3   0  -1   10.24    0.76
  -3   0  -1   10.33    0.61
  -4   0  -1  145.67    7.47
  -4   0  -1  140.10    8.94
  -5   0  -1   18.03    1.07
  -6   0  -1   59.48    3.21
  -6   0  -1   59.06    3.87
  -7   0  -1   94.63    6.08
  -8   0  -1   32.69    2.32
  -9   0  -1    0.50    0.53
 -10   0  -1    4.06    0.82
 -11   0  -1   10.43    1.42
 -11   1   1   15.68    1.59
 -10  -1   1   31.72    2.33
 -10   1   1   31.23    2.41
  -9  -1   1    3.62    0.58
  -9  -1   1    3.45    0.60
  -9   1   1    2.14    0.63
  -8  -1   1    9.78    0.84
  -8  -1   1    9.88    0.93
  -8   1   1    7.79    0.89
  -7  -1   1    5.21    0.61
  -7  -1   1    4.96    0.67
  -7   1   1    5.94    0.67
  -7   1   1    6.53    0.59
  -6  -1   1   41.24    2.23
  -6  -1   1   40.92    2.61
  -6   1   1   37.79    2.62
  -6   1   1   38.04    2.21
  -5  -1   1   79.39    4.42
  -5  -1   1   75.35    5.21
  -5   1   1   88.93    5.26
  -5   1   1   87.28    4.41
  -4  -1   1  141.26    7.83
  -4  -1   1  138.27    6.60
  -4   1   1  109.33    7.83
  -4   1   1  112.95    6.57
  -3  -1   1  477.05   24.65
  -3  -1   1  499.26   29.55
  -3   1   1  480.35   29.55
  -3   1   1  446.71   24.69
   2  -1  -1  514.48   21.37
  -2  -1   1  524.43   27.70
  -2  -1   1  522.24   32.89
  -2   1   1  543.73   27.73
  -2   1   1  553.28   33.05
  -1  -1   1  413.97   22.33
  -1   1   1  420.85   26.61
   1   1  -1  453.92   26.56
   0  -1   1   57.96    2.43
   0  -1  -1   62.10    3.73
   0  -1   1   58.86    3.12
   0   1  -1   59.54    3.72
  -1  -1  -1  435.47   26.59
  -1  -1  -1  420.47   22.22
   1  -1   1  437.95   17.31
  -1   1  -1  416.59   26.51
  -2  -1  -1  523.55   26.09
  -2  -1  -1  536.88   31.25
   2  -1   1  562.94   20.41
  -2   1  -1  431.20   31.04
  -2   1  -1  461.76   26.06
   3  -1   1  429.44   17.96
  -3  -1  -1  431.45   23.12
  -3  -1  -1  442.58   27.59
  -3   1  -1  455.98   23.14
  -3   1  -1  471.75   27.62
  -4  -1  -1  334.36   20.77
  -4  -1  -1  331.54   17.39
  -4   1  -1  326.89   17.37
  -4   1  -1  346.94   20.79
  -5  -1  -1   50.65    2.73
  -5   1  -1   37.23    2.71
  -5   1  -1   35.77    2.21
  -6  -1  -1    0.91    0.28
  -6  -1  -1    0.84    0.34
  -6   1  -1    0.04    0.31
  -7  -1  -1    5.04    0.53
  -7  -1  -1    4.07    0.57
  -7   1  -1    3.95    0.60
  -8  -1  -1    4.70    0.66
  -8   1  -1    3.21    0.63
  -9  -1  -1    8.43    1.00
  -9   1  -1    7.70    1.09
 -10  -1  -1    8.05    1.02
 -10   1  -1    6.77    1.02
 -11   2   1    0.14    0.65
 -10   2   1    0.70    0.56
  -9  -2   1    7.40    0.83
  -9   2   1    4.54    0.83
  -8  -2   1   12.10    1.00
  -8  -2   1   12.22    1.10
  -8   2   1   14.28    1.22
  -7  -2   1   34.36    2.17
  -7  -2   1   33.10    2.51
  -7   2   1   42.13    2.18
  -7   2   1   42.12    2.62
  -6  -2   1   43.58    2.67
  -6  -2   1   43.12    3.11
  -6   2   1   54.40    2.68
  -6   2   1   52.21    3.19
  -5  -2   1   88.08    5.57
  -5  -2   1   93.00    4.75
  -5   2   1   87.28    5.63
  -5   2   1   86.34    4.71
   4  -2  -1    7.22    0.36
  -4  -2   1    8.07    0.55
  -4  -2   1    6.60    0.55
  -4   2   1    7.63    0.62
  -4   2   1    7.44    0.51
  -3  -2   1  304.92   18.90
  -3  -2   1  302.50   15.90
   3  -2  -1  303.63   12.30
  -3   2   1  312.95   18.96
  -2  -2   1  334.55   17.94
  -2  -2   1  311.28   21.37
  -2   2   1  392.47   21.41
  -1   2   1  429.15   26.63
   0  -2  -1  972.61   58.84
   0  -2   1 1000.00   49.34
   0   2  -1  877.76   58.74
   1  -2   1  802.61   31.78
  -1  -2  -1  752.57   48.74
  -1  -2  -1  755.91   40.94
  -1   2  -1  835.17   48.85
  -2  -2  -1   13.47    0.88
   2  -2   1   13.29    0.59
  -2   2  -1   11.93    0.90
   3  -2   1   70.11    2.91
  -3  -2  -1   69.10    3.75
  -3  -2  -1   70.60    4.46
  -3   2  -1   72.85    4.49
  -4  -2  -1    0.21    0.17
  -4  -2  -1    0.12    0.20
   4  -2   1    0.44    0.15
  -4   2  -1    0.78    0.25
  -4   2  -1    0.92    0.15
  -5  -2  -1  105.10    5.51
  -5  -2  -1  106.09    6.55
  -5   2  -1  100.90    6.59
  -5   2  -1  103.01    5.46
  -6  -2  -1   65.33    4.35
  -6  -2  -1   68.63    3.68
  -6   2  -1   68.29    4.39
  -7  -2  -1   51.18    3.55
  -7  -2  -1   52.59    3.00
  -7   2  -1   57.89    3.63
  -8  -2  -1   48.16    3.40
  -8  -2  -1   51.47    2.89
  -8   2  -1   52.45    3.50
  -9  -2  -1    0.58    0.47
  -9   2  -1    0.77    0.62
 -10   2  -1    1.32    0.70
 -10  -3   1    1.40    0.60
 -10   3   1    0.60    0.60
  -9  -3   1   41.50    2.50
  -9   3   1   41.52    2.96
  -8  -3   1   21.98    1.47
  -8   3   1   21.00    1.75
  -7  -3   1   28.27    1.73
  -7   3   1   27.96    2.06
  -6  -3   1   16.53    1.13
  -6  -3   1   16.77    1.09
  -6   3   1   13.24    1.21
  -5  -3   1   17.06    1.16
   5  -3  -1   18.05    0.77
  -5  -3   1   18.06    1.09
  -5   3   1   14.69    1.25
   4  -3  -1  294.26   11.40
  -4  -3   1  283.53   14.76
  -4  -3   1  293.84   17.51
  -4   3   1  260.22   17.58
   3  -3  -1  297.05   12.24
  -3  -3   1  300.38   15.83
  -3  -3   1  303.09   18.78
  -3   3   1  316.24   18.87
  -2  -3   1  140.44    7.66
  -2   3   1  152.48    9.12
  -1  -3   1   63.16    3.51
  -1  -3   1   63.71    4.11
  -1   3   1   72.62    4.18
   0  -3  -1  262.52   16.40
   0  -3   1  270.20   13.76
   0   3  -1  262.96   16.39
  -1  -3  -1   65.10    3.44
   1  -3   1   65.62    3.39
   1  -3   1   59.79    2.64
  -1  -3  -1   63.72    4.04
  -1   3  -1   68.40    4.06
  -2  -3  -1  214.13   12.74
  -2  -3  -1  207.56   10.72
   2  -3   1  211.64    8.30
  -2   3  -1  188.38   12.75
   3  -3   1  280.87   11.18
  -3  -3  -1  269.55   14.42
  -3  -3  -1  275.94   17.16
  -3   3  -1  281.32   17.20
  -4  -3  -1   83.47    5.38
  -4  -3  -1   83.14    4.56
   4  -3   1   85.52    3.53
  -4   3  -1   89.51    5.44
   5  -3   1   22.80    1.04
  -5  -3  -1   22.76    1.57
  -5  -3  -1   22.08    1.35
  -6  -3  -1    4.05    0.50
  -6  -3  -1    3.72    0.49
  -6   3  -1    3.94    0.61
  -7  -3  -1    4.79    0.60
  -7  -3  -1    4.58    0.59
  -7   3  -1    4.03    0.68
  -8  -3  -1   14.24    1.03
  -8   3  -1   10.47    1.26
  -9   3  -1    6.74    0.97
 -10   3  -1   12.16    1.49
 -10  -4   1    4.76    0.79
 -10   4   1    4.81    0.97
  -9  -4   1    7.90    0.87
  -9   4   1    6.71    0.98
  -8  -4   1    0.90    0.49
  -8   4   1    4.28    0.72
  -7  -4   1   32.82    2.15
  -7   4   1   39.10    2.58
  -6  -4   1   76.33    4.64
  -6   4   1   95.10    5.55
   5  -4  -1    8.35    0.43
  -5  -4   1    7.56    0.68
  -5   4   1    6.92    0.74
   4  -4  -1  128.61    5.19
  -4  -4   1  129.46    7.92
  -4  -4   1  130.84    6.76
  -4   4   1  121.49    8.03
  -3  -4   1   70.03    4.42
  -3  -4   1   67.33    3.82
  -3   4   1   76.45    4.54
  -2  -4   1   65.75    3.52
  -2   4   1   65.42    4.15
  -1  -4   1  262.59   13.73
  -1  -4   1  271.22   16.29
  -1   4   1  257.52   16.34
   0  -4  -1  127.68    8.28
   0  -4   1  124.84    6.97
   0   4  -1  146.63    8.26
   1  -4   1  115.98    5.68
  -1  -4  -1  109.46    6.75
  -1  -4  -1  111.89    5.73
  -1   4  -1   96.12    6.75
  -2  -4  -1   89.81    4.76
   2  -4   1   91.10    3.67
  -2  -4  -1   92.91    5.59
  -2   4  -1   83.80    5.62
  -3  -4  -1   15.85    1.14
  -3  -4  -1   16.09    1.05
   3  -4   1   16.61    0.77
  -3   4  -1   18.27    1.22
  -4  -4  -1   54.84    3.18
  -4  -4  -1   57.38    3.71
   4  -4   1   56.13    2.44
  -4   4  -1   64.65    3.80
   5  -4   1   36.82    1.67
  -5  -4  -1   38.72    2.52
  -5  -4  -1   35.61    2.18
  -5   4  -1   42.24    2.64
  -6  -4  -1   32.46    1.93
  -6   4  -1   32.22    2.29
  -7  -4  -1   29.10    1.85
  -7   4  -1   30.44    2.23
  -8  -4  -1   11.24    1.04
  -8   4  -1   12.39    1.22
  -9  -4  -1    4.99    0.71
  -9   4  -1    4.76    0.91
 -10  -5   1   13.03    1.26
 -10   5   1    9.49    1.39
  -9  -5   1    4.46    0.72
  -9   5   1    4.27    0.87
  -8  -5   1    1.90    0.55
  -8   5   1    1.19    0.64
  -7  -5   1   24.53    1.67
  -7   5   1   25.72    1.95
  -6  -5   1    0.17    0.39
  -6   5   1    0.99    0.46
   5  -5  -1  109.31    4.11
  -5  -5   1  104.92    5.38
  -5   5   1   85.25    6.35
   4  -5  -1   73.45    2.84
  -4  -5   1   73.75    3.75
  -4   5   1   58.60    4.38
  -3  -5   1   44.94    2.68
  -3   5   1   51.88    3.16
  -2  -5   1   99.42    5.17
  -2   5   1   94.59    6.11
  -1  -5   1   78.85    4.92
  -1  -5   1   79.47    4.23
   0  -5   1  104.85    5.50
   0  -5  -1  107.62    5.54
   0  -5  -1  104.86    6.51
   0   5  -1   99.34    6.48
  -1  -5  -1    2.57    0.35
   1  -5   1    2.89    0.33
  -1  -5  -1    2.13    0.30
  -1   5  -1    2.27    0.31
  -2  -5  -1   44.98    2.93
  -2  -5  -1   44.93    2.55
   2  -5   1   44.81    1.95
   2  -5   1   47.26    2.49
  -2   5  -1   47.72    2.98
  -3  -5  -1   59.40    3.85
  -3  -5  -1   60.81    3.34
   3  -5   1   61.20    2.55
  -3   5  -1   61.83    3.92
   4  -5   1   39.63    1.89
  -4   5  -1   48.94    2.96
  -5  -5  -1   58.14    3.25
   5  -5   1   59.90    2.48
  -5   5  -1   56.60    3.84
  -6  -5  -1   46.00    2.51
  -6   5  -1   39.92    2.93
  -7  -5  -1   17.80    1.34
  -7   5  -1   19.89    1.63
  -8  -5  -1   12.67    1.14
  -8   5  -1   12.42    1.30
  -9  -5  -1    0.43    0.53
  -9   5  -1    0.30    0.64
  -9  -6   1    6.61    0.88
  -9   6   1    4.39    0.86
  -8  -6   1   42.35    2.55
  -8   6   1   39.82    2.97
  -7  -6   1   13.82    1.21
  -7   6   1   18.50    1.48
  -6  -6   1    2.63    0.56
  -5  -6   1    9.66    0.88
  -5   6   1   10.30    0.96
  -4  -6   1   13.47    1.00
   4  -6  -1   13.60    0.67
  -4   6   1   11.82    1.06
  -3  -6   1   30.94    1.82
  -3   6   1   30.52    2.09
  -2  -6   1   29.89    1.67
  -2   6   1   26.87    1.90
  -1  -6   1   93.48    5.09
   1  -6  -1   96.07    6.01
   1  -6  -1   96.51    5.11
   0  -6  -1   77.24    4.97
   0  -6   1   79.07    4.23
   0  -6  -1   80.20    4.26
  -1  -6  -1   35.10    2.14
   1  -6   1   35.99    2.08
  -1  -6  -1   36.22    2.41
  -1   6  -1   41.77    2.44
   2  -6   1   23.60    1.40
  -2  -6  -1   22.05    1.46
   2  -6   1   22.47    1.10
  -2   6  -1   27.53    1.67
   3  -6   1   19.73    0.95
  -3  -6  -1   19.21    1.30
  -3   6  -1   20.25    1.44
  -4  -6  -1   27.22    1.78
   4  -6   1   28.61    1.34
  -4   6  -1   32.81    2.10
   5  -6   1    8.23    0.57
  -5  -6  -1    7.13    0.77
  -5   6  -1    8.23    0.92
  -6  -6  -1   11.98    1.10
  -6   6  -1   14.13    1.24
  -7  -6  -1   11.92    1.10
  -7   6  -1   15.91    1.43
  -8  -6  -1    2.33    0.62
  -8   6  -1    4.77    0.89
  -9  -6  -1    0.45    0.61
  -8  -7   1   10.88    1.13
  -8   7   1   11.81    1.37
  -7  -7   1    2.65    0.68
  -7   7   1    2.66    0.68
  -6  -7   1    6.30    0.79
  -6   7   1    7.10    0.89
  -5  -7   1    2.80    0.53
  -5   7   1    2.93    0.58
   4  -7  -1    7.48    0.50
  -4  -7   1    7.16    0.78
  -4   7   1    4.50    0.66
  -3  -7   1   28.56    1.62
  -3   7   1   22.45    1.76
  -2  -7   1   29.49    1.84
   2  -7  -1   30.94    1.84
  -2   7   1   32.63    2.11
   1  -7  -1    5.86    0.60
  -1  -7   1    5.69    0.62
   1  -7  -1    5.73    0.63
   0  -7  -1    6.27    0.61
   0  -7   1    5.72    0.58
  -1  -7  -1   12.21    0.96
   1  -7   1   12.58    0.87
  -2  -7  -1    0.35    0.33
   2  -7   1    0.57    0.28
   2  -7   1    0.52    0.26
   3  -7   1    7.41    0.57
  -3  -7  -1    7.98    0.84
  -3   7  -1    9.56    0.82
   4  -7   1   42.65    1.82
  -4  -7  -1   42.98    2.44
  -4   7  -1   36.65    2.75
  -5  -7  -1   23.03    1.54
   5  -7   1   21.16    1.11
  -5   7  -1   21.33    1.70
  -6  -7  -1    4.62    0.72
  -6   7  -1    3.47    0.74
  -7  -7  -1    3.17    0.63
  -7   7  -1    1.72    0.68
  -8  -7  -1    0.76    0.66
  -8   7  -1   -0.35    0.64
  -8   8   1    3.91    0.88
  -7  -8   1    2.00    0.69
  -7   8   1    3.06    0.75
  -6  -8   1    6.38    0.82
  -6   8   1    3.58    0.73
  -5  -8   1    3.12    0.66
  -5   8   1    3.57    0.67
  -4  -8   1    1.59    0.53
   4  -8  -1    1.10    0.32
  -4   8   1    1.71    0.49
   3  -8  -1    3.46    0.52
  -3  -8   1    2.97    0.57
   2  -8  -1   15.33    1.10
  -2  -8   1   14.65    1.09
   1  -8  -1   38.09    2.26
  -1  -8   1   38.55    2.25
   0  -8  -1   26.81    1.69
   0  -8   1   26.45    1.64
  -1  -8  -1   20.13    1.38
   1  -8   1   19.79    1.28
   2  -8   1    6.53    0.57
  -2  -8  -1    7.24    0.78
   3  -8   1   10.46    0.69
  -3  -8  -1    9.73    0.98
   4  -8   1    0.17    0.31
  -4  -8  -1    0.14    0.44
  -5  -8  -1    6.06    0.78
  -5   8  -1    6.20    0.81
  -6  -8  -1   17.11    1.32
  -6   8  -1   14.06    1.47
  -7  -8  -1    2.59    0.72
  -7   8  -1    4.09    0.80
  -7   9   1    1.62    0.75
  -6  -9   1    0.41    0.61
  -6   9   1   -0.13    0.59
  -5  -9   1    2.76    0.68
  -4  -9   1    8.92    0.95
  -3  -9   1    1.07    0.51
  -2  -9   1    1.34    0.49
   2  -9  -1    1.59    0.47
   1  -9  -1    4.87    0.64
  -1  -9   1    3.70    0.58
   0  -9  -1    1.01    0.47
   0  -9   1    1.93    0.48
  -1  -9  -1    0.78    0.48
  -2  -9  -1    4.09    0.68
   2  -9   1    3.77    0.47
   3  -9   1    0.83    0.38
  -3  -9  -1    0.87    0.53
   4  -9   1    3.49    0.49
  -4  -9  -1    2.84    0.63
  -5  -9  -1    9.55    1.07
  -6  -9  -1    6.35    0.90
  -5 -10   1    1.09    0.65
  -4 -10   1    0.84    0.61
  -3 -10   1    0.33    0.55
   3 -10  -1   -0.08    0.37
  -2 -10   1   10.45    1.08
  -1 -10   1   26.03    1.75
   1 -10  -1   26.48    1.76
   0 -10   1    3.95    0.63
   0 -10  -1    3.65    0.64
  -1 -10  -1    3.30    0.63
   2 -10   1    0.56    0.41
  -2 -10  -1    0.38    0.49
   3 -10   1    0.19    0.40
  -3 -10  -1    0.45    0.61
  -4 -10  -1    4.21    0.77
  -3 -11   1    2.78    0.72
  -2 -11   1    0.26    0.59
  -1 -11   1    1.07    0.59
   0 -11  -1    4.76    0.79
  -1 -11  -1    0.84    0.62
   1 -11   1    0.78    0.47
   2 -11   1    1.12    0.49
  -2 -11  -1    0.68    0.57
   3 -11   1    0.24    0.46
 -11   0   2    0.13    0.60
 -10   0   2   21.10    1.76
  -9   0   2   22.18    1.74
  -9   0   2   22.53    1.51
  -8   0   2   56.62    3.75
  -8   0   2   56.44    3.19
  -7   0   2   10.99    0.87
  -7   0   2   11.87    0.99
  -6   0   2    1.66    0.33
  -6   0   2    1.99    0.36
  -5   0   2   20.31    1.21
  -5   0   2   19.98    1.39
  -4   0   2   12.32    0.78
  -4   0   2   12.27    0.88
  -3   0   2   43.69    2.28
  -3   0   2   40.96    2.68
  -2   0   2  418.33   23.05
  -2   0   2  463.02   27.61
  -2   0   2  452.49   17.89
  -1   0   2    4.73    0.24
  -1   0   2    4.34    0.31
   0   0  -2   17.54    1.15
   0   0   2   16.98    0.76
  -1   0  -2  707.71   43.99
  -2   0  -2    0.61    0.12
  -3   0  -2   10.06    0.78
  -3   0  -2   10.39    0.60
  -4   0  -2   12.97    1.03
  -4   0  -2   13.69    0.80
  -5   0  -2   26.07    1.84
  -5   0  -2   26.42    1.48
  -6   0  -2   19.72    1.50
  -7   0  -2    9.21    0.98
  -8   0  -2    6.69    0.93
  -9   0  -2   13.22    1.33
 -10   0  -2    2.68    0.79
 -11   1   2    9.72    1.28
 -10  -1   2    4.85    0.78
 -10  -1   2    6.91    0.84
 -10   1   2    6.60    0.88
  -9  -1   2   21.72    1.68
  -9  -1   2   21.91    1.50
  -9   1   2   21.81    1.73
  -8  -1   2   29.75    1.77
  -8  -1   2   30.22    2.04
  -8   1   2   28.29    1.76
  -8   1   2   26.44    2.04
  -7  -1   2   20.54    1.52
  -7  -1   2   21.94    1.37
  -7   1   2   21.12    1.56
  -7   1   2   21.37    1.35
  -6  -1   2   26.81    1.49
  -6  -1   2   26.05    1.70
  -6   1   2   23.24    1.73
  -6   1   2   22.87    1.47
  -5  -1   2  172.21   10.15
  -5  -1   2  162.47    8.55
  -5   1   2  155.88    8.55
  -5   1   2  160.26   10.17
  -4  -1   2  378.02   20.73
  -4  -1   2  394.30   24.69
  -4   1   2  410.09   20.74
  -4   1   2  415.21   24.73
  -3  -1   2  266.62   16.34
  -3  -1   2  260.36   13.74
  -3   1   2  259.04   16.37
  -3   1   2  270.73   13.74
  -2  -1   2  332.98   15.71
  -2   1   2  298.63   18.72
  -2   1   2  276.68   15.70
  -1  -1   2   78.54    4.09
  -1  -1   2   80.15    3.18
   1  -1  -2   81.80    4.89
   1   1  -2   70.80    4.86
   0  -1  -2   51.01    3.05
   0  -1   2   51.52    2.53
   0   1  -2   41.29    3.03
  -1  -1  -2  364.92   22.49
   1  -1   2  381.69   14.62
  -1   1  -2  342.43   22.49
  -2  -1  -2  114.65    5.88
   2  -1   2  117.06    4.60
  -2  -1  -2  110.61    7.03
  -2   1  -2  109.43    5.83
  -2   1  -2  110.79    7.04
  -3  -1  -2  247.74   14.07
  -3  -1  -2  247.42   11.76
  -3   1  -2  206.24   11.71
  -3   1  -2  203.13   14.06
  -4  -1  -2  357.86   18.59
  -4  -1  -2  365.26   22.23
  -4   1  -2  354.56   22.24
  -4   1  -2  355.06   18.56
  -5  -1  -2  101.60    5.46
  -5  -1  -2   96.99    6.54
  -5   1  -2  110.99    6.58
  -6  -1  -2    7.80    0.62
  -6  -1  -2    8.06    0.82
  -6   1  -2    7.40    0.84
  -7  -1  -2   10.93    1.03
  -7   1  -2    9.50    1.03
  -8  -1  -2   21.88    1.68
  -8   1  -2   19.44    1.70
  -9  -1  -2   20.20    1.81
  -9   1  -2   24.49    1.88
 -10  -1  -2    7.61    0.99
 -10   1  -2    5.53    0.98
 -11   2   2    0.62    0.66
 -10  -2   2   19.45    1.47
 -10   2   2   17.50    1.66
  -9  -2   2   27.01    1.72
  -9   2   2   24.22    1.99
  -8  -2   2   22.22    1.44
  -8  -2   2   21.27    1.60
  -8   2   2   21.37    1.70
  -8   2   2   22.44    1.42
  -7  -2   2   46.16    3.08
  -7  -2   2   45.58    2.68
  -7   2   2   50.10    3.18
  -7   2   2   46.92    2.67
  -6  -2   2   62.60    3.82
  -6  -2   2   63.28    3.30
  -6   2   2   55.58    3.26
  -6   2   2   57.05    3.88
  -5  -2   2    1.94    0.27
  -5  -2   2    2.20    0.34
  -4  -2   2   41.35    2.50
  -4  -2   2   41.13    2.18
   4  -2  -2   40.40    1.61
  -4   2   2   37.49    2.56
  -4   2   2   36.05    2.15
  -3  -2   2   13.92    0.88
  -3  -2   2   14.58    0.95
  -3   2   2   15.48    1.03
  -2  -2   2  208.76    9.97
   2   2  -2  188.21   11.81
  -2   2   2  177.23   11.87
  -1  -2   2  394.48   20.66
   1  -2  -2  397.67   24.66
   1   2  -2  404.12   24.71
   0  -2   2  220.89    9.52
   0  -2   2  223.86   12.24
   0  -2  -2  228.73   14.63
   0   2  -2  271.04   14.62
   1  -2   2   62.87    2.77
   1  -2   2   68.04    3.51
  -1  -2  -2   67.61    4.25
  -1   2  -2   71.63    4.26
  -2  -2  -2   46.61    2.58
   2  -2   2   45.48    2.00
  -2  -2  -2   47.36    3.06
  -2   2  -2   52.23    3.09
  -3  -2  -2    9.00    0.60
  -3  -2  -2    9.16    0.72
   3  -2   2    8.71    0.48
  -3   2  -2    8.56    0.72
  -4  -2  -2   93.53    5.97
  -4  -2  -2   92.09    5.00
   4  -2   2   90.57    3.90
  -4   2  -2   94.42    4.92
  -4   2  -2  100.85    6.01
  -5  -2  -2   64.28    4.29
  -5  -2  -2   61.92    3.57
  -5   2  -2   73.61    4.34
  -6  -2  -2   14.96    1.23
  -6  -2  -2   15.04    1.03
  -6   2  -2   15.76    1.28
  -7  -2  -2   12.30    1.05
  -7  -2  -2   12.25    0.87
  -7   2  -2    8.19    1.08
  -8  -2  -2   13.55    1.25
  -8   2  -2   11.83    1.27
  -9  -2  -2    9.78    1.12
  -9   2  -2    9.41    1.27
 -10   2  -2    1.10    0.76
 -11  -3   2    1.48    0.66
 -11   3   2    1.48    0.76
 -10  -3   2   13.65    1.28
 -10   3   2   14.07    1.49
  -9  -3   2    1.66    0.53
  -9   3   2    2.95    0.71
  -8  -3   2    2.72    0.55
  -8   3   2    0.96    0.53
  -7  -3   2    7.43    0.76
  -7   3   2   10.61    0.98
  -6  -3   2   71.08    4.01
  -6  -3   2   75.06    4.66
  -6   3   2   74.55    4.77
  -5  -3   2  135.19    8.32
  -5  -3   2  133.07    7.08
   5  -3  -2  127.80    5.40
  -5   3   2  138.63    8.42
  -4  -3   2   35.31    2.02
   4  -3  -2   33.46    1.48
  -4  -3   2   34.22    2.26
  -4   3   2   41.20    2.38
  -3  -3   2  124.96    6.49
  -3   3   2  121.71    7.72
  -2  -3   2  147.24    7.47
  -2   3   2  138.14    8.89
  -1  -3   2   40.42    2.07
   1  -3  -2   41.94    2.47
   1   3  -2   33.08    2.39
   0  -3  -2   57.99    3.73
   0  -3   2   54.88    2.43
   0  -3   2   58.82    3.11
   0   3  -2   64.07    3.71
   1  -3   2    2.64    0.22
  -1  -3  -2    2.34    0.30
   1  -3   2    3.52    0.22
  -1  -3  -2    2.83    0.31
   2  -3   2  208.32   10.06
   2  -3   2  197.70    7.87
  -2  -3  -2  193.63   12.06
  -2  -3  -2  199.65   10.15
  -2   3  -2  170.63   12.07
   3  -3   2  202.25    8.23
  -3  -3  -2  204.98   12.62
  -3  -3  -2  208.94   10.61
  -3   3  -2  194.46   12.64
   4  -3   2   62.54    2.67
  -4  -3  -2   62.67    3.44
  -4  -3  -2   64.34    4.07
  -4   3  -2   64.39    4.12
  -5  -3  -2   65.74    3.66
  -5  -3  -2   67.30    4.35
   5  -3   2   65.73    2.86
  -5   3  -2   71.21    4.41
  -6  -3  -2   15.24    1.23
  -6  -3  -2   15.34    1.06
  -6   3  -2   16.42    1.32
  -7  -3  -2    1.45    0.44
  -7  -3  -2    1.19    0.44
  -7   3  -2    1.78    0.53
  -8  -3  -2   11.30    1.13
  -8   3  -2   12.11    1.30
  -9   3  -2    4.67    0.84
 -11  -4   2    1.05    0.70
 -10  -4   2    2.42    0.68
 -10   4   2    2.99    0.80
  -9  -4   2   11.69    1.13
  -9   4   2   13.24    1.29
  -8  -4   2   22.08    1.45
  -8   4   2   19.87    1.71
  -7  -4   2   32.35    1.79
  -7   4   2   24.35    2.00
  -6   4   2   11.30    0.99
  -5  -4   2   50.49    2.77
  -5   4   2   48.45    3.24
  -4  -4   2   15.77    1.04
   4  -4  -2   16.08    0.72
  -4   4   2   16.68    1.20
  -3  -4   2  237.77   11.98
  -3   4   2  220.78   14.26
  -2  -4   2   16.58    1.10
  -2   4   2   20.89    1.31
  -1  -4   2   34.92    1.96
   1  -4  -2   36.73    2.32
   0  -4  -2  273.92   16.53
   0  -4   2  281.69   13.85
   0   4  -2  244.40   16.48
   1  -4   2   66.17    3.47
  -1  -4  -2   65.20    4.15
   1  -4   2   65.19    2.73
  -1  -4  -2   66.41    3.55
   2  -4   2   49.80    2.72
  -2  -4  -2   50.25    2.82
  -2  -4  -2   49.50    3.29
   2  -4   2   48.61    2.16
  -2   4  -2   59.47    3.32
  -3  -4  -2    2.57    0.35
   3  -4   2    2.26    0.23
  -3  -4  -2    1.90    0.33
   3  -4   2    2.51    0.26
  -3   4  -2    2.95    0.39
   4  -4   2   16.57    0.80
  -4  -4  -2   15.82    1.18
  -4  -4  -2   15.99    1.06
  -4   4  -2   15.64    1.23
  -5  -4  -2   21.43    1.33
  -5  -4  -2   20.64    1.49
   5  -4   2   19.95    1.00
  -6  -4  -2   13.98    1.13
   6  -4   2   14.21    0.78
  -6  -4  -2   14.87    1.02
  -6   4  -2   10.33    1.19
  -7  -4  -2   26.12    1.61
  -7   4  -2   23.35    1.95
  -8  -4  -2   12.90    1.11
  -8   4  -2   13.29    1.42
  -9   4  -2    4.46    0.83
 -10  -5   2    4.27    0.82
 -10   5   2    6.02    1.01
  -9  -5   2    6.19    0.85
  -9   5   2    6.05    0.94
  -8  -5   2    4.49    0.70
  -8   5   2    5.33    0.76
  -7  -5   2   14.60    1.11
  -7   5   2   13.89    1.24
  -6  -5   2  140.18    7.59
  -6   5   2  143.56    9.00
  -5  -5   2   37.10    2.22
  -5   5   2   38.95    2.59
  -4  -5   2   48.46    2.61
  -4   5   2   44.43    3.05
  -3  -5   2   88.43    4.74
  -3   5   2   88.34    5.62
  -2   5   2   14.27    1.04
   1  -5  -2   63.37    4.02
  -1  -5   2   62.80    3.39
   0  -5  -2   36.28    2.39
   0  -5   2   36.68    2.02
   0   5  -2   37.11    2.34
  -1  -5  -2   69.20    3.73
   1  -5   2   69.15    2.87
  -1  -5  -2   68.43    4.35
   1  -5   2   69.38    3.65
  -1   5  -2   67.71    4.34
   2  -5   2  108.89    5.50
   2  -5   2  108.14    4.32
  -2  -5  -2  107.16    5.60
  -2  -5  -2  108.49    6.58
  -2   5  -2   90.96    6.58
  -3  -5  -2   94.48    5.26
  -3  -5  -2  101.13    6.19
   3  -5   2   98.00    4.06
  -3   5  -2   98.33    6.23
  -4  -5  -2   64.88    4.19
   4  -5   2   64.30    2.76
  -4  -5  -2   63.03    3.58
  -4   5  -2   67.27    4.24
   5  -5   2   18.75    0.93
  -5  -5  -2   17.14    1.24
  -5   5  -2   17.85    1.45
  -6  -5  -2    7.31    0.84
  -6   5  -2    9.77    1.04
  -7  -5  -2    0.70    0.42
  -7   5  -2    0.82    0.58
  -8  -5  -2    2.14    0.61
  -8   5  -2    2.57    0.73
  -9   5  -2    7.94    1.17
  -9  -6   2    2.18    0.63
  -9   6   2    3.99    0.79
  -8  -6   2    1.90    0.56
  -8   6   2    3.12    0.73
  -7  -6   2   24.68    1.56
  -7   6   2   18.23    1.71
  -6  -6   2   33.43    2.05
  -6   6   2   32.36    2.36
  -5  -6   2    5.74    0.67
  -5   6   2    6.14    0.77
  -4  -6   2    3.32    0.51
  -4   6   2    4.36    0.58
  -3   6   2    8.60    0.79
  -2  -6   2   19.97    1.24
   2  -6  -2   20.06    1.43
   1  -6  -2   33.57    2.25
  -1  -6   2   34.24    1.93
   0  -6  -2   26.48    1.63
   0  -6  -2   27.27    1.83
   0  -6   2   27.55    1.57
   1  -6   2   21.34    1.03
   1  -6   2   21.31    1.28
  -1  -6  -2   21.19    1.50
  -1  -6  -2   20.35    1.35
  -1   6  -2   24.71    1.50
  -2  -6  -2   18.25    1.17
   2  -6   2   18.77    1.05
   2  -6   2   17.70    0.87
  -2   6  -2   15.04    1.25
   3  -6   2   12.08    0.67
  -3  -6  -2   11.43    0.89
  -3   6  -2   11.03    0.96
  -4  -6  -2    2.88    0.49
   4  -6   2    3.65    0.38
   5  -6   2    1.30    0.32
  -5  -6  -2    1.27    0.48
  -5   6  -2    3.45    0.59
  -6  -6  -2   13.54    1.04
  -6   6  -2    9.96    1.17
  -7  -6  -2    4.17    0.65
  -7   6  -2    2.09    0.64
  -8  -6  -2    4.83    0.81
  -8   6  -2    6.14    1.01
  -9  -6  -2    7.51    0.95
  -8  -7   2    7.37    0.87
  -8   7   2    5.74    0.97
  -7  -7   2   26.51    1.84
  -7   7   2   26.41    2.09
  -6  -7   2   11.51    1.08
  -6   7   2   14.72    1.29
  -5  -7   2   24.68    1.61
  -5   7   2   23.34    1.82
  -4  -7   2   60.89    3.40
  -4   7   2   60.04    3.98
  -3   7   2    7.90    0.78
   2  -7  -2   10.37    0.91
  -2  -7   2   10.16    0.84
  -1  -7   2   14.00    0.98
   1  -7  -2   14.77    1.10
   1  -7  -2   13.74    1.01
   0  -7   2    1.85    0.36
   0  -7  -2    2.72    0.48
   1  -7   2   31.83    1.83
   1  -7   2   31.78    1.47
  -1  -7  -2   32.45    1.95
  -2  -7  -2   57.30    3.22
   2  -7   2   56.55    2.45
   3  -7   2   45.62    1.87
  -3  -7  -2   41.83    2.46
  -3   7  -2   37.59    2.78
  -4  -7  -2    7.15    0.82
   4  -7   2    7.61    0.61
  -4   7  -2   10.56    0.96
   5  -7   2    0.92    0.35
  -5  -7  -2    1.10    0.53
  -5   7  -2    1.69    0.54
  -6  -7  -2    4.84    0.71
  -6   7  -2    4.60    0.79
  -7  -7  -2    2.16    0.63
  -7   7  -2    2.26    0.74
  -8  -7  -2    8.72    1.04
  -8   7  -2   10.45    1.40
  -8   8   2    1.05    0.74
  -7  -8   2   10.15    1.19
  -7   8   2   12.73    1.34
  -6  -8   2   10.68    1.12
  -6   8   2   11.55    1.26
  -5  -8   2    5.77    0.77
  -5   8   2    5.26    0.75
  -4  -8   2   -0.06    0.44
  -4   8   2    0.34    0.42
   3  -8  -2    1.86    0.48
  -3  -8   2    1.64    0.49
   2  -8  -2   10.23    0.91
  -2  -8   2   10.16    0.90
   1  -8  -2   23.06    1.51
  -1  -8   2   22.03    1.44
   0  -8   2   11.34    0.88
   0  -8  -2   11.94    0.99
  -1  -8  -2    3.31    0.54
   1  -8   2    3.35    0.41
   2  -8   2    7.03    0.60
  -2  -8  -2    7.11    0.80
  -3  -8  -2    2.17    0.55
   3  -8   2    2.34    0.40
  -4  -8  -2    4.45    0.67
   4  -8   2    4.66    0.50
  -5  -8  -2    8.25    0.94
  -5   8  -2    5.66    0.84
  -6  -8  -2    3.40    0.68
  -6   8  -2    1.41    0.67
  -7  -8  -2    7.01    0.97
  -7   8  -2    7.20    1.06
  -7   9   2    0.69    0.70
  -6  -9   2   10.28    1.20
  -6   9   2   11.56    1.29
  -5  -9   2   12.86    1.21
  -4  -9   2    0.37    0.50
  -3  -9   2    8.28    0.92
   3  -9  -2    8.34    0.88
   2  -9  -2   10.56    0.98
  -2  -9   2   10.57    0.98
   1  -9  -2    5.55    0.72
  -1  -9   2    4.56    0.63
   0  -9  -2    3.51    0.63
  -1  -9  -2    5.14    0.74
   1  -9   2    4.60    0.50
  -2  -9  -2   18.21    1.36
   2  -9   2   17.51    0.99
  -3  -9  -2    2.92    0.69
   3  -9   2    3.00    0.47
  -4  -9  -2    1.57    0.66
   4  -9   2    1.16    0.41
  -5  -9  -2    1.87    0.69
  -5 -10   2    6.94    0.89
  -4 -10   2    3.00    0.65
  -3 -10   2    1.33    0.58
  -2 -10   2    0.32    0.51
   2 -10  -2    0.77    0.49
  -1 -10   2    0.69    0.51
   1 -10  -2    1.07    0.54
   0 -10   2    2.82    0.46
   0 -10  -2    2.71    0.63
  -1 -10  -2   14.72    1.27
   1 -10   2   13.81    0.96
   2 -10   2    0.02    0.42
  -2 -10  -2   -0.29    0.49
  -3 -10  -2    1.19    0.66
   3 -10   2    1.52    0.46
   4 -10   2    1.28    0.45
  -3 -11   2    3.63    0.75
  -2 -11   2    2.56    0.68
   1 -11  -2    2.12    0.64
   0 -11   2    4.66    0.65
   0 -11  -2    4.33    0.76
  -1 -11  -2    4.69    0.83
   1 -11   2    4.47    0.63
 -11   0   3   22.40    1.86
 -10   0   3    1.44    0.56
 -10   0   3    1.13    0.52
  -9   0   3   11.49    1.00
  -9   0   3   10.09    1.04
  -8   0   3   19.22    1.30
  -8   0   3   18.26    1.44
  -7   0   3  193.11   10.26
  -7   0   3  195.67   12.17
  -6   0   3  237.06   12.45
  -6   0   3  237.79   14.78
  -5   0   3   45.01    2.50
  -5   0   3   45.51    2.92
  -4   0   3    0.52    0.06
  -4   0   3    0.46    0.19
  -4   0   3    0.33    0.16
  -3   0   3  111.63    5.94
  -3   0   3  114.16    7.04
  -3   0   3  112.82    4.55
  -2   0   3  240.88   12.61
   2   0  -3  241.63   15.02
  -2   0   3  245.31    9.77
   1   0  -3  462.68   28.19
  -1   0   3  470.64   18.36
  -1   0   3  426.74   23.58
   0   0  -3  940.83   58.45
  -1   0  -3  156.53    9.75
  -2   0  -3    8.97    0.53
  -3   0  -3   49.67    2.64
  -3   0  -3   49.75    3.24
  -4   0  -3   39.13    2.08
  -4   0  -3   37.52    2.57
  -5   0  -3  106.35    6.79
  -6   0  -3   55.31    3.69
  -7   0  -3   25.26    1.93
  -8   0  -3   12.77    1.30
  -9   0  -3   11.19    1.30
 -10   0  -3   -0.20    0.60
 -12   1   3    6.69    1.12
 -11   1   3    3.24    0.78
 -10  -1   3    2.59    0.66
 -10   1   3    4.28    0.73
  -9  -1   3    6.07    0.79
  -9  -1   3    6.91    0.78
  -9   1   3    6.01    0.73
  -9   1   3    6.32    0.82
  -8  -1   3    5.50    0.65
  -8  -1   3    5.30    0.72
  -8   1   3    6.14    0.78
  -8   1   3    7.07    0.72
  -7  -1   3   56.90    3.59
  -7  -1   3   56.76    3.10
  -7   1   3   53.85    3.08
  -7   1   3   53.03    3.61
  -6  -1   3  132.18    6.92
  -6  -1   3  131.33    8.15
  -6   1   3  126.62    8.18
  -6   1   3  130.24    6.91
  -5  -1   3  136.27    8.69
  -5  -1   3  140.70    7.37
  -5   1   3  138.69    8.73
  -5   1   3  142.15    7.36
  -4  -1   3  119.85    7.68
  -4  -1   3  113.33    6.49
  -4   1   3  131.18    7.72
  -4   1   3  128.62    6.50
  -3  -1   3   52.35    2.80
  -3  -1   3   51.84    2.13
  -2  -1   3   32.60    1.80
   2  -1  -3   32.44    2.14
  -2  -1   3   34.74    1.38
  -1  -1   3   52.45    2.17
   1  -1  -3   50.72    3.34
  -1  -1   3   50.61    2.79
   1   1  -3   56.76    3.33
   0  -1   3  107.46    5.51
   0  -1   3  106.63    4.32
   0  -1  -3  106.14    6.62
   0   1  -3  102.89    6.61
  -1  -1  -3  386.67   24.16
   1  -1   3  392.33   15.74
  -1   1  -3  392.29   24.16
  -2  -1  -3  270.11   16.95
   2  -1   3  280.33   11.06
  -2  -1  -3  277.93   14.17
  -2   1  -3  261.10   16.96
  -2   1  -3  275.56   14.12
  -3  -1  -3  198.60   12.65
  -3  -1  -3  195.66   10.55
  -3   1  -3  208.78   12.66
  -3   1  -3  207.68   10.50
  -4  -1  -3   16.19    0.96
  -4  -1  -3   15.98    1.23
  -5  -1  -3    4.75    0.61
  -5  -1  -3    3.59    0.41
  -6  -1  -3    7.96    0.89
  -6   1  -3    8.66    0.88
  -7  -1  -3   12.59    1.22
  -7   1  -3   14.28    1.29
  -8  -1  -3   11.09    1.25
  -8   1  -3   14.22    1.28
  -9  -1  -3   11.43    1.27
  -9   1  -3    9.68    1.29
 -10  -1  -3    2.00    0.75
 -10   1  -3    1.65    0.77
 -11  -2   3    1.00    0.66
 -11   2   3    1.28    0.70
 -10  -2   3    5.36    0.82
 -10   2   3    6.54    0.93
  -9  -2   3   13.03    1.13
  -9   2   3   14.47    1.14
  -9   2   3   16.06    1.37
  -8  -2   3   95.91    6.09
  -8  -2   3   98.86    5.23
  -8   2   3   95.96    5.20
  -8   2   3   91.21    6.14
  -7  -2   3  105.85    5.63
  -7  -2   3  104.39    6.57
  -7   2   3  104.63    5.62
  -7   2   3  101.89    6.64
  -6  -2   3   45.95    2.46
  -6  -2   3   44.35    2.79
  -6   2   3   41.39    2.43
  -6   2   3   40.84    2.85
  -5  -2   3   53.82    3.42
  -5  -2   3   53.26    2.97
  -5   2   3   53.79    3.50
  -5   2   3   55.40    2.97
   4  -2  -3  108.34    4.63
  -4  -2   3  117.31    7.17
  -4  -2   3  112.03    6.09
  -4   2   3  118.98    7.24
  -4   2   3  119.70    6.10
  -3  -2   3  213.99   11.05
   3   2  -3  212.51   13.09
  -3   2   3  208.76   13.16
  -2  -2   3  349.93   18.31
   2  -2  -3  359.19   21.84
  -2  -2   3  353.39   14.20
   2   2  -3  348.76   21.82
  -1  -2   3  318.87   13.49
  -1  -2   3  332.43   17.36
   1  -2  -3  315.38   20.72
   1   2  -3  373.29   20.78
   0  -2   3  293.36   11.04
   0  -2  -3  275.10   16.94
   0  -2   3  285.73   14.18
   0   2  -3  239.52   16.92
   1  -2   3  190.55    7.38
   1  -2   3  185.37    9.40
  -1  -2  -3  182.95   11.31
  -1   2  -3  168.18   11.31
  -2  -2  -3   77.19    4.11
  -2  -2  -3   76.06    4.91
   2  -2   3   78.18    3.22
  -2   2  -3   78.24    4.93
  -3  -2  -3    2.12    0.28
   3  -2   3    1.89    0.25
  -3  -2  -3    1.84    0.32
  -3   2  -3    1.74    0.35
  -4  -2  -3   64.18    4.30
  -4  -2  -3   64.71    3.58
   4  -2   3   66.13    2.83
  -4   2  -3   72.32    4.35
  -5  -2  -3   32.70    1.81
  -5  -2  -3   33.42    2.20
  -5   2  -3   28.46    2.20
  -6  -2  -3   33.70    2.32
  -6  -2  -3   32.10    1.89
  -7  -2  -3   31.43    2.33
  -7   2  -3   33.64    2.38
  -8  -2  -3    6.23    0.80
  -8   2  -3    3.90    0.77
  -9  -2  -3    1.19    0.63
  -9   2  -3    0.84    0.68
 -11  -3   3    6.02    0.92
 -11   3   3    6.25    1.03
 -10  -3   3    6.59    0.87
 -10   3   3    7.76    1.03
  -9  -3   3    1.48    0.55
  -9   3   3    1.41    0.59
  -8  -3   3   19.93    1.47
  -8   3   3   22.73    1.46
  -8   3   3   22.89    1.72
  -7  -3   3   24.20    1.63
  -7   3   3   27.35    1.88
  -6  -3   3  112.56    6.14
  -6   3   3  116.70    7.28
  -5  -3   3  122.54    7.14
  -5  -3   3  119.12    6.11
  -5   3   3  101.71    7.22
  -4  -3   3   94.59    5.44
   4   3  -3  106.29    6.37
  -4   3   3  106.37    6.49
  -3  -3   3   91.10    4.97
  -3   3   3   95.52    5.91
   3   3  -3   94.35    5.80
   2  -3  -3   20.95    1.49
  -2  -3   3   21.51    1.26
   2   3  -3   23.61    1.40
   1  -3  -3   11.32    0.85
  -1  -3   3   12.30    0.72
  -1  -3   3   11.41    0.56
   1   3  -3   12.24    0.81
   0  -3   3   47.80    1.94
   0  -3  -3   48.20    2.97
   0  -3   3   49.72    2.45
   0   3  -3   39.31    2.93
   1  -3   3  354.86   18.45
  -1  -3  -3  348.00   22.09
   1  -3   3  358.35   14.39
  -1   3  -3  365.67   22.10
   2  -3   3  232.92    9.69
  -2  -3  -3  234.25   12.47
  -2  -3  -3  231.74   14.85
  -2   3  -3  256.95   14.88
  -3  -3  -3   52.11    2.84
   3  -3   3   52.16    2.22
  -3  -3  -3   51.45    3.36
   4  -3   3   65.77    2.83
  -4  -3  -3   66.31    3.61
  -4  -3  -3   65.51    4.29
  -4   3  -3   68.88    4.35
  -5  -3  -3   12.34    0.88
  -5  -3  -3   13.39    1.06
   5  -3   3   13.63    0.72
  -5   3  -3    9.37    1.07
  -6  -3  -3    3.81    0.50
  -6  -3  -3    3.46    0.59
  -6   3  -3    4.47    0.70
  -7  -3  -3    6.70    0.89
  -7   3  -3    6.34    0.90
  -8  -3  -3   15.15    1.33
  -8   3  -3   12.82    1.43
  -9   3  -3    8.32    1.14
 -11  -4   3   -0.05    0.64
 -10  -4   3    0.79    0.60
 -10   4   3    0.48    0.67
  -9  -4   3   10.17    1.01
  -9   4   3    7.53    1.02
  -8  -4   3   33.63    2.17
  -8   4   3   35.89    2.50
  -7  -4   3   61.07    3.54
  -7   4   3   64.84    4.18
  -6  -4   3   75.32    4.03
  -6   4   3   71.47    4.76
  -5  -4   3    5.36    0.61
  -5   4   3    5.91    0.64
  -4  -4   3    8.92    0.65
  -4   4   3    6.85    0.70
  -3  -4   3   87.57    5.01
  -3   4   3  100.59    5.96
   2  -4  -3  128.43    8.14
  -2  -4   3  131.52    6.84
  -1  -4   3  191.26    7.48
   1  -4  -3  193.50   11.48
  -1  -4   3  190.60    9.62
   1   4  -3  162.45   11.40
   0  -4   3   73.89    3.21
   0  -4  -3   75.69    4.91
   0  -4   3   75.90    4.09
   0   4  -3   84.94    4.88
   1  -4   3  144.82    6.08
  -1  -4  -3  148.14    7.85
  -1  -4  -3  149.29    9.31
   1  -4   3  153.58    7.76
  -1   4  -3  149.01    9.30
  -2  -4  -3   48.16    2.62
  -2  -4  -3   48.50    3.08
   2  -4   3   51.08    2.49
   2  -4   3   48.25    2.03
  -2   4  -3   40.49    3.07
  -3  -4  -3   11.29    0.89
  -3  -4  -3   11.10    0.79
   3  -4   3   10.52    0.59
  -3   4  -3    9.82    0.90
  -4  -4  -3   11.62    0.90
  -4  -4  -3   12.18    1.02
   4  -4   3   13.52    0.71
  -5  -4  -3   61.07    4.08
   5  -4   3   60.18    2.69
  -5  -4  -3   60.99    3.45
  -5   4  -3   67.95    4.16
  -6  -4  -3   33.21    2.05
  -6  -4  -3   33.77    2.41
   6  -4   3   34.82    1.61
  -6   4  -3   36.04    2.50
  -7  -4  -3    1.02    0.44
  -7   4  -3    2.85    0.66
  -8   4  -3    4.48    0.87
  -9   4  -3    4.80    1.00
 -10  -5   3    2.48    0.65
 -10   5   3    3.77    0.89
  -9  -5   3    2.55    0.63
  -9   5   3    4.73    0.85
  -8  -5   3    7.75    0.83
  -8   5   3    5.15    0.80
  -7  -5   3    2.60    0.51
  -7   5   3    1.62    0.52
  -6  -5   3    7.10    0.75
  -6   5   3    8.78    0.88
  -5  -5   3   93.30    5.36
  -5   5   3  105.20    6.37
  -4  -5   3   83.68    4.60
  -4   5   3   86.51    5.45
  -3  -5   3   68.49    3.36
  -3   5   3   54.68    3.94
   2  -5  -3    9.76    0.80
  -2  -5   3    9.10    0.68
   1  -5  -3   32.63    2.22
  -1  -5   3   34.29    1.87
   0  -5   3   65.59    3.55
   0  -5  -3   66.32    4.25
   0  -5   3   65.17    2.79
   0   5  -3   69.04    4.20
   1  -5   3   40.60    1.85
  -1  -5  -3   41.42    2.42
   1  -5   3   43.56    2.32
  -1  -5  -3   41.35    2.80
  -1   5  -3   48.37    2.80
   2  -5   3   72.56    3.02
  -2  -5  -3   72.18    3.92
  -2  -5  -3   72.53    4.59
  -2   5  -3   70.30    4.59
  -3  -5  -3   43.88    2.56
   3  -5   3   46.64    1.98
  -3  -5  -3   46.62    2.99
  -3   5  -3   44.10    3.00
  -4  -5  -3   16.56    1.17
  -4  -5  -3   17.47    1.32
   4  -5   3   18.12    0.92
   5  -5   3    2.73    0.37
  -5  -5  -3    3.05    0.53
  -5   5  -3    1.47    0.51
   6  -5   3    9.50    0.72
  -6  -5  -3    9.88    0.92
  -6   5  -3    9.64    1.13
  -7  -5  -3    1.24    0.51
  -7   5  -3    0.41    0.62
  -8  -5  -3   10.32    1.07
  -8   5  -3   11.27    1.41
  -9  -6   3    8.62    1.05
  -9   6   3   11.97    1.39
  -8  -6   3    5.85    0.78
  -8   6   3    8.25    1.12
  -7  -6   3   10.55    0.97
  -6  -6   3   32.30    2.05
  -6   6   3   33.36    2.36
  -5  -6   3   61.83    3.31
  -5   6   3   55.19    3.85
  -4  -6   3    4.10    0.52
  -4   6   3    4.33    0.59
  -3  -6   3    5.84    0.62
   3  -6  -3    6.24    0.71
  -2  -6   3   38.54    2.16
   2  -6  -3   37.52    2.54
   1  -6  -3   48.13    3.10
  -1  -6   3   46.53    2.61
   0  -6   3   76.09    3.21
   0  -6  -3   74.12    4.17
   0  -6   3   76.97    4.08
   0  -6  -3   77.87    4.87
   1  -6   3   42.15    1.81
  -1  -6  -3   41.33    2.69
   1  -6   3   40.29    2.24
  -1  -6  -3   39.75    2.35
   2  -6   3   35.71    1.60
  -2  -6  -3   35.40    2.08
  -2  -6  -3   35.13    2.36
  -2   6  -3   35.18    2.37
  -3  -6  -3    3.58    0.53
   3  -6   3    4.10    0.41
  -3   6  -3    3.41    0.52
  -4  -6  -3   19.91    1.42
   4  -6   3   18.91    1.06
  -4   6  -3   23.39    1.63
   5  -6   3   30.06    1.48
  -5  -6  -3   29.79    1.93
  -5   6  -3   31.53    2.26
  -6  -6  -3    7.90    0.84
  -6   6  -3    6.42    0.93
  -7  -6  -3   12.25    1.12
  -7   6  -3   10.95    1.33
  -8  -6  -3    5.58    0.82
  -8   6  -3    4.51    0.94
  -9   7   3    0.60    0.83
  -8  -7   3    1.38    0.61
  -8   7   3    3.24    0.81
  -7  -7   3    3.03    0.63
  -7   7   3    3.94    0.79
  -6  -7   3   11.28    1.12
  -6   7   3   13.36    1.27
  -5  -7   3   26.64    1.73
  -5   7   3   26.11    1.97
  -4  -7   3   12.58    1.01
  -3  -7   3   42.52    2.51
   3  -7  -3   44.97    2.95
   2  -7  -3    9.74    0.89
  -2  -7   3    9.87    0.81
  -1  -7   3    8.97    0.74
   1  -7  -3    8.78    0.84
   0  -7   3   12.78    0.87
   0  -7  -3   12.85    0.98
   0  -7   3   12.74    0.75
   0  -7  -3   12.44    1.02
  -1  -7  -3   16.45    1.18
   1  -7   3   17.08    0.90
   2  -7   3   20.35    1.04
  -2  -7  -3   21.10    1.43
  -3  -7  -3   10.43    0.97
   3  -7   3    9.87    0.69
  -4  -7  -3    8.54    0.95
   4  -7   3    8.54    0.66
   5  -7   3    5.95    0.58
  -5  -7  -3    6.29    0.81
  -5   7  -3    5.96    0.83
  -6  -7  -3    5.48    0.82
  -6   7  -3    6.37    0.92
  -7  -7  -3    5.64    0.79
  -7   7  -3    5.74    0.95
  -8   8   3    5.04    0.94
  -7  -8   3    1.44    0.60
  -7   8   3    0.84    0.62
  -6  -8   3    2.80    0.71
  -6   8   3    5.15    0.81
  -5  -8   3    2.02    0.58
  -5   8   3    2.09    0.57
  -4  -8   3   18.20    1.31
   4  -8  -3   18.86    1.53
  -3  -8   3   20.35    1.37
   3  -8  -3   19.42    1.53
  -2  -8   3   12.99    1.02
   2  -8  -3   13.49    1.15
  -1  -8   3    5.49    0.60
   1  -8  -3    4.60    0.63
   0  -8   3   11.94    0.73
   0  -8  -3   11.14    1.03
  -1  -8  -3   12.11    1.04
   1  -8   3   13.23    0.81
   2  -8   3    1.00    0.37
  -2  -8  -3    0.76    0.50
  -3  -8  -3    3.31    0.66
   3  -8   3    3.07    0.44
   4  -8   3    0.22    0.37
  -4  -8  -3    0.39    0.53
  -5  -8  -3    1.55    0.61
   5  -8   3    1.91    0.46
  -6  -8  -3    7.54    0.96
  -6   8  -3    8.05    1.07
  -7   8  -3    0.34    0.71
  -7   9   3    0.77    0.67
  -6  -9   3    2.98    0.69
   5  -9  -3    2.92    0.70
  -5  -9   3    2.35    0.61
  -4  -9   3   14.30    1.22
  -3  -9   3    6.71    0.77
  -2  -9   3    0.52    0.43
   2  -9  -3    0.62    0.51
  -1  -9   3    3.92    0.50
   1  -9  -3    2.99    0.61
   0  -9  -3    4.26    0.69
   0  -9   3    4.66    0.53
  -1  -9  -3    1.58    0.58
   1  -9   3    1.44    0.41
  -2  -9  -3    1.11    0.58
   2  -9   3    1.10    0.39
  -3  -9  -3   14.77    1.32
   3  -9   3   13.18    0.91
   4  -9   3    5.36    0.60
  -4  -9  -3    5.19    0.85
  -5  -9  -3    1.56    0.69
  -5 -10   3    0.60    0.62
  -4 -10   3   -0.43    0.54
  -3 -10   3    0.47    0.54
   3 -10  -3   -0.25    0.50
   2 -10  -3    2.70    0.66
  -2 -10   3    2.51    0.60
   1 -10  -3    9.81    1.03
  -1 -10   3   11.67    0.89
   0 -10  -3    5.92    0.85
   0 -10   3    7.67    0.70
   1 -10   3    5.44    0.62
  -1 -10  -3    4.68    0.81
   2 -10   3    5.50    0.62
  -2 -10  -3    5.22    0.86
  -3 -10  -3    0.67    0.67
   3 -10   3    0.48    0.43
   4 -10   3    1.69    0.52
  -3 -11   3    1.09    0.61
   2 -11  -3    0.60    0.59
   1 -11  -3    1.94    0.67
   0 -11  -3    0.06    0.58
 -11   0   4    3.57    0.75
 -11   0   4    3.71    0.74
 -10   0   4    0.05    0.51
 -10   0   4    0.19    0.49
  -9   0   4   10.02    0.96
  -9   0   4    8.65    0.96
  -8   0   4   67.54    3.73
  -8   0   4   65.23    4.32
  -7   0   4  131.63    8.30
  -7   0   4  131.49    7.04
  -6   0   4    3.27    0.43
  -6   0   4    2.91    0.41
  -5   0   4   58.47    3.70
  -5   0   4   56.76    3.16
  -4   0   4    1.38    0.25
  -4   0   4    1.60    0.29
  -4   0   4    2.03    0.14
  -3   0   4  548.09   23.23
  -3   0   4  588.35   30.00
   3   0  -4  595.20   35.80
  -2   0   4  336.93   17.20
  -2   0   4  324.59   13.35
   2   0  -4  332.02   20.50
  -1   0   4  668.72   35.59
   1   0  -4  701.62   42.47
  -1   0   4  680.69   27.72
   0   0  -4  318.54   19.74
  -1   0  -4   97.47    6.15
  -2   0  -4   24.27    1.70
  -2   0  -4   25.31    1.35
  -3   0  -4   15.53    1.18
  -3   0  -4   15.69    0.89
  -4   0  -4  266.55   16.65
  -5   0  -4  220.66   13.86
  -6   0  -4   12.31    1.18
  -7   0  -4   33.91    2.49
  -8   0  -4    1.18    0.64
  -9   0  -4   10.51    1.32
 -12   1   4    1.47    0.78
 -11  -1   4   12.13    1.28
 -11   1   4   13.60    1.40
 -10  -1   4   26.64    1.72
 -10   1   4   21.99    1.85
 -10   1   4   21.58    1.64
  -9  -1   4    7.33    0.81
  -9   1   4    5.17    0.73
  -9   1   4    4.79    0.72
  -8  -1   4   44.96    2.60
  -8  -1   4   42.34    2.92
  -8   1   4   44.14    2.56
  -8   1   4   44.43    2.97
  -7  -1   4   14.09    1.05
  -7  -1   4   12.96    1.13
  -7   1   4   17.30    1.21
  -7   1   4   15.44    1.08
  -6  -1   4  139.54    7.82
  -6  -1   4  138.11    9.23
  -6   1   4  154.89    7.84
  -6   1   4  158.10    9.29
  -5  -1   4  176.57    7.06
  -5  -1   4  178.91    9.22
  -5  -1   4  184.67   10.91
  -5   1   4  164.94   10.93
  -5   1   4  169.86    9.21
  -4  -1   4  312.85   16.14
  -4  -1   4  307.70   12.46
  -4   1   4  310.49   16.15
   4   1  -4  308.45   19.18
  -4   1   4  309.32   19.21
  -3  -1   4  191.99   10.40
  -3  -1   4  188.01    8.03
   3  -1  -4  181.75   12.37
  -3   1   4  216.27   10.42
   3   1  -4  217.90   12.36
  -2  -1   4   39.23    2.15
   2  -1  -4   39.76    2.56
  -2  -1   4   40.25    1.66
  -1  -1   4   23.57    1.35
  -1  -1   4   24.52    1.08
   1  -1  -4   24.27    1.63
   1   1  -4   25.16    1.62
   0  -1  -4   41.08    2.62
   0  -1   4   40.96    2.15
   0  -1   4   39.08    1.72
  -1  -1  -4  129.17    8.13
   1  -1   4  130.06    5.32
  -2  -1  -4  326.94   17.24
  -2  -1  -4  324.38   20.63
   2  -1   4  328.43   13.45
  -2   1  -4  336.27   17.19
  -2   1  -4  344.77   20.64
  -3  -1  -4  103.44    5.39
  -3  -1  -4  109.31    6.52
  -3   1  -4   94.64    6.51
  -4  -1  -4   97.09    5.38
  -4  -1  -4  100.23    6.52
  -4   1  -4  109.64    6.55
  -5  -1  -4    8.63    0.90
  -5   1  -4    8.46    0.88
  -6  -1  -4   10.89    1.11
  -6   1  -4   11.70    1.14
  -7   1  -4    4.38    0.77
  -8  -1  -4   10.56    1.10
  -8   1  -4    7.57    1.09
  -9  -1  -4    1.63    0.71
  -9   1  -4    0.72    0.72
 -11  -2   4    0.63    0.66
 -11   2   4    0.44    0.64
 -10  -2   4   16.53    1.31
 -10   2   4   12.26    1.38
  -9  -2   4   10.17    1.04
  -9   2   4    9.71    0.97
  -9   2   4   10.03    1.11
  -8  -2   4    1.38    0.46
  -8   2   4    2.23    0.49
  -8   2   4    1.93    0.52
  -7  -2   4   70.72    4.65
  -7  -2   4   69.29    4.03
  -7   2   4   76.51    4.76
  -7   2   4   75.99    4.04
  -6  -2   4   69.69    4.38
  -6  -2   4   68.46    3.79
  -6   2   4   70.32    4.47
  -6   2   4   67.63    3.78
  -5  -2   4    2.77    0.32
  -5  -2   4    2.77    0.40
  -5   2   4    1.79    0.35
  -5   2   4    1.93    0.38
  -4  -2   4   15.26    0.88
  -4  -2   4   15.29    0.62
   4   2  -4   12.08    0.91
  -4   2   4   11.50    0.99
  -3  -2   4  136.09    7.28
  -3  -2   4  133.81    5.62
   3  -2  -4  135.28    8.67
   3   2  -4  148.86    8.61
  -2  -2   4  378.31   15.54
  -2  -2   4  382.56   20.03
   2  -2  -4  373.78   23.89
   2   2  -4  409.33   23.90
   1  -2  -4  358.62   21.95
  -1  -2   4  379.35   14.29
  -1  -2   4  369.73   18.37
   1   2  -4  309.24   21.91
   0  -2   4  290.73   15.12
   0  -2  -4  287.77   18.11
   0  -2   4  303.00   11.80
   0   2  -4  286.35   18.10
   1  -2   4  250.46   10.88
  -1  -2  -4  267.24   16.70
  -1   2  -4  288.64   16.71
  -2  -2  -4    7.32    0.66
   2  -2   4    6.89    0.44
  -2  -2  -4    7.37    0.52
  -2   2  -4    5.64    0.64
  -3  -2  -4   29.07    1.93
  -3  -2  -4   28.10    1.58
   3  -2   4   28.30    1.28
  -3   2  -4   25.47    1.93
  -4  -2  -4   41.42    2.69
  -4  -2  -4   39.91    2.20
  -4   2  -4   37.15    2.69
  -5  -2  -4  151.64    9.45
  -5  -2  -4  144.38    7.86
  -5   2  -4  151.69    9.47
  -6  -2  -4   69.15    4.50
  -6   2  -4   66.60    4.52
  -7  -2  -4    6.78    0.91
  -7   2  -4    8.34    1.01
  -8  -2  -4    0.52    0.56
  -8   2  -4    2.18    0.73
  -9  -2  -4    1.15    0.68
  -9   2  -4    1.77    0.79
 -11  -3   4    6.14    0.89
 -11   3   4    3.03    0.88
 -10  -3   4    3.71    0.73
 -10   3   4    2.32    0.76
  -9  -3   4   40.05    2.48
  -9   3   4   41.38    2.92
  -8  -3   4    8.48    0.91
  -8   3   4    8.41    1.01
  -7  -3   4   18.11    1.16
  -7   3   4   12.78    1.25
  -6  -3   4   25.96    1.43
  -6   3   4   18.92    1.62
  -5  -3   4  151.67    8.56
  -5   3   4  172.59   10.20
  -4  -3   4  263.48   14.46
  -4   3   4  279.15   17.23
   4   3  -4  287.98   17.13
  -3  -3   4  131.10    6.68
   3  -3  -4  132.93    7.96
  -3  -3   4  130.40    5.16
   3   3  -4  112.67    7.85
  -2  -3   4   27.38    1.18
  -2  -3   4   27.47    1.53
   2  -3  -4   26.48    1.82
  -1  -3   4   11.12    0.57
  -1  -3   4   12.03    0.71
   1  -3  -4   12.05    0.88
   1   3  -4   11.49    0.83
   0  -3   4   37.25    2.01
   0  -3   4   38.94    1.63
   0  -3  -4   38.23    2.47
   0   3  -4   36.87    2.46
   1  -3   4   76.90    4.09
  -1  -3  -4   76.81    5.00
   1  -3   4   75.61    3.27
  -1   3  -4   85.40    5.01
  -2  -3  -4   87.09    4.73
   2  -3   4   84.04    3.69
  -2  -3  -4   87.11    5.63
  -2   3  -4   96.33    5.66
  -3  -3  -4  257.67   13.48
  -3  -3  -4  253.05   16.09
   3  -3   4  266.10   10.51
  -3   3  -4  255.56   16.11
  -4  -3  -4   54.75    3.00
   4  -3   4   54.53    2.38
  -4  -3  -4   53.67    3.60
  -4   3  -4   55.24    3.63
   5  -3   4   26.49    1.33
  -5  -3  -4   27.48    1.65
  -5  -3  -4   28.70    2.01
  -6  -3  -4    6.80    0.86
  -6  -3  -4    5.66    0.64
  -6   3  -4    5.56    0.82
  -7  -3  -4    1.71    0.55
  -7   3  -4    1.94    0.67
  -8  -3  -4   13.26    1.41
  -8   3  -4   17.79    1.61
  -9   3  -4    8.40    1.26
 -11  -4   4    3.40    0.84
 -10  -4   4    2.89    0.69
 -10   4   4    3.29    0.85
  -9  -4   4   13.08    1.14
  -9   4   4   12.77    1.38
  -8  -4   4   18.78    1.34
  -8   4   4   16.43    1.52
  -7  -4   4   22.05    1.73
  -7   4   4   33.45    2.08
  -6  -4   4   66.64    3.86
  -6   4   4   73.17    4.58
  -5  -4   4   10.89    0.84
  -4  -4   4   20.42    1.29
  -4   4   4   22.09    1.54
  -3  -4   4   16.14    1.02
   3  -4  -4   16.10    1.21
  -2  -4   4  214.06   11.24
  -2  -4   4  214.51    8.73
   2  -4  -4  216.38   13.41
   2   4  -4  215.72   13.32
   1  -4  -4  257.31   16.04
  -1  -4   4  254.10   13.41
  -1  -4   4  258.95   10.44
   1   4  -4  260.84   15.97
   0  -4  -4  119.20    7.74
   0  -4   4  124.49    5.06
   0  -4   4  124.01    6.45
   0   4  -4  125.58    7.72
   1  -4   4   32.74    1.76
  -1  -4  -4   33.25    2.21
   1  -4   4   32.94    1.46
  -2  -4  -4    7.09    0.69
  -2  -4  -4    6.75    0.63
   2  -4   4    7.56    0.48
  -2   4  -4    7.68    0.71
  -3  -4  -4   34.77    1.97
   3  -4   4   35.70    1.55
  -3  -4  -4   35.74    2.32
  -3   4  -4   29.74    2.31
  -4  -4  -4   63.45    4.18
  -4  -4  -4   62.17    3.51
   4  -4   4   60.58    2.75
  -4   4  -4   69.50    4.24
  -5  -4  -4   34.68    2.56
   5  -4   4   34.54    1.72
  -5  -4  -4   35.68    2.16
  -5   4  -4   43.98    2.66
  -6  -4  -4   39.27    2.31
  -6  -4  -4   39.79    2.75
   6  -4   4   42.75    1.85
  -6   4  -4   35.67    2.81
  -7   4  -4   10.03    1.24
  -8   4  -4    1.21    0.71
 -10  -5   4    5.09    0.80
 -10   5   4    4.80    0.99
  -9  -5   4    8.01    0.96
  -9   5   4    9.04    1.24
  -8  -5   4    0.48    0.51
  -8   5   4    0.40    0.59
  -7  -5   4    1.85    0.52
  -7   5   4    2.05    0.62
  -6  -5   4   14.07    1.05
  -5  -5   4   66.37    3.61
  -5   5   4   63.71    4.25
  -4  -5   4   14.35    1.02
   3  -5  -4   37.09    2.39
  -3  -5   4   33.02    2.00
   2  -5  -4   36.99    2.52
  -2  -5   4   38.28    2.14
  -2  -5   4   39.05    1.67
  -1  -5   4    7.69    0.48
   1  -5  -4    7.05    0.69
  -1  -5   4    6.56    0.55
   0  -5  -4   39.92    2.70
   0  -5   4   41.93    2.23
  -1  -5  -4   28.94    1.92
  -1  -5  -4   30.22    1.71
   1  -5   4   28.22    1.29
  -1   5  -4   25.18    1.88
  -2  -5  -4   55.06    3.74
   2  -5   4   56.42    2.47
  -2  -5  -4   54.07    3.20
  -2   5  -4   64.27    3.77
  -3  -5  -4   38.86    2.30
   3  -5   4   39.71    1.78
  -3  -5  -4   39.28    2.66
  -3   5  -4   39.70    2.68
   4  -5   4   21.36    1.14
  -4  -5  -4   22.56    1.49
  -4  -5  -4   22.08    1.69
  -4   5  -4   26.45    1.79
  -5  -5  -4   19.86    1.35
   5  -5   4   21.50    1.07
  -5   5  -4   16.98    1.58
   6  -5   4    8.35    0.73
  -6  -5  -4    8.54    0.89
  -6   5  -4    8.86    1.02
  -7  -5  -4   13.05    1.14
  -7   5  -4   14.85    1.51
  -8   5  -4    1.13    0.76
  -9  -6   4    6.01    0.86
  -9   6   4    5.26    1.00
  -8  -6   4   34.75    2.28
  -8   6   4   36.71    2.71
  -7  -6   4    7.25    0.85
  -7   6   4    7.94    1.07
  -6  -6   4    4.20    0.64
  -6   6   4    5.89    0.80
  -5  -6   4   10.24    0.98
  -5   6   4   13.47    1.13
   4  -6  -4    0.68    0.37
  -4  -6   4    0.55    0.34
  -3  -6   4   64.99    3.58
   3  -6  -4   65.24    4.24
  -2  -6   4  113.38    4.68
  -2  -6   4  114.82    6.01
   2  -6  -4  110.68    7.15
   1  -6  -4   73.59    4.58
  -1  -6   4   69.42    3.00
  -1  -6   4   70.05    3.82
   0  -6  -4   60.11    3.94
   0  -6   4   59.76    3.27
   0  -6   4   62.55    2.61
  -1  -6  -4   25.81    1.81
   1  -6   4   25.39    1.24
  -1  -6  -4   26.61    1.64
   2  -6   4    0.30    0.28
  -2  -6  -4    0.31    0.33
  -2  -6  -4   -0.10    0.36
  -2   6  -4    0.33    0.30
   3  -6   4   20.51    1.09
  -3  -6  -4   20.30    1.43
  -3   6  -4   21.94    1.60
  -4  -6  -4   21.48    1.41
   4  -6   4   20.97    1.08
  -4   6  -4   16.87    1.55
  -5  -6  -4   10.33    0.98
   5  -6   4    9.68    0.74
  -5   6  -4    8.86    1.11
  -6  -6  -4   25.60    1.76
   6  -6   4   24.70    1.37
  -6   6  -4   28.10    2.14
  -7  -6  -4    3.82    0.68
  -7   6  -4    3.41    0.82
  -9   7   4    2.44    0.95
  -8  -7   4    1.01    0.55
  -8   7   4   -0.28    0.63
  -7  -7   4    2.53    0.59
  -7   7   4    1.90    0.67
  -6  -7   4    2.32    0.59
  -6   7   4    4.06    0.69
  -5  -7   4   19.92    1.43
  -4  -7   4    6.95    0.80
   4  -7  -4    6.83    0.87
   3  -7  -4   22.07    1.68
  -3  -7   4   22.86    1.45
  -2  -7   4   14.46    0.82
   2  -7  -4   14.18    1.20
  -2  -7   4   14.58    1.01
  -1  -7   4    0.88    0.31
  -1  -7   4    0.84    0.31
   1  -7  -4    0.86    0.38
   0  -7  -4    9.64    0.93
   0  -7   4    9.74    0.64
   0  -7  -4   10.11    0.92
   1  -7   4    3.68    0.43
  -1  -7  -4    3.36    0.55
  -2  -7  -4   12.28    1.01
   2  -7   4   11.36    0.77
   3  -7   4   21.54    1.12
  -3  -7  -4   21.23    1.52
   4  -7   4    2.77    0.46
  -4  -7  -4    2.02    0.54
  -4   7  -4    2.61    0.59
  -5  -7  -4    3.96    0.71
   5  -7   4    4.10    0.52
  -5   7  -4    2.60    0.67
  -6  -7  -4    2.26    0.66
  -6   7  -4    2.41    0.74
  -7  -7  -4    5.28    0.87
  -7   7  -4    6.18    1.00
  -8   8   4    4.52    0.94
  -7  -8   4    1.41    0.63
  -7   8   4    1.44    0.66
  -6  -8   4    1.62    0.57
   5  -8  -4    1.82    0.62
  -5  -8   4    1.48    0.58
   4  -8  -4    5.73    0.79
  -4  -8   4    5.17    0.72
   3  -8  -4    5.53    0.72
  -3  -8   4    5.12    0.63
  -2  -8   4    7.26    0.75
  -2  -8   4    9.04    0.68
   2  -8  -4    8.11    0.92
  -1  -8   4   59.61    2.54
   1  -8  -4   54.81    3.29
   0  -8   4   10.51    0.76
   0  -8  -4   11.03    0.99
   1  -8   4    1.61    0.40
  -1  -8  -4    0.88    0.47
  -2  -8  -4    5.03    0.71
   2  -8   4    4.80    0.52
  -3  -8  -4    0.35    0.52
   3  -8   4    0.54    0.38
  -4  -8  -4    1.93    0.66
   4  -8   4    2.09    0.49
  -5  -8  -4    2.48    0.69
   5  -8   4    3.91    0.59
  -6  -8  -4    3.63    0.78
   6  -9  -4    0.01    0.59
  -6  -9   4    0.26    0.58
   5  -9  -4    1.36    0.61
  -5  -9   4    1.35    0.56
   4  -9  -4    5.47    0.79
  -4  -9   4    4.87    0.74
  -3  -9   4    1.93    0.53
   2  -9  -4    4.16    0.70
  -2  -9   4    5.25    0.54
   1  -9  -4    0.33    0.47
  -1  -9   4    0.63    0.37
   0  -9   4   12.81    0.89
   0  -9  -4   11.57    1.17
  -1  -9  -4    6.50    0.83
   1  -9   4    6.85    0.64
   2  -9   4    3.68    0.52
  -2  -9  -4    3.29    0.67
  -3  -9  -4    1.63    0.65
   3  -9   4    1.06    0.44
   4  -9   4    0.05    0.42
  -4  -9  -4    0.22    0.66
  -5 -10   4    2.63    0.76
  -4 -10   4   -0.33    0.53
  -3 -10   4    4.44    0.58
   3 -10  -4    4.92    0.81
  -3 -10   4    4.69    0.72
  -2 -10   4    6.87    0.71
   2 -10  -4    6.01    0.82
  -1 -10   4    3.03    0.54
   1 -10  -4    3.06    0.67
   0 -10   4    2.45    0.49
   0 -10  -4    3.06    0.73
  -1 -10  -4    5.76    0.83
   1 -10   4    5.20    0.60
  -2 -10  -4    1.33    0.68
   2 -10   4    1.79    0.50
   3 -10   4    1.82    0.55
 -11   0   5    6.92    0.97
 -10   0   5   23.03    1.85
 -10   0   5   22.73    1.67
  -9   0   5   33.42    2.10
  -9   0   5   33.22    2.38
  -8   0   5    6.63    0.81
  -8   0   5    6.63    0.75
  -7   0   5   10.86    0.95
  -7   0   5    9.87    0.89
  -6   0   5   26.58    1.83
  -6   0   5   26.46    1.62
  -5   0   5    6.49    0.57
   5   0  -5    6.20    0.61
   4   0  -5   17.88    1.23
  -4   0   5   17.59    1.09
  -4   0   5   17.32    0.77
  -3   0   5   40.41    2.18
   3   0  -5   39.52    2.54
  -3   0   5   37.86    1.65
  -2   0   5  197.27    8.17
  -2   0   5  199.35   10.51
   2   0  -5  207.61   12.54
   1   0  -5  187.47   11.69
   0   0  -5  119.47    7.51
  -1   0  -5  189.92   11.87
  -2   0  -5    3.43    0.30
  -2   0  -5    3.29    0.47
  -3   0  -5    6.01    0.68
  -4   0  -5    1.57    0.48
  -5   0  -5  167.84   10.63
  -6   0  -5   73.08    4.86
  -7   0  -5    3.39    0.73
  -8   0  -5   -0.38    0.58
  -9   0  -5   -0.32    0.65
 -12  -1   5    2.39    0.80
 -12   1   5    3.48    0.88
 -11  -1   5   28.26    1.83
 -11   1   5   20.48    1.96
 -11   1   5   21.59    1.74
 -10  -1   5   10.81    1.21
 -10   1   5   14.46    1.25
 -10   1   5   13.12    1.31
  -9  -1   5    4.03    0.65
  -9  -1   5    4.74    0.75
  -9   1   5    7.02    0.81
  -9   1   5    5.62    0.78
  -8  -1   5   52.91    3.55
  -8  -1   5   53.85    3.11
  -8   1   5   53.19    3.11
  -8   1   5   55.99    3.62
  -7  -1   5    0.04    0.33
  -7   1   5    1.72    0.43
  -7   1   5    1.11    0.40
  -6  -1   5   64.30    3.78
  -6  -1   5   63.52    3.27
  -6   1   5   47.74    3.23
  -5  -1   5  122.13    5.19
  -5   1   5  130.89    6.81
   5   1  -5  131.26    8.02
   4  -1  -5  303.16   19.98
  -4  -1   5  317.69   12.98
   4   1  -5  334.65   19.95
  -4   1   5  332.51   16.80
  -3  -1   5  396.07   15.65
   3  -1  -5  387.24   24.06
  -3  -1   5  394.17   20.18
  -3   1   5  381.24   20.19
   3   1  -5  383.31   24.03
  -2  -1   5   13.98    0.78
   2  -1  -5   11.96    0.92
  -2  -1   5   12.52    0.61
   2   1  -5   11.03    0.88
   1  -1  -5   88.76    5.65
  -1  -1   5   91.01    4.71
  -1  -1   5   88.40    3.70
   1   1  -5   89.41    5.64
   0  -1   5   54.04    2.44
   0  -1  -5   53.07    3.69
   0   1  -5   65.60    3.72
  -1  -1  -5  185.09   11.60
   1  -1   5  185.76    7.58
  -2  -1  -5  175.24    9.00
  -2  -1  -5  176.85   10.81
  -2   1  -5  164.34   10.80
  -3  -1  -5  132.68    7.40
  -3  -1  -5  134.48    8.92
  -3   1  -5  157.28    8.96
  -4  -1  -5  147.42    9.00
  -4   1  -5  136.06    8.98
  -5  -1  -5    8.08    0.92
  -5   1  -5    6.71    0.91
  -6  -1  -5   10.65    1.15
  -6   1  -5   10.07    1.15
  -7  -1  -5   10.93    1.17
  -7   1  -5    6.71    1.02
  -8  -1  -5   35.02    2.87
  -8   1  -5   44.38    2.99
  -9  -1  -5    7.15    1.08
 -11  -2   5    3.71    0.81
 -11   2   5    2.53    0.81
 -10  -2   5    2.59    0.67
 -10   2   5    4.36    0.75
 -10   2   5    4.21    0.82
  -9  -2   5   18.80    1.45
  -9   2   5   18.15    1.59
  -9   2   5   18.14    1.39
  -8   2   5   35.42    2.53
  -8   2   5   36.96    2.22
  -7  -2   5   17.79    1.31
  -7  -2   5   17.52    1.40
  -7   2   5   22.75    1.56
  -7   2   5   22.48    1.35
  -6  -2   5   12.62    0.98
  -6   2   5   13.79    1.03
  -6   2   5   14.67    1.17
   6   2  -5   15.32    1.05
  -5  -2   5    7.32    0.61
  -5  -2   5    7.25    0.38
  -5   2   5    6.09    0.62
   5   2  -5    6.25    0.56
  -4  -2   5   14.73    0.95
  -4  -2   5   14.26    0.67
   4  -2  -5   14.28    1.10
  -3  -2   5   54.72    3.10
   3  -2  -5   55.75    3.69
  -3  -2   5   55.89    2.39
   3   2  -5   62.94    3.64
  -2  -2   5  188.11    9.49
  -2  -2   5  185.70    7.37
   2  -2  -5  183.40   11.33
   2   2  -5  169.04   11.28
  -1  -2   5  229.29    9.30
  -1  -2   5  222.41   11.92
   1  -2  -5  226.19   14.27
   1   2  -5  239.35   14.26
   0  -2  -5  139.95    9.33
   0  -2   5  142.37    7.75
   0  -2   5  144.27    6.10
   0   2  -5  169.82    9.35
  -1  -2  -5   69.23    4.32
   1  -2   5   64.48    2.83
  -1   2  -5   67.71    4.32
   2  -2   5   29.12    1.34
  -2  -2  -5   29.12    1.64
  -2  -2  -5   28.71    2.00
  -2   2  -5   27.96    1.99
  -3  -2  -5   11.85    1.02
   3  -2   5   12.69    0.73
  -3  -2  -5   12.06    0.81
  -4  -2  -5   63.48    4.06
  -4  -2  -5   64.82    3.34
  -4   2  -5   55.63    4.06
  -5  -2  -5  147.40   10.02
  -5   2  -5  169.23   10.08
  -6  -2  -5   44.83    3.18
  -6   2  -5   46.62    3.22
  -7  -2  -5   34.71    2.45
  -7   2  -5   29.61    2.45
  -8  -2  -5    1.54    0.65
  -8   2  -5    1.64    0.69
  -9  -2  -5    5.28    0.97
 -11  -3   5    7.46    1.06
 -11   3   5    7.88    1.14
 -10  -3   5    1.63    0.60
 -10   3   5    1.17    0.70
  -9  -3   5   18.58    1.41
  -9   3   5   16.04    1.56
  -8  -3   5    7.83    0.81
  -8   3   5    5.41    0.82
  -7   3   5    9.03    0.93
  -6  -3   5   39.71    2.63
  -6   3   5   53.75    3.15
  -5  -3   5  114.54    6.12
  -5  -3   5  114.55    4.69
  -4  -3   5  151.67    6.16
   4  -3  -5  152.78    9.52
  -4  -3   5  149.68    7.99
  -3  -3   5  142.13    5.99
   3  -3  -5  140.90    9.22
  -3  -3   5  141.50    7.73
   3   3  -5  163.30    9.15
  -2  -3   5   21.00    1.17
   2  -3  -5   21.09    1.42
  -2  -3   5   21.28    0.93
   2   3  -5   17.34    1.34
  -1  -3   5   32.61    1.87
  -1  -3   5   33.74    1.51
   1  -3  -5   33.97    2.30
   1   3  -5   37.44    2.26
   0  -3   5   50.65    2.67
   0  -3  -5   55.03    3.30
   0  -3   5   54.63    2.17
   0   3  -5   42.28    3.25
  -1  -3  -5   97.23    5.89
   1  -3   5   98.94    3.87
  -1   3  -5   81.50    5.86
  -2  -3  -5   99.65    5.33
   2  -3   5   94.21    4.17
  -2  -3  -5   97.66    6.36
  -2   3  -5  108.39    6.40
  -3  -3  -5   51.18    3.25
  -3  -3  -5   51.68    2.71
   3  -3   5   49.79    2.16
  -3   3  -5   41.80    3.23
   4  -3   5   57.94    2.69
  -4  -3  -5   60.52    4.08
  -4  -3  -5   59.25    3.39
  -4   3  -5   69.93    4.13
  -5  -3  -5   60.58    3.38
  -5  -3  -5   60.02    4.08
  -5   3  -5   63.04    4.11
  -6  -3  -5   11.51    1.22
  -6   3  -5   13.46    1.33
  -7  -3  -5   10.61    1.26
  -7   3  -5   11.52    1.37
  -8  -3  -5    0.18    0.60
  -8   3  -5   -0.10    0.71
 -10  -4   5    6.52    0.92
 -10   4   5    4.42    0.87
  -9  -4   5    7.55    0.96
  -9   4   5   10.62    1.24
  -8  -4   5   12.24    1.09
  -8   4   5   10.28    1.21
  -7  -4   5   38.28    2.22
  -7   4   5   35.59    2.61
  -6  -4   5   15.80    1.02
  -6   4   5   10.79    1.15
  -5  -4   5   10.65    0.57
  -5  -4   5    9.87    0.84
  -4  -4   5    5.65    0.40
  -4  -4   5    5.37    0.58
   3  -4  -5   80.44    5.20
  -3  -4   5   80.84    3.38
  -3  -4   5   82.55    4.37
  -2  -4   5  118.29    5.06
   2  -4  -5  124.00    7.78
  -2  -4   5  127.75    6.51
   1  -4  -5   49.85    3.26
  -1  -4   5   50.67    2.69
  -1  -4   5   49.09    2.13
   0  -4  -5  114.91    6.81
   0  -4   5  115.29    5.63
   0   4  -5   92.07    6.75
  -1  -4  -5   35.89    2.59
   1  -4   5   35.88    1.71
  -1   4  -5   44.59    2.61
   2  -4   5   10.08    0.64
  -2  -4  -5   10.00    0.80
  -2  -4  -5   11.99    0.97
  -2   4  -5   10.81    0.94
  -3  -4  -5   19.53    1.60
   3  -4   5   21.24    1.10
  -3  -4  -5   20.97    1.37
  -3   4  -5   25.01    1.67
  -4  -4  -5   41.74    2.83
  -4  -4  -5   40.56    2.36
   4  -4   5   42.61    1.89
  -4   4  -5   39.02    2.84
  -5  -4  -5   23.10    1.46
  -5  -4  -5   22.61    1.76
   5  -4   5   22.91    1.20
  -5   4  -5   20.87    1.79
  -6  -4  -5   34.59    2.48
  -6   4  -5   33.32    2.52
  -7  -4  -5   15.06    1.43
  -7   4  -5   13.67    1.54
  -8   4  -5    0.86    0.76
 -10  -5   5    3.73    0.82
 -10   5   5    3.04    0.89
  -9  -5   5    5.02    0.77
  -9   5   5    5.88    0.96
  -8  -5   5    5.54    0.77
  -8   5   5    5.77    0.83
  -7  -5   5    5.94    0.70
  -7   5   5    4.01    0.69
  -6   5   5   15.77    1.31
  -5  -5   5   36.63    2.17
  -4  -5   5   77.86    4.24
   4  -5  -5   77.23    5.05
  -4  -5   5   78.74    3.27
  -3  -5   5   52.06    2.24
   3  -5  -5   53.71    3.45
  -3  -5   5   50.97    2.88
  -2  -5   5   40.30    1.74
   2  -5  -5   39.25    2.65
  -2  -5   5   38.90    2.20
   1  -5  -5    4.00    0.53
  -1  -5   5    4.16    0.42
  -1  -5   5    4.31    0.38
   0  -5  -5   40.75    2.63
   0  -5   5   41.88    1.75
   0   5  -5   35.46    2.56
  -1  -5  -5   47.12    3.09
   1  -5   5   47.98    2.04
  -1   5  -5   43.90    3.04
   2  -5   5   46.20    2.02
  -2  -5  -5   45.79    3.03
  -2  -5  -5   46.86    2.59
  -2   5  -5   41.68    3.00
  -3  -5  -5  100.91    5.61
  -3  -5  -5  105.05    6.66
   3  -5   5  104.06    4.38
  -3   5  -5  105.62    6.68
  -4  -5  -5   47.13    2.86
  -4  -5  -5   46.80    3.37
   4  -5   5   47.64    2.25
  -4   5  -5   58.83    3.47
   5  -5   5    6.88    0.63
  -5  -5  -5    7.20    0.91
  -5  -5  -5    5.81    0.73
  -5   5  -5    6.75    0.90
  -6  -5  -5    2.37    0.57
   6  -5   5    1.94    0.44
  -6   5  -5    0.77    0.64
  -7   5  -5    2.73    0.80
  -9  -6   5    1.81    0.61
  -9   6   5    1.94    0.77
  -8  -6   5    9.27    1.07
  -8   6   5    8.20    1.09
  -7  -6   5    5.27    0.75
  -7   6   5    2.99    0.71
  -6  -6   5    2.57    0.55
   5  -6  -5    1.60    0.54
  -5  -6   5    2.51    0.51
  -4  -6   5   62.79    3.49
   4  -6  -5   63.29    4.14
  -4  -6   5   61.97    2.69
  -3  -6   5   20.72    1.36
   3  -6  -5   22.00    1.63
  -3  -6   5   22.45    1.07
  -2  -6   5    4.00    0.47
  -2  -6   5    3.96    0.41
   2  -6  -5    4.29    0.60
  -1  -6   5   47.22    2.09
  -1  -6   5   48.64    2.63
   1  -6  -5   46.80    3.17
   0  -6   5   15.68    0.87
   0  -6  -5   16.06    1.26
   1  -6   5    8.70    0.66
  -1  -6  -5   10.10    0.91
  -1  -6  -5    9.03    0.88
  -2  -6  -5    0.26    0.42
   2  -6   5    0.26    0.31
  -2  -6  -5    0.28    0.38
  -2   6  -5    0.14    0.34
  -3  -6  -5   19.29    1.52
  -3  -6  -5   19.69    1.38
   3  -6   5   19.79    1.03
  -3   6  -5   17.15    1.51
   4  -6   5   13.25    0.90
  -4  -6  -5   15.34    1.18
  -4   6  -5   14.47    1.32
  -5  -6  -5   11.23    1.06
   5  -6   5   10.56    0.81
   6  -6   5    6.84    0.69
  -6  -6  -5    8.48    0.97
  -6   6  -5    6.93    1.02
  -7   6  -5   -0.15    0.69
  -8  -7   5    4.50    0.81
  -8   7   5    4.87    0.87
  -7  -7   5    9.66    1.07
  -6  -7   5   10.61    1.03
   6  -7  -5   10.44    1.13
   5  -7  -5   10.12    1.14
  -5  -7   5   10.53    0.98
  -4  -7   5   23.87    1.57
  -4  -7   5   23.32    1.18
   4  -7  -5   24.23    1.83
  -3  -7   5   10.50    0.90
   3  -7  -5   10.58    1.07
  -3  -7   5   10.37    0.68
   2  -7  -5    5.93    0.80
  -2  -7   5    5.74    0.52
  -2  -7   5    5.92    0.68
  -1  -7   5   12.54    0.75
   1  -7  -5   12.12    1.12
   0  -7  -5    2.15    0.49
   0  -7   5    2.32    0.38
   0  -7  -5    2.69    0.56
  -1  -7  -5   29.23    2.12
   1  -7   5   29.89    1.45
  -1  -7  -5   30.02    1.91
   2  -7   5   28.71    1.42
  -2  -7  -5   27.71    1.85
   3  -7   5   25.84    1.38
  -3  -7  -5   27.12    1.80
  -4  -7  -5    5.62    0.80
   4  -7   5    5.23    0.59
   5  -7   5    0.64    0.42
  -5  -7  -5    0.73    0.52
  -5   7  -5    0.97    0.63
  -6  -7  -5    6.23    0.87
  -6   7  -5    2.79    0.83
   7  -8  -5    6.46    1.00
  -7  -8   5    5.16    0.79
   6  -8  -5    2.91    0.74
  -6  -8   5    1.43    0.60
  -5  -8   5    0.44    0.48
   5  -8  -5    0.74    0.55
  -4  -8   5    0.36    0.44
   4  -8  -5    0.80    0.52
  -4  -8   5    0.87    0.35
   3  -8  -5    9.20    1.03
  -3  -8   5    9.53    0.90
  -3  -8   5    8.55    0.73
   2  -8  -5   21.62    1.70
  -2  -8   5   21.58    1.17
   1  -8  -5    8.10    0.89
  -1  -8   5    7.25    0.64
   0  -8  -5    1.79    0.54
   0  -8   5    1.95    0.42
   1  -8   5    7.13    0.64
  -1  -8  -5    8.82    0.93
   2  -8   5    4.17    0.55
  -2  -8  -5    4.83    0.72
  -3  -8  -5    9.83    1.15
   3  -8   5   12.24    0.89
  -4  -8  -5    2.86    0.66
   4  -8   5    2.61    0.52
   5  -8   5    1.63    0.51
  -5  -8  -5    1.04    0.66
   7  -9  -5    4.16    0.93
  -6  -9   5   11.38    1.13
   6  -9  -5   11.89    1.36
   5  -9  -5    9.44    1.19
  -5  -9   5    9.23    1.02
  -4  -9   5    0.51    0.53
  -4  -9   5   -0.20    0.40
   4  -9  -5   -0.34    0.52
  -3  -9   5   -0.15    0.50
  -3  -9   5   -0.25    0.40
  -2  -9   5    7.86    0.70
   1  -9  -5    0.47    0.56
  -1  -9   5    0.09    0.39
   0  -9  -5    1.49    0.63
   0  -9   5    2.31    0.49
   1  -9   5    2.92    0.49
  -1  -9  -5    2.96    0.67
   2  -9   5    5.40    0.63
  -2  -9  -5    5.76    0.88
  -3  -9  -5    6.65    0.96
   3  -9   5    5.71    0.67
   4  -9   5    1.27    0.53
  -5 -10   5    2.63    0.74
  -4 -10   5    3.30    0.77
  -4 -10   5    3.06    0.59
  -3 -10   5    1.06    0.51
   3 -10  -5    1.45    0.66
   2 -10  -5    2.85    0.74
  -2 -10   5    2.64    0.50
  -1 -10   5    2.58    0.55
   1 -10  -5    2.37    0.73
   0 -10  -5   -0.34    0.62
   0 -10   5   -0.14    0.47
   1 -10   5    1.71    0.51
  -1 -10  -5    1.97    0.74
 -12   0   6    0.51    0.77
 -11   0   6    2.69    0.76
 -10   0   6   -0.06    0.57
 -10   0   6    0.09    0.50
  -9   0   6   13.65    1.26
  -9   0   6   14.25    1.23
  -8   0   6   12.27    1.07
  -8   0   6   11.67    1.00
  -7   0   6   26.37    1.68
  -6   0   6   46.67    2.67
   6   0  -6   47.23    3.09
   5   0  -6    8.38    0.75
  -5   0   6    8.87    0.72
   4   0  -6    1.11    0.27
  -4   0   6    1.06    0.27
   3   0  -6  105.48    6.72
  -3   0   6  107.86    5.66
  -2   0   6  295.87   15.17
   2   0  -6  286.62   18.09
   1   0  -6   68.87    4.42
   0   0  -6    9.33    0.81
  -1   0  -6   31.17    2.15
  -2   0  -6    0.13    0.33
  -3   0  -6   36.77    2.57
  -4   0  -6    9.87    1.05
  -5   0  -6    0.97    0.55
  -6   0  -6   59.14    4.06
  -7   0  -6   27.11    2.20
  -8   0  -6    9.32    1.23
 -12   1   6   14.25    1.48
 -11  -1   6   17.94    1.64
 -11   1   6   22.57    1.70
 -11   1   6   19.97    1.78
 -10  -1   6    5.98    0.91
 -10   1   6    8.53    1.02
 -10   1   6    7.87    1.06
  -9  -1   6   23.95    1.61
  -9   1   6   19.38    1.51
  -9   1   6   21.17    1.71
  -8  -1   6   39.33    2.30
  -8  -1   6   37.27    2.52
  -8   1   6   36.15    2.25
  -8   1   6   35.42    2.57
  -7  -1   6   81.75    4.22
   7   1  -6   74.25    4.87
  -7   1   6   74.62    4.20
  -7   1   6   73.26    4.90
   6  -1  -6  106.84    7.09
  -6  -1   6  107.65    6.01
  -6   1   6  117.33    6.04
   6   1  -6  115.83    7.06
   5  -1  -6   92.75    5.94
  -5  -1   6   94.45    5.03
   5   1  -6   94.99    5.90
  -5   1   6   91.15    5.03
  -4  -1   6  146.63    5.96
  -4  -1   6  151.71    7.74
   4  -1  -6  140.95    9.17
  -3  -1   6   98.45    5.12
  -3  -1   6   94.77    3.96
   3  -1  -6   95.79    6.09
   3   1  -6   95.61    6.06
  -2  -1   6   29.71    1.69
  -2  -1   6   29.62    1.34
   2  -1  -6   28.97    2.03
   2   1  -6   32.26    2.02
  -1  -1   6    6.72    0.44
  -1  -1   6    6.82    0.47
   1  -1  -6    6.79    0.62
   1   1  -6    4.92    0.59
   0  -1   6  214.17    8.64
   0  -1  -6  215.30   13.22
   0   1  -6  205.18   13.21
  -1  -1  -6  156.31   10.35
   1  -1   6  168.00    6.79
  -1   1  -6  170.63   10.37
  -2  -1  -6  160.66   10.41
  -2   1  -6  170.06   10.43
  -3  -1  -6  144.39    8.64
  -3   1  -6  127.27    8.62
  -4  -1  -6   47.27    3.34
  -4   1  -6   51.39    3.38
  -5  -1  -6   25.86    2.03
  -5   1  -6   27.76    2.06
  -6  -1  -6   31.34    2.41
  -6   1  -6   31.98    2.39
  -7  -1  -6   19.13    1.73
  -7   1  -6   17.72    1.71
  -8  -1  -6   17.26    1.62
  -8   1  -6   13.15    1.54
 -11  -2   6    5.24    0.92
 -11   2   6    4.34    0.88
 -11   2   6    5.70    0.88
 -10  -2   6    7.96    0.98
 -10   2   6    7.24    0.94
 -10   2   6    7.45    1.02
  -9  -2   6   14.46    1.18
  -9   2   6   12.42    1.30
  -9   2   6   13.03    1.19
  -8  -2   6   23.26    1.77
  -8   2   6   31.47    1.86
  -8   2   6   29.72    2.09
  -7  -2   6   29.66    1.88
  -7   2   6   29.02    2.13
  -7   2   6   31.15    1.89
  -6  -2   6   28.93    1.74
   6  -2  -6   28.09    1.99
  -6   2   6   26.46    1.73
  -5  -2   6    0.03    0.15
   5  -2  -6    0.10    0.32
  -5  -2   6    0.24    0.27
   5   2  -6    0.47    0.24
   4  -2  -6   32.40    2.13
  -4  -2   6   31.85    1.36
   4   2  -6   29.65    2.05
  -3  -2   6  129.22    7.03
  -3  -2   6  130.57    5.46
   3  -2  -6  131.15    8.40
   3   2  -6  142.76    8.36
  -2  -2   6  159.33    8.42
  -2  -2   6  150.59    6.56
   2  -2  -6  151.88   10.06
   2   2  -6  180.54   10.05
   1  -2  -6  124.11    7.99
  -1  -2   6  125.45    6.64
  -1  -2   6  121.16    5.21
   1   2  -6  136.28    7.98
   0  -2  -6   90.36    5.67
   0  -2   6   86.91    3.71
   1  -2   6    1.55    0.27
  -1  -2  -6    1.65    0.40
  -2  -2  -6    9.70    0.95
   2  -2   6    9.20    0.65
  -2  -2  -6   10.21    0.71
  -2   2  -6    9.89    0.93
  -3  -2  -6   24.19    1.85
  -3  -2  -6   25.58    1.48
  -4  -2  -6   11.29    1.13
  -5   2  -6   14.55    1.40
  -6  -2  -6   13.12    1.42
  -6   2  -6   17.91    1.53
  -7  -2  -6   19.37    1.84
  -7   2  -6   23.90    1.96
  -8  -2  -6   11.59    1.39
  -8   2  -6   10.77    1.49
 -11  -3   6    4.07    0.86
 -11   3   6    3.31    0.85
 -10  -3   6   11.04    1.25
 -10   3   6   11.15    1.34
  -9  -3   6    3.05    0.69
  -9   3   6    2.45    0.70
  -8  -3   6   33.73    2.13
  -8   3   6   33.16    2.41
  -7  -3   6   52.08    3.15
  -7   3   6   57.98    3.69
   6  -3  -6   52.35    3.55
  -6  -3   6   53.88    3.01
   5  -3  -6   64.78    4.21
  -5  -3   6   65.38    2.70
  -5  -3   6   63.20    3.55
  -4  -3   6   61.28    3.40
   4  -3  -6   63.74    4.05
  -4  -3   6   61.75    2.61
  -3  -3   6   80.55    4.19
  -3  -3   6   80.29    3.26
   3  -3  -6   79.34    5.01
   3   3  -6   72.60    4.92
   2  -3  -6    7.45    0.76
  -2  -3   6    7.73    0.49
  -2  -3   6    7.76    0.59
   2   3  -6    8.63    0.69
   1  -3  -6   36.45    2.45
  -1  -3   6   36.79    1.99
  -1  -3   6   36.34    1.61
   1   3  -6   36.38    2.42
   0  -3   6   30.65    1.52
   0  -3  -6   33.81    2.33
   0  -3   6   32.61    1.84
   0   3  -6   40.12    2.33
  -1  -3  -6  105.40    6.24
   1  -3   6   98.15    4.08
  -1   3  -6   88.84    6.20
  -2  -3  -6  133.74    6.98
   2  -3   6  131.90    5.47
  -2  -3  -6  135.09    8.35
  -2   3  -6  125.41    8.34
   3  -3   6   63.94    2.81
  -3  -3  -6   66.02    4.27
  -3  -3  -6   64.29    3.54
  -3   3  -6   63.97    4.29
  -4  -3  -6   34.44    2.03
  -4  -3  -6   33.92    2.49
   4  -3   6   37.42    1.69
  -4   3  -6   34.17    2.51
  -5  -3  -6    6.58    0.86
  -5   3  -6    5.27    0.85
  -6  -3  -6   -0.11    0.52
  -6   3  -6    0.80    0.62
  -7  -3  -6   20.20    1.76
  -7   3  -6   18.11    1.83
  -8  -3  -6   19.28    1.81
 -10  -4   6    8.28    1.04
 -10   4   6    7.37    1.08
  -9  -4   6    6.70    0.85
  -9   4   6    6.59    0.96
  -8  -4   6   25.49    1.62
  -8   4   6   20.90    1.80
  -7  -4   6   15.26    1.21
   6  -4  -6    9.42    1.02
  -6  -4   6    9.58    0.84
  -5  -4   6    3.34    0.34
   5  -4  -6    4.22    0.63
  -5  -4   6    4.01    0.54
   4  -4  -6   59.79    3.88
  -4  -4   6   60.13    2.51
  -4  -4   6   57.53    3.25
  -3  -4   6   30.82    1.76
  -3  -4   6   30.27    1.37
   3  -4  -6   30.17    2.11
  -2  -4   6   49.32    2.12
   2  -4  -6   48.33    3.25
  -2  -4   6   49.66    2.69
  -1  -4   6  126.71    5.36
   1  -4  -6  128.07    8.21
  -1  -4   6  126.87    6.81
   1   4  -6  137.73    8.17
   0  -4   6   61.99    2.89
   0  -4  -6   65.03    4.41
   0   4  -6   77.00    4.41
  -1  -4  -6    3.86    0.57
   1  -4   6    3.54    0.40
   2  -4   6    9.42    0.66
  -2  -4  -6    9.38    0.98
  -2  -4  -6   10.73    0.85
  -2   4  -6   11.65    1.00
  -3  -4  -6   13.41    1.00
   3  -4   6   12.81    0.84
  -3  -4  -6   13.40    1.20
   4  -4   6   52.66    2.36
  -4  -4  -6   51.02    3.52
  -4  -4  -6   51.93    2.93
   5  -4   6   23.42    1.32
  -5  -4  -6   23.12    1.94
  -5   4  -6   28.38    2.01
  -6  -4  -6    6.46    0.93
  -7  -4  -6    6.80    1.01
  -7   4  -6    7.95    1.12
 -10  -5   6    1.65    0.71
 -10   5   6    1.58    0.80
  -9  -5   6    3.15    0.73
  -9   5   6    1.96    0.74
  -8  -5   6   10.50    1.11
  -8   5   6   11.57    1.27
  -7  -5   6   44.96    2.69
  -6  -5   6   33.49    2.12
  -6  -5   6   35.84    1.58
   6  -5  -6   35.20    2.49
  -5  -5   6   44.25    2.61
   5  -5  -6   46.34    3.11
  -5  -5   6   45.40    1.98
  -4  -5   6   76.35    3.27
  -4  -5   6   77.72    4.24
   4  -5  -6   78.98    5.06
  -3  -5   6   12.62    0.91
  -3  -5   6   13.34    0.71
   3  -5  -6   12.40    1.12
  -2  -5   6   13.93    0.77
  -2  -5   6   14.68    0.95
   2  -5  -6   15.08    1.22
  -1  -5   6   40.00    1.84
   1  -5  -6   42.85    2.81
   0  -5  -6   19.62    1.48
   0  -5   6   20.04    1.03
  -1  -5  -6   58.87    3.75
   1  -5   6   59.55    2.50
  -1   5  -6   51.79    3.70
  -2  -5  -6   31.35    2.20
   2  -5   6   30.25    1.48
  -2  -5  -6   29.47    1.86
  -2   5  -6   31.06    2.18
  -3  -5  -6   16.19    1.41
  -3  -5  -6   16.15    1.19
   3  -5   6   15.66    0.97
  -4  -5  -6   17.36    1.50
   4  -5   6   18.04    1.06
  -4  -5  -6   18.25    1.28
  -4   5  -6   16.51    1.53
  -5  -5  -6    6.36    0.87
  -5  -5  -6    6.07    0.73
   5  -5   6    5.76    0.64
  -5   5  -6    6.39    0.92
  -6   5  -6    2.70    0.80
  -7   5  -6    7.39    1.16
  -9  -6   6    3.29    0.77
  -9   6   6    2.73    0.75
  -8  -6   6    2.12    0.60
  -7  -6   6   10.44    1.05
   7  -6  -6   10.17    1.17
   6  -6  -6    1.37    0.60
  -6  -6   6    1.07    0.32
  -6  -6   6    1.41    0.52
  -5  -6   6   10.04    0.69
  -5  -6   6   10.94    0.97
   5  -6  -6   10.81    1.13
  -4  -6   6    3.36    0.41
   4  -6  -6    2.96    0.59
  -4  -6   6    3.19    0.53
  -3  -6   6    6.78    0.68
   3  -6  -6    6.66    0.85
  -3  -6   6    6.33    0.56
  -2  -6   6   69.08    3.73
   2  -6  -6   68.71    4.49
  -2  -6   6   67.75    2.94
  -1  -6   6    8.58    0.63
   1  -6  -6    8.24    0.89
   0  -6  -6   16.33    1.34
  -1  -6  -6   45.75    2.67
   1  -6   6   45.11    2.06
  -1  -6  -6   44.85    3.07
   2  -6   6    1.91    0.41
  -2  -6  -6    2.56    0.56
  -2  -6  -6    2.11    0.56
   3  -6   6    3.74    0.52
  -3  -6  -6    4.32    0.71
  -3  -6  -6    4.04    0.67
  -3   6  -6    4.81    0.73
  -4  -6  -6   11.61    1.09
   4  -6   6   11.68    0.83
  -4   6  -6   11.72    1.25
  -5  -6  -6   10.49    1.03
   5  -6   6   10.11    0.84
  -5   6  -6    7.05    1.08
   6  -6   6    3.30    0.58
  -6   6  -6    2.47    0.78
  -8  -7   6    5.74    0.84
   8  -7  -6    7.89    1.12
  -7  -7   6    2.07    0.64
   7  -7  -6    1.46    0.69
   6  -7  -6   10.66    1.24
  -6  -7   6   10.59    0.76
  -6  -7   6   10.30    1.00
  -5  -7   6   40.93    2.48
   5  -7  -6   42.46    2.95
  -5  -7   6   40.81    1.88
  -4  -7   6   20.80    1.09
  -4  -7   6   19.28    1.37
   4  -7  -6   19.66    1.63
   3  -7  -6    2.17    0.57
  -3  -7   6    1.83    0.45
  -3  -7   6    2.72    0.43
   2  -7  -6    3.13    0.61
  -2  -7   6    2.50    0.40
   1  -7  -6    5.81    0.82
  -1  -7   6    6.49    0.58
   0  -7   6   34.41    1.61
   0  -7  -6   32.82    2.39
  -1  -7  -6   12.60    1.13
  -1  -7  -6   12.39    1.16
   2  -7   6   11.44    0.87
  -2  -7  -6   11.53    1.11
  -3  -7  -6   13.12    1.13
   3  -7   6   11.68    0.92
   4  -7   6    8.36    0.76
  -4  -7  -6    7.89    0.94
  -5  -7  -6    5.53    0.84
   5  -7   6    4.82    0.65
  -6  -7  -6    2.44    0.71
  -6   7  -6    1.31    0.78
   7  -8  -6    1.28    0.66
  -7  -8   6    2.08    0.68
  -6  -8   6    4.19    0.53
  -6  -8   6    3.91    0.68
   6  -8  -6    4.15    0.79
  -5  -8   6    0.34    0.50
   5  -8  -6    0.87    0.57
  -5  -8   6    0.67    0.39
  -4  -8   6    4.25    0.54
   4  -8  -6    4.39    0.77
  -4  -8   6    3.48    0.61
   3  -8  -6   10.23    1.15
  -3  -8   6    9.90    0.80
   2  -8  -6    3.40    0.67
  -2  -8   6    2.90    0.44
   1  -8  -6   10.60    1.13
  -1  -8   6   10.81    0.78
   0  -8  -6   21.30    1.54
   0  -8   6   20.53    1.19
   1  -8   6    1.70    0.45
  -1  -8  -6    1.35    0.56
  -2  -8  -6    3.38    0.70
   2  -8   6    4.48    0.60
   3  -8   6    0.93    0.43
  -3  -8  -6    0.76    0.64
   4  -8   6   14.28    1.04
  -4  -8  -6   12.56    1.32
   5  -8   6    6.89    0.76
  -6  -9   6    4.40    0.61
  -6  -9   6    3.71    0.78
   6  -9  -6    4.89    0.92
  -5  -9   6    1.58    0.59
  -5  -9   6    1.18    0.48
   5  -9  -6    1.40    0.66
   4  -9  -6    5.78    0.92
  -4  -9   6    5.58    0.63
   3  -9  -6    4.78    0.82
  -3  -9   6    2.95    0.50
  -2  -9   6    9.86    0.85
   1  -9  -6    5.91    0.89
  -1  -9   6    5.91    0.64
   0  -9  -6   -0.03    0.54
   0  -9   6    0.18    0.46
   1  -9   6    4.58    0.65
  -1  -9  -6    4.05    0.76
   2  -9   6    8.11    0.78
  -2  -9  -6    7.85    1.02
   3  -9   6    0.41    0.53
   2 -10  -6    1.48    0.73
   1 -10  -6    2.87    0.89
 -11   0   7    0.00    0.68
 -10   0   7   38.00    2.43
   9   0  -7   34.37    2.52
  -9   0   7   37.24    2.30
  -8   0   7   67.44    3.77
   8   0  -7   64.64    4.33
   7   0  -7   99.60    6.34
  -7   0   7   98.63    5.42
   6   0  -7    8.58    0.84
  -6   0   7    8.00    0.75
  -5   0   7    3.63    0.50
   5   0  -7    2.68    0.44
   4   0  -7   59.51    3.82
  -4   0   7   58.21    3.24
   3   0  -7  265.70   16.18
  -3   0   7  253.94   13.58
   2   0  -7  208.32   13.02
   1   0  -7  280.03   17.45
   0   0  -7  223.18   13.96
  -1   0  -7    3.43    0.57
  -2   0  -7    0.69    0.37
  -3   0  -7   47.02    3.24
  -4   0  -7  161.40   10.28
  -5   0  -7   99.08    6.49
  -6   0  -7    2.89    0.76
  -7   0  -7    0.42    0.66
 -11  -1   7    0.39    0.69
 -11   1   7   -0.23    0.64
 -11   1   7   -0.10    0.58
 -10  -1   7    6.34    0.90
 -10   1   7    3.58    0.80
 -10   1   7    3.77    0.77
  -9  -1   7    6.37    0.87
  -9   1   7    6.82    0.88
   8  -1  -7    7.87    0.92
  -8  -1   7    7.29    0.86
  -8   1   7    5.78    0.81
   7  -1  -7   19.86    1.64
  -7  -1   7   19.51    1.48
  -7   1   7   23.80    1.49
   7   1  -7   24.04    1.62
  -6  -1   7   35.73    2.11
   6  -1  -7   34.24    2.43
   6   1  -7   35.45    2.39
  -6   1   7   37.03    2.14
   5  -1  -7   82.99    5.40
  -5  -1   7   85.49    4.59
   5   1  -7   85.22    5.38
  -5   1   7   84.31    4.60
   4  -1  -7   94.43    6.18
  -4  -1   7   91.91    4.01
  -4  -1   7   91.52    5.19
   4   1  -7  110.25    6.16
  -3  -1   7   29.03    1.73
   3  -1  -7   30.64    2.07
  -3  -1   7   30.69    1.36
  -2  -1   7   11.46    0.66
   2  -1  -7   12.12    0.95
  -2  -1   7   11.83    0.77
   2   1  -7   11.11    0.94
   1  -1  -7   35.74    2.40
  -1  -1   7   34.33    1.59
   1   1  -7   35.25    2.37
   0  -1   7  120.06    5.17
   0  -1  -7  121.27    7.88
   0   1  -7  131.75    7.89
  -1  -1  -7   82.57    5.71
  -1   1  -7   95.49    5.74
  -2  -1  -7   42.25    2.74
  -2   1  -7   36.79    2.71
  -3  -1  -7    2.29    0.59
  -4  -1  -7    0.91    0.49
  -4   1  -7    1.05    0.50
  -5  -1  -7   16.08    1.49
  -5   1  -7   13.88    1.47
  -6  -1  -7    0.18    0.61
  -6   1  -7    1.05    0.67
  -7  -1  -7    1.81    0.78
  -7   1  -7    2.84    0.81
 -11  -2   7    2.91    0.82
 -11   2   7    2.49    0.76
 -11   2   7    2.27    0.77
 -10  -2   7   20.29    1.59
 -10   2   7   20.35    1.62
 -10   2   7   20.50    1.77
  -9  -2   7   46.23    2.86
  -9   2   7   47.70    2.87
  -8  -2   7   44.36    2.69
   8  -2  -7   43.39    3.08
  -8   2   7   46.55    2.71
  -7  -2   7   43.54    2.48
   7  -2  -7   42.93    2.86
  -7   2   7   36.90    2.45
  -6  -2   7   14.15    1.04
   6  -2  -7   14.22    1.22
  -5  -2   7   22.06    1.04
   5  -2  -7   22.64    1.65
  -5  -2   7   21.40    1.40
   5   2  -7   23.19    1.56
  -4  -2   7   74.16    3.96
   4  -2  -7   72.51    4.70
  -4  -2   7   70.41    3.05
   4   2  -7   73.92    4.64
  -3  -2   7  145.13    5.89
   3  -2  -7  145.06    9.04
  -3  -2   7  150.26    7.57
   3   2  -7  133.53    8.98
   2  -2  -7  252.45   15.99
  -2  -2   7  269.64   13.38
  -2  -2   7  262.95   10.44
   2   2  -7  240.73   15.96
  -1  -2   7  160.63    6.47
  -1  -2   7  162.85    8.22
   1  -2  -7  162.13    9.90
   1   2  -7  142.78    9.85
   0  -2   7   54.90    2.43
   0  -2  -7   55.12    3.67
   0   2  -7   57.26    3.67
   1  -2   7   46.18    2.09
  -1  -2  -7   45.81    3.15
  -1   2  -7   48.32    3.16
  -2  -2  -7    5.92    0.55
  -2  -2  -7    5.92    0.77
   2  -2   7    6.87    0.57
  -2   2  -7    4.13    0.68
  -3  -2  -7   96.11    6.41
  -3   2  -7  102.46    6.45
  -4  -2  -7   43.40    3.17
  -4   2  -7   47.50    3.19
  -5  -2  -7   24.26    1.92
  -5   2  -7   21.42    1.91
  -6  -2  -7   29.01    2.18
  -6   2  -7   24.03    2.16
  -7  -2  -7    4.11    0.88
  -7   2  -7    2.22    0.77
 -11   3   7   10.66    1.39
 -10  -3   7    3.08    0.77
 -10   3   7    2.10    0.74
  -9  -3   7    3.34    0.74
   8  -3  -7    0.80    0.55
  -8  -3   7    0.36    0.46
  -7  -3   7   18.89    1.35
   7  -3  -7   16.75    1.46
   6  -3  -7   74.68    4.89
  -6  -3   7   74.77    4.13
  -5  -3   7   63.14    2.69
  -5  -3   7   64.24    3.55
   5  -3  -7   64.27    4.20
  -4  -3   7   35.11    1.96
   4  -3  -7   32.88    2.30
  -4  -3   7   32.09    1.49
   3  -3  -7   53.16    3.67
  -3  -3   7   51.79    3.05
  -3  -3   7   56.27    2.40
   3   3  -7   62.50    3.62
  -2  -3   7   27.08    1.52
   2  -3  -7   26.48    1.87
  -2  -3   7   25.70    1.22
   2   3  -7   25.75    1.81
   1  -3  -7   53.34    3.44
  -1  -3   7   50.59    2.25
  -1  -3   7   52.29    2.79
   1   3  -7   50.90    3.39
   0  -3  -7   98.35    6.33
   0  -3   7   92.73    4.14
   0   3  -7  104.83    6.32
   1  -3   7   94.68    4.38
  -1  -3  -7  100.04    6.68
  -1   3  -7  118.01    6.71
   2  -3   7   32.43    1.57
  -2  -3  -7   32.32    1.90
  -2  -3  -7   33.28    2.31
  -2   3  -7   31.16    2.31
  -3  -3  -7   30.67    1.73
  -3  -3  -7   30.70    2.16
   3  -3   7   30.61    1.44
  -3   3  -7   22.88    2.11
  -4  -3  -7    9.96    1.08
  -4   3  -7    6.70    0.97
  -5  -3  -7    6.36    0.92
  -5   3  -7    7.55    1.01
  -6  -3  -7    1.64    0.71
  -6   3  -7    1.01    0.65
  -7  -3  -7    2.69    0.81
  -7   3  -7    3.51    0.93
 -10  -4   7    7.72    1.06
  -9  -4   7   24.74    1.76
  -8  -4   7   28.91    1.97
   8  -4  -7   32.37    2.37
   7  -4  -7    6.84    0.95
  -7  -4   7    8.27    0.87
  -6  -4   7   18.56    1.36
   6  -4  -7   20.31    1.61
  -5  -4   7   16.18    0.84
   5  -4  -7   15.30    1.37
  -5  -4   7   16.77    1.13
   4  -4  -7   30.98    2.19
  -4  -4   7   31.47    1.85
  -4  -4   7   30.81    1.42
   3  -4  -7   84.06    5.34
  -3  -4   7   82.90    4.44
  -3  -4   7   80.48    3.46
   2  -4  -7  130.79    8.30
  -2  -4   7  132.42    5.42
  -2  -4   7  129.18    6.90
   1  -4  -7   62.67    3.89
  -1  -4   7   62.28    2.56
   1   4  -7   52.13    3.80
   0  -4   7   43.66    1.96
   0  -4  -7   43.75    2.95
   0   4  -7   42.28    2.91
  -1  -4  -7   11.76    1.11
   1  -4   7   11.72    0.79
  -1   4  -7   14.17    1.13
  -2  -4  -7   24.80    1.54
   2  -4   7   23.87    1.23
  -2  -4  -7   24.42    1.85
  -2   4  -7   23.52    1.85
   3  -4   7    6.77    0.64
  -3  -4  -7    6.61    0.72
  -3  -4  -7    6.59    0.88
  -3   4  -7    8.92    1.00
  -4  -4  -7   15.38    1.49
   4  -4   7   15.48    1.04
  -4   4  -7   19.61    1.56
  -5  -4  -7   29.95    2.32
  -5   4  -7   29.98    2.37
  -6  -4  -7   10.80    1.30
  -6   4  -7    8.96    1.22
  -7  -4  -7    2.56    0.80
  -9  -5   7    1.90    0.70
   9  -5  -7    2.34    0.81
   8  -5  -7   18.58    1.73
  -8  -5   7   18.61    1.44
   7  -5  -7   14.69    1.45
  -7  -5   7   14.71    1.24
   6  -5  -7   14.62    1.39
  -6  -5   7   15.18    1.19
  -5  -5   7   35.81    1.65
   5  -5  -7   36.47    2.60
  -5  -5   7   37.32    2.20
  -4  -5   7   13.07    0.99
   4  -5  -7   13.22    1.21
  -4  -5   7   12.71    0.76
  -3  -5   7    2.55    0.42
  -3  -5   7    2.34    0.33
   3  -5  -7    2.06    0.51
  -2  -5   7    2.70    0.38
   2  -5  -7    2.33    0.53
  -2  -5   7    2.11    0.35
  -1  -5   7   45.25    2.03
   1  -5  -7   45.39    3.08
   0  -5   7   65.03    2.83
   0  -5  -7   64.38    4.27
   1  -5   7   39.88    1.80
  -1  -5  -7   38.41    2.67
  -1   5  -7   35.88    2.61
  -2  -5  -7   18.03    1.23
  -2  -5  -7   18.09    1.46
   2  -5   7   17.46    0.99
  -2   5  -7   14.96    1.40
  -3  -5  -7    8.49    1.04
   3  -5   7    8.41    0.75
  -3  -5  -7    8.98    0.90
  -3   5  -7    8.12    1.07
   4  -5   7    4.66    0.59
  -4  -5  -7    4.13    0.63
  -4  -5  -7    3.90    0.73
  -4   5  -7    2.11    0.67
   5  -5   7    2.50    0.52
  -5  -5  -7    3.84    0.78
  -5   5  -7    3.44    0.80
  -6   5  -7    1.55    0.77
   9  -6  -7   10.66    1.48
  -9  -6   7   11.47    1.29
  -8  -6   7    8.98    1.03
   8  -6  -7    8.55    1.15
   7  -6  -7   13.94    1.47
  -7  -6   7   14.35    1.26
  -6  -6   7   13.93    1.21
   6  -6  -7   15.04    1.45
  -6  -6   7   15.84    0.90
  -5  -6   7   -0.17    0.29
   5  -6  -7    0.08    0.50
  -5  -6   7   -0.23    0.41
  -4  -6   7   18.79    1.00
   4  -6  -7   19.11    1.52
  -4  -6   7   17.41    1.26
   3  -6  -7   32.50    2.36
  -3  -6   7   32.32    1.92
  -3  -6   7   32.80    1.55
  -2  -6   7   65.14    2.83
   2  -6  -7   64.83    4.31
  -1  -6   7   73.37    3.19
   1  -6  -7   74.58    4.86
   0  -6  -7   11.56    1.16
   0  -6   7   12.79    0.85
  -1  -6  -7    3.86    0.68
  -1  -6  -7    5.19    0.71
   1  -6   7    4.42    0.51
  -2  -6  -7    3.28    0.64
  -2  -6  -7    3.44    0.68
   2  -6   7    2.54    0.49
   3  -6   7    0.54    0.42
  -3  -6  -7    0.76    0.54
  -3  -6  -7    0.46    0.55
  -3   6  -7    0.40    0.59
   4  -6   7   15.90    1.02
  -4  -6  -7   14.83    1.22
  -4   6  -7   10.74    1.36
   5  -6   7    5.42    0.67
  -5   6  -7    7.13    1.06
   6  -6   7    7.93    0.79
  -6   6  -7    6.32    1.11
   8  -7  -7    4.44    0.92
  -8  -7   7    4.62    0.84
   7  -7  -7   14.17    1.42
  -7  -7   7   12.94    1.25
  -6  -7   7   11.45    0.83
  -6  -7   7   11.29    1.10
   6  -7  -7   11.52    1.34
   5  -7  -7    3.12    0.72
  -5  -7   7    2.94    0.60
  -5  -7   7    2.19    0.45
   4  -7  -7   11.19    1.23
  -4  -7   7   11.20    0.75
  -4  -7   7   10.26    0.96
   3  -7  -7    4.28    0.73
  -3  -7   7    4.20    0.53
   2  -7  -7    1.45    0.53
  -2  -7   7    1.10    0.40
   1  -7  -7    9.61    1.07
  -1  -7   7    9.03    0.72
   0  -7  -7    9.17    1.09
   0  -7   7    9.31    0.80
  -1  -7  -7   32.76    2.07
  -1  -7  -7   30.13    2.33
   1  -7   7   31.52    1.58
  -2  -7  -7   23.84    1.69
   2  -7   7   25.85    1.37
   3  -7   7    4.53    0.64
  -3  -7  -7    4.77    0.79
   4  -7   7    0.96    0.50
  -4  -7  -7    1.56    0.65
   5  -7   7   -0.02    0.49
  -5  -7  -7    0.15    0.61
   7  -8  -7    3.34    0.85
  -7  -8   7    3.05    0.71
  -6  -8   7    0.83    0.59
   6  -8  -7    0.74    0.68
  -6  -8   7    1.10    0.45
  -5  -8   7    4.88    0.75
   5  -8  -7    5.74    0.93
  -5  -8   7    6.21    0.64
   4  -8  -7    3.56    0.76
  -4  -8   7    4.04    0.55
   3  -8  -7    5.15    0.83
  -3  -8   7    6.18    0.63
   2  -8  -7   12.20    1.28
  -2  -8   7   13.26    0.93
   1  -8  -7   12.41    1.27
  -1  -8   7   12.91    0.94
   0  -8   7   15.84    1.08
   0  -8  -7   16.16    1.40
   1  -8   7    1.70    0.52
  -1  -8  -7    1.28    0.67
  -2  -8  -7    3.67    0.74
   2  -8   7    4.45    0.65
   3  -8   7    0.65    0.53
  -3  -8  -7    0.67    0.66
   6  -9  -7    2.57    0.85
  -6  -9   7    2.87    0.57
  -6  -9   7    2.52    0.73
   5  -9  -7    3.86    0.86
  -5  -9   7    4.00    0.61
   4  -9  -7    4.16    0.88
  -4  -9   7    4.53    0.63
   3  -9  -7    2.23    0.70
  -3  -9   7    2.61    0.55
  -2  -9   7    0.73    0.44
   1  -9  -7    0.09    0.64
  -1  -9   7   -0.17    0.44
   0  -9  -7   10.52    1.15
   0  -9   7    8.22    0.80
  -1  -9  -7    3.65    0.83
   1  -9   7    4.21    0.66
 -11   0   8    1.08    0.74
 -10   0   8   15.79    1.39
  -9   0   8   21.94    1.64
   9   0  -8   20.33    1.75
  -8   0   8    6.78    0.83
   8   0  -8    6.64    0.85
  -7   0   8    0.12    0.45
   7   0  -8    0.61    0.41
  -6   0   8   29.21    1.88
   6   0  -8   30.90    2.13
  -5   0   8    0.65    0.33
   5   0  -8    0.67    0.37
  -4   0   8   43.93    2.53
   4   0  -8   45.28    2.98
   3   0  -8   76.61    4.93
   2   0  -8  402.06   24.99
   1   0  -8  180.71   11.37
   0   0  -8    6.71    0.76
  -1   0  -8    0.22    0.38
  -2   0  -8    6.10    0.83
  -3   0  -8   36.82    2.68
  -4   0  -8   40.09    2.93
  -5   0  -8   18.91    1.76
  -6   0  -8   27.01    2.23
 -11  -1   8   19.13    1.68
 -11   1   8   18.36    1.57
 -10  -1   8   11.73    1.24
  10  -1  -8   13.14    1.38
 -10   1   8   14.43    1.29
  -9  -1   8   -0.17    0.53
   9  -1  -8   -0.11    0.49
  -9   1   8    0.22    0.54
   8  -1  -8    5.19    0.77
  -8  -1   8    5.80    0.80
  -8   1   8    6.40    0.78
  -7  -1   8   41.61    2.55
   7  -1  -8   40.14    2.92
   7   1  -8   43.66    2.87
  -7   1   8   45.47    2.55
   6  -1  -8  112.47    7.20
  -6  -1   8  112.84    6.10
  -6   1   8  112.04    6.11
   6   1  -8  113.81    7.17
   5  -1  -8   98.02    5.99
  -5  -1   8   95.93    5.06
   5   1  -8   89.49    5.94
  -5   1   8   89.74    5.06
   4  -1  -8   24.51    1.80
  -4  -1   8   22.61    1.16
  -4  -1   8   24.29    1.53
   4   1  -8   27.95    1.77
  -3  -1   8   70.27    3.89
   3  -1  -8   73.17    4.66
  -3  -1   8   68.88    3.05
   3   1  -8   74.89    4.64
  -2  -1   8   10.73    0.69
   2  -1  -8   11.97    1.05
   2   1  -8   12.21    1.00
   1  -1  -8   44.54    2.98
  -1  -1   8   45.57    1.99
   1   1  -8   42.67    2.97
   0  -1  -8   50.48    3.15
   0   1  -8   42.41    3.12
  -1  -1  -8  146.60    8.97
  -1   1  -8  134.98    8.94
  -2  -1  -8  113.03    7.59
  -2   1  -8  123.68    7.62
  -3  -1  -8   35.47    2.61
  -3   1  -8   36.00    2.59
  -4   1  -8    4.25    0.78
  -5  -1  -8    0.57    0.64
  -5   1  -8    0.51    0.61
  -6  -1  -8    7.50    1.10
  -6   1  -8    7.64    1.08
  11  -2  -8    2.25    0.81
 -11   2   8    2.05    0.72
  10  -2  -8    6.43    0.98
 -10  -2   8    6.68    0.94
 -10   2   8    8.36    1.04
   9  -2  -8    7.25    0.98
  -9  -2   8    6.41    0.86
  -9   2   8    7.29    0.94
  -8  -2   8   26.53    1.82
   8  -2  -8   28.00    2.10
   7  -2  -8    6.82    0.91
  -7  -2   8    5.95    0.76
  -6  -2   8    6.77    0.74
   6  -2  -8    6.25    0.84
   5  -2  -8    2.27    0.52
  -5  -2   8    2.52    0.45
   5   2  -8    4.24    0.54
   4  -2  -8    9.88    0.93
  -4  -2   8    9.07    0.75
  -4  -2   8   10.24    0.58
   4   2  -8    6.97    0.78
  -3  -2   8  136.54    7.38
  -3  -2   8  139.22    5.77
   3  -2  -8  142.22    8.84
   3   2  -8  140.43    8.79
   2  -2  -8  199.50   12.95
  -2  -2   8  204.53    8.47
  -2  -2   8  199.98   10.81
   2   2  -8  222.27   12.94
  -1  -2   8  106.56    4.40
   1  -2  -8  101.42    6.68
   1   2  -8  105.37    6.67
   0  -2   8   73.33    3.08
   0  -2  -8   68.17    4.63
   0   2  -8   70.92    4.62
  -1  -2  -8   15.42    1.30
   1  -2   8   14.96    0.89
  -1   2  -8   12.86    1.25
  -2  -2  -8   22.54    1.88
  -2   2  -8   25.39    1.89
  -3   2  -8    5.91    0.85
  -4  -2  -8   28.91    2.25
  -4   2  -8   28.12    2.24
  -5  -2  -8   58.86    4.26
  -5   2  -8   64.81    4.31
  -6  -2  -8   13.86    1.57
  -6   2  -8   14.62    1.60
  10  -3  -8    7.04    1.04
 -10  -3   8    6.32    0.94
   9  -3  -8    5.47    0.90
  -9  -3   8    5.89    0.88
   8  -3  -8   18.16    1.56
  -8  -3   8   17.74    1.37
   7  -3  -8   35.01    2.58
  -7  -3   8   36.51    2.23
  -6  -3   8   29.40    1.85
   6  -3  -8   30.29    2.20
  -5  -3   8   92.21    5.01
  -5  -3   8   90.92    3.85
   5  -3  -8   93.29    5.96
   4  -3  -8  103.45    6.78
  -4  -3   8  108.12    4.42
  -4  -3   8  106.12    5.69
  -3  -3   8    2.25    0.38
  -3  -3   8    2.11    0.33
   3  -3  -8    2.24    0.53
  -2  -3   8    6.99    0.59
  -2  -3   8    7.59    0.54
   2  -3  -8    6.81    0.83
   2   3  -8    6.63    0.75
  -1  -3   8    5.59    0.49
   1  -3  -8    6.00    0.73
   1   3  -8    3.89    0.59
   0  -3  -8  104.32    6.71
   0  -3   8  105.52    4.41
   0   3  -8  102.97    6.68
   1  -3   8  108.77    4.49
  -1  -3  -8  101.62    6.80
  -1   3  -8  106.66    6.80
  -2  -3  -8   41.68    3.00
   2  -3   8   39.87    1.97
  -2  -3  -8   40.39    2.44
  -2   3  -8   48.62    3.03
  -3  -3  -8   18.75    1.82
  -3   3  -8   27.31    1.91
  -4  -3  -8    3.38    0.74
  -4   3  -8    4.35    0.84
  -5  -3  -8    2.28    0.71
  -5   3  -8    1.92    0.74
  -6  -3  -8   10.22    1.39
  -6   3  -8   11.77    1.38
 -10  -4   8    5.38    0.90
  10  -4  -8    5.21    1.01
   9  -4  -8   18.12    1.74
  -9  -4   8   17.93    1.47
   8  -4  -8    8.16    1.08
  -8  -4   8    8.97    0.99
   7  -4  -8   17.68    1.57
  -7  -4   8   16.88    1.36
   6  -4  -8    2.50    0.59
  -6  -4   8    3.21    0.61
   5  -4  -8   10.93    1.14
  -5  -4   8   11.09    0.95
  -5  -4   8   10.98    0.70
   4  -4  -8   11.99    1.18
  -4  -4   8   11.63    0.91
  -4  -4   8   11.91    0.72
   3  -4  -8   80.44    5.24
  -3  -4   8   82.04    3.42
  -3  -4   8   78.64    4.33
  -2  -4   8  144.66    5.93
   2  -4  -8  141.04    9.06
  -1  -4   8   74.87    3.27
   1  -4  -8   77.11    4.99
   0  -4  -8   13.65    1.25
   0  -4   8   12.64    0.84
   1  -4   8   13.65    0.89
  -1  -4  -8   13.66    1.27
  -1   4  -8   12.86    1.21
  -2  -4  -8    6.01    0.69
   2  -4   8    5.66    0.59
  -2  -4  -8    5.77    0.84
  -2   4  -8    9.55    1.00
   3  -4   8   57.01    2.57
  -3  -4  -8   53.74    3.83
  -3   4  -8   56.79    3.86
  -4  -4  -8   24.96    2.01
  -4   4  -8   23.70    2.01
  -5  -4  -8   10.00    1.25
  -5   4  -8    7.60    1.13
  -6  -4  -8   12.05    1.48
  -6   4  -8   11.98    1.53
   9  -5  -8    2.01    0.83
  -9  -5   8    1.94    0.73
   8  -5  -8    1.42    0.69
  -8  -5   8    2.21    0.66
   7  -5  -8    0.37    0.61
  -7  -5   8    0.74    0.54
   6  -5  -8   28.29    2.18
  -6  -5   8   29.68    1.87
   5  -5  -8   25.21    1.96
  -5  -5   8   23.85    1.22
  -5  -5   8   25.56    1.62
  -4  -5   8   24.95    1.24
   4  -5  -8   24.74    1.94
  -4  -5   8   24.06    1.55
   3  -5  -8   12.73    1.23
  -3  -5   8   12.28    0.92
  -3  -5   8   12.30    0.80
  -2  -5   8    9.41    0.72
   2  -5  -8    9.06    1.01
   1  -5  -8   17.37    1.49
  -1  -5   8   18.05    1.02
   0  -5   8   41.36    1.95
   0  -5  -8   42.63    2.96
  -1  -5  -8   34.40    2.45
   1  -5   8   31.81    1.62
   2  -5   8   33.69    1.72
  -2  -5  -8   33.66    2.12
  -2  -5  -8   33.54    2.53
  -2   5  -8   36.19    2.52
  -3  -5  -8    8.10    1.03
  -3  -5  -8    8.07    0.90
   3  -5   8    8.94    0.78
  -3   5  -8    6.13    0.95
   4  -5   8   12.71    1.01
  -4  -5  -8   11.92    1.38
  -4   5  -8   13.12    1.42
  -5  -5  -8    3.94    0.86
  -5   5  -8    3.21    0.85
   8  -6  -8   21.92    2.00
  -8  -6   8   22.93    1.71
   7  -6  -8    3.51    0.82
  -7  -6   8    4.87    0.77
   6  -6  -8    5.33    0.88
  -6  -6   8    6.01    0.79
   5  -6  -8    8.63    1.15
  -5  -6   8    8.29    0.72
  -5  -6   8    8.64    0.90
  -4  -6   8   45.83    2.12
   4  -6  -8   48.64    3.28
  -4  -6   8   45.11    2.68
   3  -6  -8   41.87    2.92
  -3  -6   8   40.24    1.91
   2  -6  -8   26.43    2.05
  -2  -6   8   27.76    1.37
  -1  -6   8   39.14    1.88
   1  -6  -8   40.55    2.84
   0  -6   8   28.27    1.47
   0  -6  -8   27.83    2.15
  -1  -6  -8    7.39    0.87
  -1  -6  -8    6.56    0.93
   1  -6   8    8.68    0.75
   2  -6   8    9.68    0.83
  -2  -6  -8   10.58    1.06
  -2  -6  -8   10.20    1.21
  -3  -6  -8   11.53    1.13
   3  -6   8   10.93    0.94
  -3  -6  -8   10.44    1.33
   4  -6   8   15.17    1.08
  -4  -6  -8   15.89    1.59
  -4   6  -8   16.52    1.67
   5  -6   8   14.07    1.11
  -5   6  -8   13.75    1.58
  -8  -7   8    2.33    0.76
   7  -7  -8    3.42    0.87
  -7  -7   8    3.40    0.72
  -6  -7   8    1.54    0.63
   6  -7  -8    1.63    0.74
  -5  -7   8    1.66    0.56
  -5  -7   8    1.81    0.46
   5  -7  -8    1.69    0.70
  -4  -7   8   17.56    1.06
   4  -7  -8   17.55    1.64
   3  -7  -8   11.00    1.25
  -3  -7   8   10.68    0.79
  -2  -7   8    4.85    0.59
   2  -7  -8    5.30    0.80
  -1  -7   8    3.91    0.57
   1  -7  -8    3.08    0.70
   0  -7   8    5.16    0.64
   0  -7  -8    5.56    0.86
  -1  -7  -8    2.36    0.70
   1  -7   8    3.02    0.59
  -1  -7  -8    3.04    0.70
  -2  -7  -8    6.87    1.00
  -2  -7  -8    8.48    0.98
   2  -7   8   10.45    0.91
   3  -7   8    6.01    0.75
  -3  -7  -8    6.03    0.89
   4  -7   8    2.24    0.67
  -4  -7  -8    1.25    0.69
  -7  -8   8    4.25    0.80
  -6  -8   8    0.11    0.54
   6  -8  -8   -0.49    0.63
  -6  -8   8   -0.26    0.44
  -5  -8   8    8.28    0.75
   5  -8  -8    6.68    1.04
  -4  -8   8   24.30    1.36
   4  -8  -8   23.82    2.04
   3  -8  -8    6.37    0.94
  -3  -8   8    7.22    0.71
  -2  -8   8    1.00    0.46
   2  -8  -8    1.01    0.60
  -1  -8   8    5.52    0.68
   1  -8  -8    4.51    0.82
   0  -8   8    6.45    0.74
   0  -8  -8    6.34    0.95
   0  -8  -8    6.11    0.91
   1  -8   8    0.49    0.47
  -1  -8  -8    0.12    0.62
  -2  -8  -8    4.65    0.90
   2  -8   8    5.95    0.71
   5  -9  -8    3.20    0.90
  -4  -9   8    1.21    0.54
   4  -9  -8    1.13    0.73
   3  -9  -8    2.29    0.76
  -3  -9   8    1.71    0.56
  -2  -9   8    0.12    0.52
 -10   0   9   -0.13    0.69
  -9   0   9   37.23    2.44
  -8   0   9   44.22    2.65
   8   0  -9   41.39    2.95
  -7   0   9    4.02    0.67
   7   0  -9    3.22    0.62
  -6   0   9   28.18    1.79
   6   0  -9   27.79    2.03
  -5   0   9   24.37    1.55
   5   0  -9   23.35    1.76
   4   0  -9   19.05    1.47
   3   0  -9   47.32    3.19
   2   0  -9   57.87    3.84
   1   0  -9   13.09    1.15
   0   0  -9   56.45    3.81
  -1   0  -9    7.93    1.03
  -2   0  -9   41.63    2.98
  -3   0  -9   18.08    1.68
  -4   0  -9    3.60    0.84
  -5   0  -9   26.06    2.23
  10  -1  -9    0.44    0.61
 -10  -1   9    1.14    0.65
 -10   1   9    0.09    0.66
   9  -1  -9   11.79    1.28
  -9  -1   9   11.96    1.26
  -9   1   9   11.70    1.16
  -8  -1   9    4.13    0.76
   8  -1  -9    4.21    0.73
  -8   1   9    5.21    0.78
   7  -1  -9   26.16    1.98
  -7  -1   9   26.37    1.78
   6  -1  -9   55.40    3.77
  -6  -1   9   56.53    3.22
   6   1  -9   56.63    3.72
  -5  -1   9  111.35    6.16
   5  -1  -9  109.39    7.30
   5   1  -9  121.68    7.27
  -4  -1   9  100.92    4.00
  -4  -1   9   97.15    5.11
   4  -1  -9   99.63    6.11
   4   1  -9   81.66    6.04
  -3  -1   9   59.28    2.51
   3  -1  -9   56.90    3.80
  -3  -1   9   57.18    3.16
   3   1  -9   55.48    3.77
   2  -1  -9   29.12    2.05
   2   1  -9   26.50    1.99
   1  -1  -9   35.70    2.63
   1   1  -9   39.41    2.63
   0  -1  -9  111.76    7.38
   0   1  -9  118.05    7.39
  -1  -1  -9  159.98    9.98
  -1   1  -9  153.14    9.96
  -2  -1  -9   87.38    5.60
  -2   1  -9   81.92    5.57
  -3  -1  -9   26.37    2.00
  -3   1  -9   22.65    2.00
  -4  -1  -9    1.90    0.73
  -4   1  -9    1.87    0.76
  -5  -1  -9    1.86    0.73
  -5   1  -9    1.43    0.77
  -6  -1  -9    1.15    0.87
  11  -2  -9    4.03    0.91
 -10  -2   9    8.04    1.01
  10  -2  -9    7.77    1.05
   9  -2  -9   32.87    2.49
  -9  -2   9   33.05    2.18
  -8  -2   9   21.88    1.63
   8  -2  -9   22.43    1.83
   7  -2  -9    4.06    0.70
  -7  -2   9    3.85    0.66
  -6  -2   9   14.30    1.12
   6  -2  -9   13.58    1.29
  -5  -2   9   53.70    3.08
   5  -2  -9   54.96    3.65
  -4  -2   9   34.31    1.98
  -4  -2   9   36.19    1.57
   4  -2  -9   34.23    2.38
   4   2  -9   29.37    2.28
   3  -2  -9    3.17    0.57
  -3  -2   9    4.35    0.46
  -3  -2   9    4.01    0.47
   3   2  -9    3.98    0.58
  -2  -2   9   95.76    4.22
   2  -2  -9   98.48    6.43
   2   2  -9  104.95    6.41
  -1  -2   9  110.13    4.62
   1  -2  -9  110.76    7.04
   1   2  -9  106.91    7.00
   0  -2  -9    1.90    0.57
   0  -2   9    1.91    0.41
  -1  -2  -9   11.12    1.21
  -1   2  -9   11.55    1.19
  -2   2  -9    4.65    0.80
  -3  -2  -9   35.90    2.83
  -3   2  -9   41.49    2.89
  -4  -2  -9   35.49    2.74
  -4   2  -9   36.25    2.75
  -5  -2  -9   10.03    1.31
  -5   2  -9   12.55    1.49
  10  -3  -9    5.71    1.00
 -10  -3   9    7.26    1.04
  -9  -3   9    3.65    0.80
   9  -3  -9    2.46    0.74
   8  -3  -9   11.20    1.31
  -8  -3   9   11.44    1.11
   7  -3  -9   16.85    1.51
  -7  -3   9   18.72    1.40
   6  -3  -9   33.90    2.42
  -6  -3   9   31.30    2.01
   5  -3  -9   55.80    3.86
  -5  -3   9   59.17    3.26
  -4  -3   9   44.47    1.96
   4  -3  -9   41.98    3.00
  -4  -3   9   43.37    2.48
  -3  -3   9    8.71    0.66
  -3  -3   9    9.38    0.74
   3  -3  -9    8.25    0.98
   2  -3  -9    1.01    0.50
  -2  -3   9    0.72    0.35
   2   3  -9    1.71    0.44
   1  -3  -9   27.54    2.18
  -1  -3   9   28.43    1.46
   1   3  -9   31.81    2.13
   0  -3   9   32.68    1.60
   0  -3  -9   32.65    2.38
   0   3  -9   31.00    2.31
   1  -3   9   62.51    2.78
  -1  -3  -9   59.58    4.16
  -1   3  -9   62.71    4.15
  -2  -3  -9   81.38    5.30
   2  -3   9   76.76    3.47
  -2   3  -9   79.31    5.26
  -3  -3  -9   21.57    1.75
  -3   3  -9   16.60    1.68
  -4  -3  -9    1.73    0.74
  -4   3  -9    0.42    0.65
  -5  -3  -9    4.48    0.94
  -5   3  -9    2.50    0.86
   9  -4  -9    0.78    0.70
  -9  -4   9    1.19    0.70
  -8  -4   9    8.08    0.99
   8  -4  -9    9.32    1.25
  -7  -4   9    8.65    0.91
   7  -4  -9    7.44    1.03
   6  -4  -9    5.52    0.85
  -6  -4   9    3.93    0.61
   5  -4  -9   10.97    1.23
  -5  -4   9   10.82    0.97
  -5  -4   9   11.38    0.73
  -4  -4   9   18.78    1.29
   4  -4  -9   19.75    1.62
  -4  -4   9   18.37    1.02
  -3  -4   9   95.12    3.97
   3  -4  -9   90.87    6.04
   2  -4  -9   12.03    1.24
  -2  -4   9   13.41    0.84
  -1  -4   9   59.93    2.67
   1  -4  -9   59.80    4.03
   0  -4  -9   26.10    2.07
   0  -4   9   27.26    1.43
   0   4  -9   29.16    2.08
  -1  -4  -9    2.74    0.64
   1  -4   9    2.63    0.47
  -1   4  -9    3.40    0.68
   2  -4   9   15.73    1.05
  -2  -4  -9   15.45    1.44
  -2   4  -9   13.95    1.43
  -3  -4  -9    7.20    1.00
   3  -4   9    7.01    0.74
  -3   4  -9    4.85    0.92
  -4  -4  -9   13.40    1.48
  -4   4  -9   12.33    1.46
  -5  -4  -9   18.75    1.92
  -5   4  -9   23.89    2.00
  -9  -5   9    2.32    0.78
   9  -5  -9    2.62    0.86
  -8  -5   9    5.43    0.88
   8  -5  -9    5.04    0.89
  -7  -5   9   41.99    2.56
   7  -5  -9   40.19    3.01
  -6  -5   9   38.28    2.35
   6  -5  -9   37.35    2.80
  -5  -5   9   16.52    1.28
  -5  -5   9   16.77    0.97
   5  -5  -9   17.08    1.59
  -4  -5   9   31.26    1.52
  -4  -5   9   29.63    1.86
   4  -5  -9   31.31    2.33
  -3  -5   9    2.38    0.45
   3  -5  -9    1.90    0.57
  -2  -5   9    4.43    0.54
   2  -5  -9    4.22    0.76
   1  -5  -9    9.70    1.09
  -1  -5   9   10.80    0.83
   0  -5   9   27.19    1.46
   0  -5  -9   26.96    2.11
   1  -5   9   28.98    1.53
  -1  -5  -9   30.36    2.30
  -2  -5  -9   23.35    1.64
   2  -5   9   23.49    1.39
  -2  -5  -9   23.53    2.00
  -2   5  -9   25.35    2.00
  -3  -5  -9   15.24    1.55
   3  -5   9   14.11    1.08
  -3   5  -9   14.54    1.54
   4  -5   9    9.49    0.87
  -4  -5  -9    8.85    1.17
  -4   5  -9    7.59    1.16
  -5  -5  -9    4.13    0.93
  -8  -6   9    0.79    0.65
   8  -6  -9   -0.36    0.66
  -7  -6   9    3.87    0.71
   7  -6  -9    4.23    0.90
   6  -6  -9    4.53    0.89
  -6  -6   9    5.10    0.74
  -5  -6   9    1.34    0.42
   5  -6  -9    0.72    0.67
  -5  -6   9    0.74    0.49
  -4  -6   9    5.17    0.58
   4  -6  -9    4.48    0.81
  -3  -6   9   20.99    1.20
   3  -6  -9   20.09    1.75
  -2  -6   9   16.33    1.02
   2  -6  -9   17.38    1.56
  -1  -6   9    9.40    0.86
   1  -6  -9    9.90    1.19
   0  -6   9    4.84    0.59
   0  -6  -9    4.92    0.83
   1  -6   9    1.46    0.54
  -1  -6  -9    1.30    0.58
  -1  -6  -9    1.49    0.69
  -2  -6  -9    0.53    0.64
   2  -6   9    1.67    0.55
  -2  -6  -9    0.78    0.58
  -3  -6  -9   10.61    1.23
   3  -6   9   10.89    0.96
  -3  -6  -9   10.56    1.43
  -4  -6  -9    3.00    0.84
  -7  -7   9    5.13    0.85
   7  -7  -9    4.21    0.91
  -6  -7   9   21.21    1.61
   6  -7  -9   20.99    1.88
  -5  -7   9   22.53    1.27
   5  -7  -9   22.16    1.98
  -4  -7   9    2.31    0.47
   4  -7  -9    2.58    0.77
   3  -7  -9    6.13    0.94
  -3  -7   9    6.66    0.69
  -2  -7   9    4.46    0.63
   2  -7  -9    2.85    0.71
  -1  -7   9    3.40    0.61
   1  -7  -9    3.07    0.78
   0  -7  -9   11.89    1.31
   0  -7   9   10.85    0.99
   1  -7   9    7.16    0.79
  -1  -7  -9    6.07    0.87
  -1  -7  -9    5.10    0.93
  -2  -7  -9    4.04    0.77
  -2  -7  -9    3.96    0.86
   2  -7   9    4.58    0.71
  -3  -7  -9    9.49    1.08
  -5  -8   9   -0.04    0.47
   5  -8  -9    0.45    0.71
   4  -8  -9    1.83    0.75
  -4  -8   9    2.49    0.57
  -3  -8   9   14.85    1.09
   3  -8  -9   13.89    1.51
  -2  -8   9    9.24    0.85
   2  -8  -9   10.09    1.29
   1  -8  -9    1.67    0.70
  -1  -8   9    2.65    0.57
   0  -8  -9    4.49    0.89
   0  -8   9    6.23    0.77
   0  -8  -9    5.37    0.91
   3  -9  -9    1.15    0.73
 -10   0  10    8.77    1.08
  -9   0  10    8.89    1.07
  -8   0  10   13.96    1.24
   8   0 -10   14.87    1.37
  -7   0  10   61.01    3.51
   7   0 -10   59.85    4.05
  -6   0  10    6.44    0.77
   6   0 -10    6.27    0.81
   5   0 -10   32.38    2.31
   4   0 -10   61.32    4.08
   3   0 -10   12.94    1.22
   2   0 -10  105.96    6.84
   1   0 -10  173.69   11.02
   0   0 -10    7.00    0.95
  -1   0 -10   -0.15    0.47
  -2   0 -10    3.52    0.81
  -3   0 -10   27.60    2.22
  -4   0 -10   21.48    2.01
 -10  -1  10    0.41    0.64
 -10   1  10    0.44    0.73
  -9  -1  10    8.10    1.02
   9  -1 -10    7.74    1.01
  -9   1  10    7.39    1.02
   8  -1 -10   40.84    2.80
  -8  -1  10   36.45    2.42
  -8   1  10   37.80    2.48
  -7  -1  10   55.90    3.25
   7  -1 -10   54.49    3.76
   6  -1 -10   25.37    1.88
  -6  -1  10   23.90    1.59
   6   1 -10   22.91    1.81
  -5  -1  10   39.13    2.35
   5  -1 -10   40.45    2.79
   5   1 -10   39.35    2.74
   4  -1 -10    6.68    0.86
  -4  -1  10    5.93    0.72
   4   1 -10    8.87    0.92
   3  -1 -10   21.05    1.65
   3   1 -10   21.02    1.63
   2  -1 -10    8.29    0.96
   2   1 -10    9.02    0.98
   1  -1 -10   26.11    2.02
   1   1 -10   27.08    2.03
   0  -1 -10   38.52    2.58
   0   1 -10   31.07    2.53
  -1  -1 -10   37.13    2.66
  -1   1 -10   33.94    2.61
  -2  -1 -10   62.20    4.49
  -2   1 -10   70.71    4.56
  -3  -1 -10   15.79    1.68
  -3   1 -10   18.46    1.65
  -4  -1 -10    1.74    0.74
  -4   1 -10    1.71    0.79
  10  -2 -10    4.10    0.89
   9  -2 -10   18.74    1.70
  -9  -2  10   17.24    1.48
  -8  -2  10   40.16    2.55
   8  -2 -10   40.38    2.93
  -7  -2  10   13.97    1.23
   7  -2 -10   13.58    1.39
  -6  -2  10    3.06    0.61
   6  -2 -10    2.10    0.59
   5  -2 -10   10.76    1.10
  -5  -2  10   11.07    0.97
  -4  -2  10   60.93    3.34
   4  -2 -10   55.62    3.97
  -4  -2  10   59.11    2.64
   4   2 -10   62.71    3.95
   3  -2 -10  121.88    7.57
  -3  -2  10  122.68    6.29
  -3  -2  10  126.30    4.97
   3   2 -10   99.91    7.47
  -2  -2  10   44.44    2.00
   2  -2 -10   42.67    2.98
   2   2 -10   40.79    2.93
  -1  -2  10   31.58    1.58
   1  -2 -10   29.03    2.30
   1   2 -10   33.70    2.32
   0  -2 -10   29.94    2.18
   0   2 -10   26.92    2.15
  -1  -2 -10    1.35    0.59
  -1   2 -10    1.75    0.65
  -2  -2 -10   26.10    2.13
  -2   2 -10   24.96    2.09
  -3  -2 -10   22.78    2.04
  -3   2 -10   24.27    2.06
  -4  -2 -10    4.72    0.94
  -4   2 -10    2.94    0.89
  10  -3 -10    4.75    0.99
  -9  -3  10    5.85    0.89
   9  -3 -10    7.15    1.03
   8  -3 -10    6.32    0.96
  -8  -3  10    5.08    0.80
  -7  -3  10   24.94    1.76
   7  -3 -10   25.62    2.07
  -6  -3  10   58.75    3.45
   6  -3 -10   62.13    4.14
   5  -3 -10   15.36    1.44
  -5  -3  10   15.43    1.17
  -4  -3  10    5.54    0.54
  -4  -3  10    5.36    0.63
   4  -3 -10    4.94    0.80
  -3  -3  10   19.36    1.08
   3  -3 -10   18.74    1.58
   2  -3 -10    4.93    0.80
  -2  -3  10    4.02    0.49
   2   3 -10    3.78    0.66
   1  -3 -10   23.53    1.87
  -1  -3  10   23.50    1.24
   1   3 -10   21.30    1.76
   0  -3 -10   31.96    2.35
   0  -3  10   33.43    1.60
   0   3 -10   26.97    2.26
   1  -3  10   41.82    2.04
  -1  -3 -10   43.33    3.09
  -1   3 -10   42.29    3.04
  -2  -3 -10   34.49    2.70
  -2   3 -10   36.57    2.69
  -3  -3 -10    9.93    1.30
  -3   3 -10   13.00    1.41
  -4  -3 -10    0.53    0.75
  -4   3 -10    0.58    0.75
   9  -4 -10   22.99    2.04
  -9  -4  10   21.51    1.71
  -8  -4  10   15.38    1.37
   8  -4 -10   13.08    1.54
  -7  -4  10    8.66    0.97
   7  -4 -10    7.76    1.07
   6  -4 -10    9.00    1.14
  -6  -4  10    9.08    1.00
   5  -4 -10   15.56    1.45
  -5  -4  10   15.85    1.23
   4  -4 -10   36.92    2.67
  -4  -4  10   35.54    1.73
  -3  -4  10   28.82    1.46
   3  -4 -10   28.42    2.21
  -2  -4  10   37.90    1.84
   2  -4 -10   38.27    2.79
  -1  -4  10   22.90    1.29
   1  -4 -10   22.59    1.85
   0  -4 -10    3.72    0.75
   0  -4  10    3.87    0.59
  -1  -4 -10    1.04    0.59
   1  -4  10    0.98    0.47
  -1   4 -10    0.93    0.61
  -2  -4 -10    1.05    0.72
   2  -4  10    0.90    0.51
  -2   4 -10    1.60    0.67
  -3  -4 -10    6.73    1.07
  -3   4 -10    6.81    1.05
  -4  -4 -10    8.59    1.21
  -4   4 -10    7.33    1.19
  -8  -5  10   25.93    1.92
   8  -5 -10   26.82    2.20
   7  -5 -10   19.51    1.84
  -7  -5  10   18.77    1.51
   6  -5 -10   12.22    1.44
  -6  -5  10   11.59    1.11
   5  -5 -10   16.15    1.61
  -5  -5  10   16.44    1.29
   4  -5 -10    9.13    1.23
  -4  -5  10   10.92    0.85
   3  -5 -10    5.24    0.82
  -3  -5  10    5.87    0.63
  -2  -5  10   14.42    0.99
   2  -5 -10   14.02    1.46
   1  -5 -10   10.10    1.25
  -1  -5  10   10.02    0.88
   0  -5  10   26.98    1.50
   0  -5 -10   26.43    2.17
  -1  -5 -10   29.65    2.36
   1  -5  10   29.56    1.59
   2  -5  10   11.53    0.96
  -2  -5 -10    8.68    1.24
   3  -5  10    2.36    0.62
  -3  -5 -10    2.55    0.82
  -3   5 -10    2.54    0.81
  -4   5 -10    1.68    0.91
  -8  -6  10    8.74    1.06
   7  -6 -10    9.29    1.26
  -7  -6  10    9.76    1.07
  -6  -6  10    3.95    0.72
   6  -6 -10    3.57    0.92
  -5  -6  10   14.00    1.02
   5  -6 -10   16.85    1.62
  -4  -6  10    4.57    0.61
   4  -6 -10    3.59    0.83
  -3  -6  10   14.88    1.02
   3  -6 -10   14.31    1.50
   2  -6 -10   21.93    1.88
  -2  -6  10   20.81    1.24
   1  -6 -10    3.21    0.80
  -1  -6  10    3.16    0.59
   0  -6 -10    5.81    0.96
   0  -6  10    5.78    0.68
  -1  -6 -10    0.31    0.68
  -1  -6 -10    0.03    0.56
   1  -6  10    0.34    0.49
   2  -6  10    0.47    0.51
  -2  -6 -10    0.68    0.73
  -3  -6 -10    0.41    0.70
  -7  -7  10    5.66    0.88
   5  -7 -10    4.70    0.96
  -5  -7  10    4.96    0.65
  -4  -7  10    6.05    0.70
   4  -7 -10    4.81    0.95
   3  -7 -10    3.03    0.82
  -3  -7  10    2.08    0.56
   2  -7 -10    3.71    0.87
  -2  -7  10    4.15    0.63
   1  -7 -10   12.16    1.46
  -1  -7  10   12.61    1.06
   0  -7  10   17.86    1.18
   0  -7 -10   16.63    1.71
  -1  -7 -10   12.20    1.21
  -1  -7 -10   12.95    1.51
  -2  -7 -10    5.50    1.02
  -5  -8  10    5.58    0.74
  -4  -8  10    2.02    0.68
   3  -8 -10    3.37    0.88
   2  -8 -10    2.79    0.82
   1  -8 -10    0.41    0.71
   0  -8 -10    1.64    0.79
  -9   0  11   12.85    1.40
  -8   0  11   21.83    1.70
   7   0 -11    3.72    0.72
  -7   0  11    4.21    0.70
   6   0 -11    4.12    0.72
   5   0 -11    8.47    1.05
   4   0 -11   92.23    6.02
   3   0 -11  126.87    8.15
   2   0 -11   56.01    3.84
   1   0 -11   17.91    1.62
   0   0 -11    5.19    0.85
  -1   0 -11   -0.03    0.60
  -2   0 -11   22.71    2.04
  -3   0 -11   52.50    3.77
  -9  -1  11    2.22    0.76
   9  -1 -11    2.10    0.75
   8  -1 -11    8.49    1.17
  -8  -1  11    8.02    0.99
  -7  -1  11   32.37    2.12
   7  -1 -11   32.74    2.44
   6  -1 -11   39.04    2.87
  -6  -1  11   41.44    2.47
  -5  -1  11   32.93    2.00
   5  -1 -11   31.65    2.33
   5   1 -11   30.66    2.30
   4  -1 -11   15.45    1.46
   4   1 -11   16.45    1.42
   3  -1 -11    0.88    0.57
   3   1 -11    0.58    0.51
   2  -1 -11   11.22    1.26
   2   1 -11   12.02    1.22
   1  -1 -11   53.23    3.74
   1   1 -11   54.92    3.75
   0  -1 -11   37.11    2.83
   0   1 -11   40.75    2.86
  -1  -1 -11   22.07    2.01
  -1   1 -11   24.26    1.95
  -2  -1 -11   12.39    1.52
  -2   1 -11   13.54    1.52
  -3  -1 -11    4.57    0.96
  -3   1 -11    4.12    0.98
  10  -2 -11    8.73    1.20
  -9  -2  11    9.66    1.15
   9  -2 -11    9.14    1.19
   8  -2 -11    6.07    0.94
  -8  -2  11    6.61    0.94
  -7  -2  11    5.46    0.79
   7  -2 -11    5.28    0.90
   6  -2 -11    0.19    0.56
  -6  -2  11    0.18    0.45
  -5  -2  11   32.57    2.07
   5  -2 -11   34.94    2.51
  -4  -2  11   71.78    3.99
   4  -2 -11   71.89    4.82
   3  -2 -11   35.15    2.64
   3   2 -11   36.54    2.56
   2  -2 -11   42.22    2.87
   2   2 -11   35.96    2.76
   1  -2 -11   41.43    2.95
   1   2 -11   39.02    2.88
   0  -2 -11    5.73    0.93
   0   2 -11    4.61    0.85
  -1  -2 -11    2.62    0.81
  -1   2 -11    2.46    0.75
  -2  -2 -11   14.18    1.48
  -2   2 -11   12.95    1.52
  -3  -2 -11   21.48    2.08
  -3   2 -11   23.38    2.10
  -9  -3  11    0.77    0.72
   9  -3 -11    2.02    0.80
  -8  -3  11   19.93    1.61
   8  -3 -11   19.15    1.85
  -7  -3  11   24.53    1.72
   7  -3 -11   22.74    2.03
   6  -3 -11   23.81    1.97
  -6  -3  11   22.19    1.61
   5  -3 -11   44.15    3.12
  -5  -3  11   42.68    2.58
   4  -3 -11   20.43    1.82
  -4  -3  11   22.70    1.21
  -3  -3  11    2.55    0.49
   3  -3 -11    2.30    0.72
  -2  -3  11   22.49    1.30
   2  -3 -11   23.25    1.95
  -1  -3  11   29.14    1.57
   1  -3 -11   29.95    2.34
   1   3 -11   32.11    2.32
   0  -3 -11   38.42    2.90
   0   3 -11   40.96    2.91
  -1  -3 -11   18.80    1.64
  -1   3 -11   14.82    1.59
  -2  -3 -11   12.26    1.41
  -2   3 -11   11.50    1.44
  -3  -3 -11    5.82    1.09
  -3   3 -11    5.59    1.05
  -8  -4  11    9.59    1.08
   8  -4 -11    8.88    1.25
  -7  -4  11    1.58    0.62
   7  -4 -11    1.35    0.76
   6  -4 -11    5.49    0.93
  -6  -4  11    5.55    0.78
   5  -4 -11   23.61    2.01
   4  -4 -11   28.29    2.28
  -4  -4  11   29.05    1.49
   3  -4 -11   46.88    3.38
  -3  -4  11   48.98    2.27
  -2  -4  11   28.10    1.53
   2  -4 -11   29.12    2.31
   1  -4 -11    9.94    1.23
  -1  -4  11   10.82    0.93
   0  -4 -11    6.44    0.99
   0  -4  11    6.04    0.73
   1  -4  11    0.40    0.53
  -1  -4 -11    0.79    0.70
  -1   4 -11    0.40    0.65
  -2  -4 -11   11.06    1.48
  -2   4 -11   10.40    1.43
  -3   4 -11   22.78    2.09
  -8  -5  11    1.67    0.66
   7  -5 -11    4.15    0.95
  -7  -5  11    4.92    0.82
   6  -5 -11   25.63    2.21
  -6  -5  11   25.68    1.88
   5  -5 -11   11.23    1.41
   4  -5 -11    0.51    0.65
  -4  -5  11    1.24    0.47
  -3  -5  11    1.98    0.54
   3  -5 -11    2.10    0.77
   2  -5 -11    4.54    0.92
  -2  -5  11    4.48    0.62
   1  -5 -11   10.53    1.36
  -1  -5  11   11.17    0.91
   0  -5 -11   13.05    1.51
   0  -5  11   12.98    1.08
  -1  -5 -11    8.82    1.21
   1  -5  11    8.78    0.85
  -2  -5 -11    2.40    0.88
  -7  -6  11    1.49    0.70
   5  -6 -11   10.84    1.45
  -4  -6  11   18.94    1.19
   4  -6 -11   17.95    1.71
   3  -6 -11   18.71    1.76
  -3  -6  11   19.77    1.24
  -2  -6  11   19.64    1.27
   2  -6 -11   18.55    1.82
   1  -6 -11    9.88    1.25
  -1  -6  11    9.95    0.91
   0  -6  11    1.23    0.59
   0  -6 -11    1.81    0.81
  -1  -6 -11    0.41    0.77
  -4  -7  11    1.17    0.54
   3  -7 -11    1.28    0.88
  -3  -7  11    0.89    0.55
   2  -7 -11    5.36    0.98
   6   0 -12    0.52    0.59
   5   0 -12   42.30    3.02
   4   0 -12   64.55    4.38
   3   0 -12   42.01    3.04
   2   0 -12   20.14    1.79
   1   0 -12   18.38    1.75
   0   0 -12    1.40    0.75
  -1   0 -12    3.94    0.87
  -2   0 -12   16.67    1.82
  -8  -1  12    5.81    0.91
   8  -1 -12    5.58    0.93
   7  -1 -12   19.51    1.74
  -7  -1  12   19.04    1.53
   6  -1 -12   42.98    3.09
   5  -1 -12   22.67    1.97
   5   1 -12   24.55    1.98
   4  -1 -12   15.94    1.55
   4   1 -12   15.37    1.46
   3  -1 -12    6.23    0.91
   3   1 -12    7.11    0.92
   2  -1 -12    6.91    0.96
   2   1 -12    4.46    0.86
   1  -1 -12   29.68    2.38
   1   1 -12   32.07    2.44
   0  -1 -12   56.75    4.05
   0   1 -12   59.05    4.06
  -1  -1 -12   39.63    2.91
  -1   1 -12   34.81    2.85
  -2  -1 -12   19.15    1.93
  -2   1 -12   18.45    1.80
   9  -2 -12    7.93    1.18
   8  -2 -12    8.12    1.13
  -8  -2  12    9.19    1.07
   7  -2 -12    0.07    0.63
  -7  -2  12    0.82    0.60
  -6  -2  12    2.88    0.65
   6  -2 -12    4.38    0.84
  -5  -2  12   14.88    1.23
   5  -2 -12   15.54    1.56
   4  -2 -12   35.64    2.70
   3  -2 -12   63.16    4.36
   2  -2 -12   33.44    2.58
   2   2 -12   32.83    2.51
   1  -2 -12   10.28    1.41
   1   2 -12   14.27    1.40
   0  -2 -12    0.29    0.69
   0   2 -12    0.63    0.67
  -1  -2 -12    0.62    0.78
  -1   2 -12    0.72    0.72
  -2   2 -12    8.49    1.24
  -8  -3  12    6.38    0.96
   8  -3 -12    7.25    1.14
  -7  -3  12   16.55    1.43
   7  -3 -12   16.58    1.70
  -6  -3  12   22.58    1.59
   6  -3 -12   20.54    1.93
   5  -3 -12   25.51    2.08
   4  -3 -12    3.76    0.88
   3  -3 -12    0.78    0.71
  -3  -3  12    0.56    0.47
   2  -3 -12    1.16    0.71
  -2  -3  12    1.11    0.51
   1  -3 -12   19.51    1.85
   0  -3 -12   39.30    2.97
   0   3 -12   38.13    2.90
  -1  -3 -12   21.74    2.10
  -1   3 -12   22.66    2.02
  -2   3 -12   12.61    1.59
  -8  -4  12    0.72    0.66
  -7  -4  12    3.17    0.76
   7  -4 -12    2.55    0.85
   6  -4 -12    1.53    0.77
   5  -4 -12   12.00    1.45
  -4  -4  12   34.64    1.85
   4  -4 -12   34.02    2.63
   3  -4 -12   29.78    2.45
  -3  -4  12   33.72    1.70
   2  -4 -12   16.31    1.72
  -2  -4  12   17.38    1.18
   1  -4 -12    5.75    1.05
  -1  -4  12    5.55    0.71
   0  -4  12    0.54    0.53
   0  -4 -12    1.38    0.81
  -2   4 -12   13.15    1.60
   5  -5 -12    7.78    1.18
  -4  -5  12    8.24    0.81
   4  -5 -12    8.91    1.23
   3  -5 -12    0.91    0.76
  -3  -5  12    1.23    0.52
  -2  -5  12    3.34    0.64
   2  -5 -12    4.46    0.99
  -1  -5  12    9.01    0.93
   1  -5 -12    9.40    1.29
  -4  -6  12   25.08    1.49
  -3  -6  12   13.48    1.11
   6   0 -13    0.63    0.67
   5   0 -13    2.90    0.79
   4   0 -13   18.75    1.74
   3   0 -13   23.50    2.03
   2   0 -13   12.72    1.49
   1   0 -13   10.57    1.33
   0   0 -13    0.38    0.72
   8  -1 -13   10.52    1.37
   7  -1 -13   24.86    2.13
   6  -1 -13   39.72    2.98
   5  -1 -13   28.61    2.32
   4  -1 -13    7.44    1.06
   4   1 -13    4.62    0.88
   3  -1 -13   10.77    1.37
   3   1 -13    8.84    1.16
   2  -1 -13   10.42    1.40
   2   1 -13    9.70    1.35
   1  -1 -13   22.88    2.12
   1   1 -13   24.19    2.09
   0  -1 -13   42.04    3.06
   0   1 -13   35.70    2.94
   7  -2 -13    0.41    0.71
  -7  -2  13    0.84    0.63
   6  -2 -13   -0.31    0.68
   5  -2 -13    7.34    1.09
   4  -2 -13   24.14    2.14
   3  -2 -13   24.16    2.11
   2  -2 -13   11.68    1.50
   2   2 -13   12.95    1.44
   1  -2 -13    3.63    0.93
   1   2 -13    3.54    0.88
   0   2 -13   -0.17    0.67
  -7  -3  13   14.24    1.34
   6  -3 -13   21.10    1.99
   5  -3 -13   13.10    1.59
   4  -3 -13    5.98    1.06
   3  -3 -13    9.88    1.28
   2  -3 -13    9.02    1.25
   1  -3 -13   19.49    2.08
  -3  -4  13   13.49    1.10
  -2  -4  13    9.39    0.92
  -3  -5  13    5.62    0.85
   5   0 -14   13.48    1.54
   4   0 -14   42.66    3.19
   3   0 -14   60.58    4.27
   2   0 -14   18.72    1.92
   6  -1 -14    3.65    0.88
   5  -1 -14    6.39    1.08
   4  -1 -14    0.63    0.73
   3  -1 -14    6.01    1.08
   3   1 -14    7.41    1.12
   2   1 -14    7.30    1.14
   0   0   0    0.00    0.00
;
_shelx_hkl_checksum              34825
loop_
_space_group_symop_operation_xyz
'x, y, z'
'-x, y+1/2, -z'
loop_
_atom_site_type_symbol
_atom_site_label
_atom_site_fract_x
_atom_site_fract_y
_atom_site_fract_z
_atom_site_U_iso_or_equiv
_atom_site_adp_type
_atom_site_calc_flag
_atom_site_refinement_flags_adp
_atom_site_refinement_flags_posn
_atom_site_occupancy
Br Br1 1.07210(3) 0.24431(5) 1.01890(2) 0.05038(12) Uani d . . 1
C C4 0.9239(3) 0.1845(3) 0.3983(3) 0.0245(5) Uani d . . 1
O O2 0.6605(2) 0.0814(3) 0.7154(3) 0.0509(6) Uani d . . 1
C C3 0.8464(3) 0.2884(2) 0.4547(2) 0.0197(5) Uani d . . 1
N N1 0.6774(2) 0.4815(3) 0.4487(2) 0.0236(4) Uani d . . 1
C C6 0.7814(3) 0.2860(3) 0.1861(3) 0.0316(6) Uani d . . 1
H H4 0.7611 0.2828 0.0968 0.038 Uiso calc U R 1
C C5 0.8898(3) 0.1836(3) 0.2649(3) 0.0291(6) Uani d . . 1
H H3 0.9401 0.1134 0.227 0.035 Uiso calc U R 1
C C2 0.8463(3) 0.3218(3) 0.5853(2) 0.0191(5) Uani d . . 1
C C17 0.9331(2) 0.2419(3) 0.7109(2) 0.0198(4) Uani d . . 1
H H13 0.8862 0.2774 0.7757 0.024 Uiso calc U R 1
C C11 1.1069(3) 0.2749(3) 0.7659(2) 0.0217(5) Uani d . . 1
C C16 1.1834(3) 0.2783(3) 0.8982(3) 0.0349(7) Uani d . . 1
C C15 1.3412(4) 0.3098(5) 0.9503(3) 0.0548(10) Uani d . . 1
H H9 1.3883 0.3134 1.0396 0.066 Uiso calc U R 1
C C14 1.4270(4) 0.3357(5) 0.8681(3) 0.0521(9) Uani d . . 1
H H10 1.5332 0.3553 0.9017 0.063 Uiso calc U R 1
C C1 0.7403(3) 0.4384(3) 0.5760(2) 0.0206(5) Uani d . . 1
C C8 0.7371(3) 0.3911(3) 0.3723(2) 0.0213(5) Uani d . . 1
C C7 0.7037(3) 0.3917(3) 0.2383(3) 0.0287(6) Uani d . . 1
H H5 0.6321 0.4605 0.1861 0.034 Uiso calc U R 1
C C9 0.6954(3) 0.5154(3) 0.6781(3) 0.0283(6) Uani d . . 1
H H6 0.7426 0.4817 0.7626 0.034 Uiso calc U R 1
C C10 0.5932(3) 0.6293(4) 0.6605(3) 0.0377(7) Uani d . . 1
H H8 0.5434 0.6664 0.5775 0.045 Uiso calc U R 1
H H7 0.5712 0.6721 0.7312 0.045 Uiso calc U R 1
C C18 0.9124(3) 0.0653(3) 0.7017(3) 0.0235(5) Uani d . . 1
H H15 0.9618 0.024 0.6415 0.028 Uiso calc U R 1
H H14 0.9618 0.0191 0.786 0.028 Uiso calc U R 1
N N2 0.7424(3) 0.0260(3) 0.6563(2) 0.0285(5) Uani d . . 1
O O1 0.6943(2) -0.0572(3) 0.5634(2) 0.0476(6) Uani d . . 1
C C13 1.3554(3) 0.3326(3) 0.7360(3) 0.0354(7) Uani d . . 1
H H11 1.4135 0.3504 0.6805 0.042 Uiso calc U R 1
C C12 1.1974(3) 0.3032(3) 0.6855(3) 0.0247(5) Uani d . . 1
H H12 1.1506 0.3024 0.5961 0.03 Uiso calc U R 1
H H1 0.609(3) 0.535(4) 0.418(3) 0.028(8) Uiso d . . 1
H H2 0.999(3) 0.114(3) 0.451(3) 0.026(7) Uiso d . . 1
loop_
_atom_site_aniso_label
_atom_site_aniso_U_11
_atom_site_aniso_U_22
_atom_site_aniso_U_33
_atom_site_aniso_U_12
_atom_site_aniso_U_13
_atom_site_aniso_U_23
Br1 0.05174(19) 0.0777(3) 0.02147(14) -0.01745(18) 0.01129(12) 0.00418(15)
C4 0.0239(13) 0.0232(12) 0.0267(14) 0.0001(10) 0.0084(11) 0.0031(9)
O2 0.0285(11) 0.0620(15) 0.0707(17) -0.0101(10) 0.0277(12) -0.0167(12)
C3 0.0146(11) 0.0218(12) 0.0201(12) -0.0032(8) 0.0019(9) 0.0025(8)
N1 0.0153(10) 0.0269(11) 0.0279(12) 0.0060(9) 0.0056(9) 0.0068(8)
C6 0.0315(14) 0.0411(17) 0.0200(14) -0.0058(11) 0.0049(11) -0.0018(10)
C5 0.0352(15) 0.0287(13) 0.0264(14) -0.0033(11) 0.0138(12) -0.0052(10)
C2 0.0143(11) 0.0213(11) 0.0219(12) -0.0021(9) 0.0060(10) 0.0005(9)
C17 0.0167(10) 0.0227(10) 0.0211(10) -0.0024(11) 0.0072(8) 0.0029(11)
C11 0.0204(11) 0.0187(13) 0.0241(12) -0.0018(9) 0.0042(10) 0.0010(8)
C16 0.0313(14) 0.0461(19) 0.0245(14) -0.0118(12) 0.0048(11) 0.0061(11)
C15 0.0394(18) 0.088(3) 0.0259(17) -0.0277(17) -0.0055(14) 0.0103(15)
C14 0.0250(16) 0.079(3) 0.043(2) -0.0218(16) -0.0026(14) 0.0097(17)
C1 0.0157(12) 0.0212(12) 0.0250(13) -0.0022(9) 0.0066(10) 0.0012(9)
C8 0.0139(11) 0.0241(12) 0.0245(13) -0.0011(9) 0.0042(10) 0.0026(9)
C7 0.0179(12) 0.0364(15) 0.0262(14) -0.0018(11) -0.0012(11) 0.0085(11)
C9 0.0234(13) 0.0310(14) 0.0336(16) -0.0008(11) 0.0137(12) -0.0027(11)
C10 0.0344(16) 0.0337(15) 0.0482(19) 0.0049(12) 0.0175(14) -0.0090(12)
C18 0.0158(12) 0.0243(13) 0.0298(14) -0.0013(9) 0.0064(10) 0.0050(10)
N2 0.0205(11) 0.0295(12) 0.0345(14) -0.0051(9) 0.0073(10) 0.0068(10)
O1 0.0342(12) 0.0578(15) 0.0441(15) -0.0144(10) 0.0029(10) -0.0116(11)
C13 0.0232(14) 0.0449(17) 0.0370(17) -0.0083(12) 0.0081(12) 0.0068(13)
C12 0.0201(12) 0.0271(13) 0.0253(14) -0.0022(9) 0.0049(11) 0.0021(9)
loop_
_atom_type_symbol
_atom_type_description
_atom_type_scat_dispersion_real
_atom_type_scat_dispersion_imag
_atom_type_scat_source
C C 0.0033 0.0016 'International Tables Vol C Tables 4.2.6.8 and 6.1.1.4'
H H 0.0000 0.0000 'International Tables Vol C Tables 4.2.6.8 and 6.1.1.4'
N N 0.0061 0.0033 'International Tables Vol C Tables 4.2.6.8 and 6.1.1.4'
O O 0.0106 0.0060 'International Tables Vol C Tables 4.2.6.8 and 6.1.1.4'
Br Br -0.2901 2.4595 'International Tables Vol C Tables 4.2.6.8 and 6.1.1.4'
loop_
_geom_angle_atom_site_label_1
_geom_angle_atom_site_label_2
_geom_angle_atom_site_label_3
_geom_angle
C5 C4 C3 119.2(2)
C5 C4 H2 120.6(17)
C3 C4 H2 120.3(17)
C4 C3 C8 118.2(2)
C4 C3 C2 135.6(2)
C8 C3 C2 106.2(2)
C8 N1 C1 109.9(2)
C8 N1 H1 120.(2)
C1 N1 H1 129.(2)
C7 C6 C5 121.2(3)
C7 C6 H4 119.4
C5 C6 H4 119.4
C4 C5 C6 121.3(3)
C4 C5 H3 119.3
C6 C5 H3 119.3
C1 C2 C3 106.9(2)
C1 C2 C17 123.6(2)
C3 C2 C17 129.3(2)
C2 C17 C11 116.5(2)
C2 C17 C18 112.2(2)
C11 C17 C18 107.5(2)
C2 C17 H13 106.7
C11 C17 H13 106.7
C18 C17 H13 106.7
C16 C11 C12 116.5(2)
C16 C11 C17 121.8(2)
C12 C11 C17 121.7(2)
C11 C16 C15 122.8(3)
C11 C16 Br1 120.65(19)
C15 C16 Br1 116.6(2)
C14 C15 C16 119.1(3)
C14 C15 H9 120.5
C16 C15 H9 120.5
C15 C14 C13 119.9(3)
C15 C14 H10 120.0
C13 C14 H10 120.0
N1 C1 C2 109.3(2)
N1 C1 C9 121.2(2)
C2 C1 C9 129.5(2)
N1 C8 C7 129.5(2)
N1 C8 C3 107.7(2)
C7 C8 C3 122.8(2)
C6 C7 C8 117.2(2)
C6 C7 H5 121.4
C8 C7 H5 121.4
C10 C9 C1 125.5(3)
C10 C9 H6 117.3
C1 C9 H6 117.3
C9 C10 H8 120.0
C9 C10 H7 120.0
H8 C10 H7 120.0
N2 C18 C17 109.76(19)
N2 C18 H15 109.7
C17 C18 H15 109.7
N2 C18 H14 109.7
C17 C18 H14 109.7
H15 C18 H14 108.2
O1 N2 O2 123.8(2)
O1 N2 C18 118.3(2)
O2 N2 C18 117.9(2)
C14 C13 C12 120.3(3)
C14 C13 H11 119.9
C12 C13 H11 119.9
C13 C12 C11 121.4(3)
C13 C12 H12 119.3
C11 C12 H12 119.3
loop_
_geom_bond_atom_site_label_1
_geom_bond_atom_site_label_2
_geom_bond_distance
Br1 C16 1.914(3)
C4 C5 1.385(4)
C4 C3 1.396(3)
C4 H2 0.96(3)
O2 N2 1.223(3)
C3 C8 1.418(3)
C3 C2 1.449(3)
N1 C8 1.370(3)
N1 C1 1.372(3)
N1 H1 0.76(3)
C6 C7 1.381(4)
C6 C5 1.397(4)
C6 H4 0.93
C5 H3 0.93
C2 C1 1.375(3)
C2 C17 1.512(3)
C17 C11 1.523(3)
C17 C18 1.539(4)
C17 H13 0.98
C11 C16 1.386(4)
C11 C12 1.396(3)
C16 C15 1.387(4)
C15 C14 1.375(5)
C15 H9 0.93
C14 C13 1.378(4)
C14 H10 0.93
C1 C9 1.458(4)
C8 C7 1.392(4)
C7 H5 0.93
C9 C10 1.323(4)
C9 H6 0.93
C10 H8 0.93
C10 H7 0.93
C18 N2 1.499(3)
C18 H15 0.97
C18 H14 0.97
N2 O1 1.204(3)
C13 C12 1.384(4)
C13 H11 0.93
C12 H12 0.93
