#------------------------------------------------------------------------------
#$Date: 2017-03-25 09:23:54 +0200 (Sat, 25 Mar 2017) $
#$Revision: 194513 $
#$URL: file:///home/coder/svn-repositories/cod/cif/1/54/56/1545649.cif $
#------------------------------------------------------------------------------
#
# This file is available in the Crystallography Open Database (COD),
# http://www.crystallography.net/. The original data for this entry
# were provided by IUCr Journals, http://journals.iucr.org/.
#
# The file may be used within the scientific community so long as
# proper attribution is given to the journal article from which the
# data were obtained.
#
data_1545649
loop_
_publ_author_name
'Essaghouani, Abdelhanine'
'Boulhaoua, Mohammed'
'Lahmidi, Sanae'
'Mohamed Abdelahi, Mohamed Mokhtar'
'Essassi, El Mokhtar'
'Mague, Joel T.'
_publ_section_title
;
 (3<i>S</i>)-3,8-Dibromo-4-phenyl-2,3-dihydro-1<i>H</i>-1,5-benzodiazapin-2-one
;
_journal_coeditor_code           BH4023
_journal_issue                   3
_journal_name_full               IUCrData
_journal_page_first              x170389
_journal_paper_doi               10.1107/S2414314617003893
_journal_volume                  2
_journal_year                    2017
_chemical_formula_iupac          'C15 H10 Br2 N2 O'
_chemical_formula_moiety         'C15 H10 Br2 N2 O'
_chemical_formula_sum            'C15 H10 Br2 N2 O'
_chemical_formula_weight         394.07
_chemical_name_systematic
(3<i>S</i>)-3,8-Dibromo-4-phenyl-2,3-dihydro-1<i>H</i>-1,5-benzodiazapin-2-one
_space_group_crystal_system      triclinic
_space_group_IT_number           2
_space_group_name_Hall           '-P 1'
_space_group_name_H-M_alt        'P -1'
_symmetry_space_group_name_Hall  '-P 1'
_symmetry_space_group_name_H-M   'P -1'
_atom_sites_solution_hydrogens   mixed
_atom_sites_solution_primary     direct
_atom_sites_solution_secondary   difmap
_audit_creation_method           SHELXL-2014/7
_cell_angle_alpha                101.7510(10)
_cell_angle_beta                 105.968(2)
_cell_angle_gamma                109.4820(10)
_cell_formula_units_Z            2
_cell_length_a                   7.8931(8)
_cell_length_b                   9.9295(10)
_cell_length_c                   10.2411(11)
_cell_measurement_reflns_used    8714
_cell_measurement_temperature    100(2)
_cell_measurement_theta_max      29.2599
_cell_measurement_theta_min      2.1879
_cell_volume                     687.77(12)
_computing_cell_refinement
;
SAINT (Bruker, 2016)
;
_computing_data_collection
;
APEX3 (Bruker, 2016)
;
_computing_data_reduction
;
SAINT (Bruker, 2016)
;
_computing_molecular_graphics
;
DIAMOND (Brandenburg & Putz, 2012)
;
_computing_publication_material
;
SHELXTL (Sheldrick, 2008)
;
_computing_structure_refinement
;
<i>SHELXL2014/7</i> (Sheldrick, 2015<i>b</i>)
;
_computing_structure_solution
;
SHELXT (Sheldrick, 2015<i>a</i>)
;
_diffrn_ambient_temperature      100(2)
_diffrn_detector_area_resol_mean 8.3333
_diffrn_measured_fraction_theta_full 0.992
_diffrn_measured_fraction_theta_max 0.978
_diffrn_measurement_device_type  'Bruker SMART APEX CCD'
_diffrn_measurement_method       '\f and \w scans'
_diffrn_radiation_monochromator  graphite
_diffrn_radiation_type           MoK\a
_diffrn_radiation_wavelength     0.71073
_diffrn_reflns_av_R_equivalents  0.0234
_diffrn_reflns_limit_h_max       10
_diffrn_reflns_limit_h_min       -10
_diffrn_reflns_limit_k_max       13
_diffrn_reflns_limit_k_min       -13
_diffrn_reflns_limit_l_max       14
_diffrn_reflns_limit_l_min       -14
_diffrn_reflns_number            13311
_diffrn_reflns_theta_full        28.500
_diffrn_reflns_theta_max         29.260
_diffrn_reflns_theta_min         2.188
_exptl_absorpt_coefficient_mu    5.889
_exptl_absorpt_correction_T_max  0.54
_exptl_absorpt_correction_T_min  0.39
_exptl_absorpt_correction_type   multi-scan
_exptl_absorpt_process_details
;
(<i>SADABS</i>; Bruker, 2016)
;
_exptl_crystal_colour            'light yellow'
_exptl_crystal_density_diffrn    1.903
_exptl_crystal_density_method    'not measured'
_exptl_crystal_description       'thick plate'
_exptl_crystal_F_000             384
_exptl_crystal_size_max          0.350
_exptl_crystal_size_mid          0.310
_exptl_crystal_size_min          0.120
_refine_diff_density_max         1.598
_refine_diff_density_min         -0.702
_refine_ls_extinction_method     none
_refine_ls_goodness_of_fit_ref   1.070
_refine_ls_hydrogen_treatment    constr
_refine_ls_matrix_type           full
_refine_ls_number_parameters     185
_refine_ls_number_reflns         3674
_refine_ls_number_restraints     1
_refine_ls_restrained_S_all      1.072
_refine_ls_R_factor_all          0.0326
_refine_ls_R_factor_gt           0.0282
_refine_ls_shift/su_max          0.001
_refine_ls_shift/su_mean         0.000
_refine_ls_structure_factor_coef Fsqd
_refine_ls_weighting_details
'w=1/[\s^2^(Fo^2^)+(0.0370P)^2^+0.8581P] where P=(Fo^2^+2Fc^2^)/3'
_refine_ls_weighting_scheme      calc
_refine_ls_wR_factor_gt          0.0716
_refine_ls_wR_factor_ref         0.0731
_reflns_number_gt                3263
_reflns_number_total             3674
_reflns_threshold_expression     'I > 2\s(I)'
_cod_data_source_file            bh4023sup1.cif
_cod_data_source_block           I
_cod_database_code               1545649
_shelx_estimated_absorpt_t_min   0.232
_shelx_estimated_absorpt_t_max   0.538
_shelx_hkl_file
;
  -1   0   0  262.01    6.61
  -1   0   0  268.15    6.56
  -1   0   0  248.71    6.57
   1   0   0  253.19    6.60
   1   0   0  257.69    6.57
   1   0   0  255.75    6.59
   1   0   0  255.60    6.58
  -2   0   0   31.20    0.84
  -2   0   0   30.69    0.83
  -2   0   0   31.06    0.83
   2   0   0   31.70    0.83
   2   0   0   31.03    0.87
   2   0   0   31.62    0.83
  -3   0   0   80.39    2.07
  -3   0   0   76.86    2.08
  -3   0   0   78.78    2.07
   3   0   0   81.31    2.07
   3   0   0   77.85    2.06
   3   0   0   78.53    2.07
   3   0   0   79.51    2.13
  -4   0   0    0.51    0.11
  -4   0   0    1.07    0.13
  -4   0   0    0.68    0.13
   4   0   0    0.47    0.10
   4   0   0    0.52    0.10
   4   0   0    0.61    0.11
   4   0   0    1.25    0.19
  -5   0   0    7.01    0.32
  -5   0   0    6.54    0.32
  -5   0   0    7.12    0.32
   5   0   0    7.12    0.41
   5   0   0    6.75    0.31
   5   0   0    7.01    0.32
   5   0   0    7.21    0.31
  -6   0   0   26.83    0.84
  -6   0   0   26.71    0.86
   6   0   0   26.79    0.84
   6   0   0   27.89    1.00
  -7   0   0   79.37    2.18
   7   0   0   78.02    2.34
  -8   0   0   16.77    0.73
   8   0   0   17.82    0.97
   9   0   0    7.29    0.86
   9  -1   0    0.29    0.57
  -9   1   0    0.23    0.31
   8  -1   0    0.36    0.40
  -8   1   0    0.37    0.26
   7  -1   0    0.27    0.35
  -7   1   0    0.19    0.25
  -7   1   0    0.24    0.21
   6  -1   0   85.93    2.43
   6  -1   0   84.99    2.30
  -6   1   0   85.04    2.30
  -6   1   0   85.79    2.34
   5  -1   0  158.14    4.02
   5  -1   0  157.06    4.05
   5  -1   0  150.05    4.14
  -5   1   0  155.45    4.04
  -5   1   0  155.21    4.08
   4  -1   0  135.49    3.56
   4  -1   0  138.33    3.54
   4  -1   0  139.83    3.64
   4  -1   0  130.97    3.55
  -4   1   0  138.98    3.59
  -4   1   0  141.16    3.56
  -4   1   0  134.97    3.56
   3  -1   0    0.23    0.11
   3  -1   0    0.37    0.06
   3  -1   0    0.21    0.06
   3  -1   0    0.21    0.07
  -3   1   0    0.28    0.07
  -3   1   0    0.17    0.06
  -3   1   0    0.32    0.09
   2  -1   0   70.03    1.88
   2  -1   0   73.42    1.87
   2  -1   0   74.90    1.92
  -2   1   0   73.98    1.88
  -2   1   0   70.73    1.90
   1  -1   0   36.26    0.98
   1  -1   0   37.01    0.95
  -1   1   0   37.79    0.95
  -1   1   0   36.62    0.97
   0  -1   0    0.37    0.02
   0   1   0    0.45    0.04
   0   1   0    0.45    0.05
  -1  -1   0  146.10    3.76
  -1  -1   0  146.09    3.76
   1   1   0  150.55    3.76
   1   1   0  148.66    3.78
   1   1   0  142.60    3.77
  -2  -1   0  141.60    3.59
  -2  -1   0  141.60    3.59
  -2  -1   0  137.94    3.59
   2   1   0  141.65    3.59
   2   1   0  134.73    3.63
   2   1   0  137.99    3.60
   2   1   0  140.04    3.59
  -3  -1   0  187.05    4.82
  -3  -1   0  194.29    4.83
  -3  -1   0  184.72    4.83
   3   1   0  188.05    4.82
   3   1   0  185.85    4.83
   3   1   0  185.32    4.88
   3   1   0  184.00    4.82
  -4  -1   0   12.50    0.42
  -4  -1   0   12.21    0.42
  -4  -1   0   12.03    0.42
   4   1   0   13.16    0.42
   4   1   0   11.87    0.49
   4   1   0   11.70    0.41
   4   1   0   12.42    0.42
  -5  -1   0   13.85    0.49
  -5  -1   0   13.71    0.50
  -5  -1   0   13.42    0.49
   5   1   0   13.68    0.49
   5   1   0   13.58    0.48
   5   1   0   14.08    0.63
  -6  -1   0    0.33    0.19
   6   1   0    0.11    0.20
   6   1   0    0.76    0.32
   7   1   0    1.55    0.28
   7   1   0    0.87    0.41
   8   1   0    0.48    0.53
   9   1   0    4.57    0.81
 -10   2   0   13.52    0.77
   9  -2   0    2.86    0.61
  -9   2   0    2.77    0.37
   8  -2   0    0.37    0.38
  -8   2   0    0.40    0.35
  -8   2   0    0.06    0.23
   7  -2   0    1.34    0.21
   7  -2   0    1.65    0.38
  -7   2   0    1.51    0.29
  -7   2   0    1.45    0.23
   6  -2   0    3.49    0.37
  -6   2   0    3.84    0.31
  -6   2   0    3.92    0.27
   5  -2   0    0.03    0.10
   5  -2   0    0.08    0.18
   5  -2   0    0.12    0.12
  -5   2   0    0.02    0.10
  -5   2   0   -0.01    0.15
   4  -2   0   10.22    0.34
   4  -2   0   10.35    0.30
   4  -2   0   10.62    0.33
   4  -2   0   10.51    0.41
  -4   2   0    9.34    0.37
  -4   2   0    9.64    0.33
   3  -2   0  233.24    5.83
   3  -2   0  224.14    5.90
   3  -2   0  228.28    5.84
  -3   2   0  229.29    5.88
  -3   2   0  224.96    5.84
   2  -2   0  382.64    9.98
   2  -2   0  386.72    9.94
   2  -2   0  389.77    9.97
  -2   2   0  388.99    9.96
  -2   2   0  394.13    9.96
  -2   2   0  394.17    9.94
  -1   2   0   31.14    0.83
  -1   2   0   29.05    0.80
  -1   2   0   30.53    0.81
   0  -2   0   38.55    0.97
   0  -2   0   38.16    0.98
   0  -2   0   36.62    0.99
   0   2   0   39.02    0.99
   0   2   0   38.72    1.02
   0   2   0   35.59    1.00
  -1  -2   0   41.29    1.10
  -1  -2   0   41.47    1.09
   1   2   0   40.78    1.12
   1   2   0   43.43    1.13
   1   2   0   40.62    1.08
  -2  -2   0   60.73    1.58
  -2  -2   0   61.10    1.57
  -2  -2   0   60.33    1.58
   2   2   0   60.85    1.61
   2   2   0   56.93    1.57
   2   2   0   59.49    1.63
  -3  -2   0    8.14    0.31
  -3  -2   0    8.15    0.29
  -3  -2   0    8.25    0.30
   3   2   0    8.48    0.38
   3   2   0    8.44    0.30
   3   2   0    8.02    0.32
   3   2   0    7.87    0.29
  -4  -2   0  141.66    3.66
  -4  -2   0  143.15    3.64
  -4  -2   0  139.47    3.66
   4   2   0  139.65    3.68
   4   2   0  135.89    3.75
   4   2   0  138.73    3.65
  -5  -2   0  139.57    3.64
   5   2   0  138.21    3.63
   5   2   0  141.96    3.66
   5   2   0  132.03    3.76
   6   2   0    7.19    0.62
   6   2   0    7.44    0.42
   7   2   0    0.83    0.28
   7   2   0    0.77    0.48
   8   2   0    9.49    0.87
   8   2   0    8.84    0.62
  10  -3   0    0.16    0.62
 -10   3   0    0.05    0.34
   9  -3   0   15.15    0.94
  -9   3   0   14.66    0.66
   8  -3   0   54.80    1.59
   8  -3   0   56.97    1.79
  -8   3   0   57.04    1.69
  -8   3   0   53.04    1.57
   7  -3   0   29.89    1.09
   7  -3   0   30.25    0.93
  -7   3   0   30.27    0.92
  -7   3   0   30.92    1.02
   6  -3   0    2.83    0.23
   6  -3   0    3.00    0.34
  -6   3   0    2.72    0.30
  -6   3   0    3.03    0.24
   5  -3   0   96.76    2.67
   5  -3   0   97.47    2.57
  -5   3   0   97.58    2.56
  -5   3   0   99.81    2.64
   4  -3   0    0.85    0.17
   4  -3   0    1.14    0.11
   4  -3   0    1.18    0.11
  -4   3   0    1.24    0.12
  -4   3   0    1.41    0.13
  -4   3   0    0.96    0.14
   3  -3   0   22.44    0.62
   3  -3   0   22.29    0.69
   3  -3   0   22.36    0.61
   3  -3   0   22.49    0.61
  -3   3   0   23.31    0.61
  -3   3   0   23.31    0.61
  -3   3   0   22.22    0.67
   2  -3   0    0.74    0.05
   2  -3   0    0.81    0.12
   2  -3   0    0.75    0.05
  -2   3   0    0.85    0.12
  -2   3   0    0.81    0.08
  -2   3   0    0.82    0.10
  -1   3   0  219.55    5.83
  -1   3   0  230.12    5.79
  -1   3   0  227.78    5.80
   0  -3   0  366.35    9.34
   0  -3   0  345.48    9.33
   0  -3   0  397.48    9.36
   0   3   0  346.29    9.37
   0   3   0  371.03    9.36
  -1  -3   0   29.80    0.81
  -1  -3   0   30.36    0.85
   1   3   0   30.06    0.80
   1   3   0   31.80    0.88
   1   3   0   29.56    0.81
   1   3   0   29.91    0.85
  -2  -3   0  107.73    2.79
  -2  -3   0  107.48    2.80
  -2  -3   0  108.33    2.81
   2   3   0  107.81    2.87
   2   3   0  107.11    2.79
   2   3   0  107.05    2.84
  -3  -3   0   16.01    0.47
  -3  -3   0   15.49    0.51
  -3  -3   0   15.98    0.50
   3   3   0   14.18    0.48
   3   3   0   15.32    0.53
   3   3   0   16.12    0.60
  -4  -3   0    0.05    0.13
   4   3   0    0.14    0.16
   4   3   0    0.16    0.13
   4   3   0    0.02    0.24
  -5  -3   0    4.40    0.35
   5   3   0    4.70    0.33
   5   3   0    4.30    0.52
   5   3   0    4.28    0.38
   6   3   0    8.75    0.53
   6   3   0    8.38    0.73
   6   3   0    7.96    0.46
   7   3   0   43.57    1.64
   7   3   0   42.53    1.32
   8   3   0    8.22    0.65
   8   3   0    8.66    1.08
  10  -4   0   10.24    0.99
 -10   4   0   10.21    0.60
   9  -4   0   11.48    0.56
   9  -4   0   10.69    0.75
  -9   4   0   10.27    0.52
  -9   4   0   10.46    0.67
   8  -4   0    0.97    0.41
   8  -4   0    1.19    0.22
  -8   4   0    1.05    0.35
  -8   4   0    1.01    0.22
   7  -4   0    0.24    0.27
   7  -4   0    0.06    0.16
  -7   4   0    0.20    0.26
  -7   4   0   -0.07    0.14
   6  -4   0   17.25    0.71
   6  -4   0   18.50    0.58
  -6   4   0   18.48    0.56
  -6   4   0   19.09    0.69
   5  -4   0   83.45    2.34
   5  -4   0   84.41    2.23
  -5   4   0   84.75    2.31
  -5   4   0   86.01    2.21
   4  -4   0   47.91    1.30
   4  -4   0   50.18    1.29
   4  -4   0   47.77    1.29
   4  -4   0   48.62    1.40
  -4   4   0   50.55    1.28
  -4   4   0   47.42    1.37
  -4   4   0   49.52    1.29
   3  -4   0   13.80    0.47
   3  -4   0   12.84    0.36
   3  -4   0   13.23    0.36
   3  -4   0   12.23    0.39
  -3   4   0   13.01    0.45
  -3   4   0   13.24    0.39
   2  -4   0   65.19    1.80
  -2   4   0   64.30    1.79
  -2   4   0   66.26    1.77
  -2   4   0   68.70    1.74
   1  -4   0    0.89    0.12
  -1   4   0    1.23    0.13
  -1   4   0    1.00    0.12
  -1   4   0    1.67    0.18
   0  -4   0   51.52    1.34
   0  -4   0   51.35    1.37
   0  -4   0   51.07    1.33
   0   4   0   51.09    1.39
   0   4   0   51.24    1.43
  -1  -4   0   18.18    0.56
  -1  -4   0   17.25    0.51
   1   4   0   19.01    0.61
   1   4   0   17.35    0.57
   1   4   0   17.93    0.52
   1   4   0   18.27    0.49
  -2  -4   0  172.59    4.41
  -2  -4   0  171.47    4.42
   2   4   0  167.59    4.40
   2   4   0  172.52    4.51
   2   4   0  169.61    4.47
  -3  -4   0  108.12    2.89
   3   4   0  109.37    2.94
   3   4   0  111.75    2.87
   3   4   0  109.53    3.00
  -4  -4   0    2.36    0.26
   4   4   0    2.83    0.39
   4   4   0    2.03    0.27
   4   4   0    2.59    0.25
  -5  -4   0   19.57    0.72
   5   4   0   20.35    0.69
   5   4   0   20.13    0.91
   5   4   0   20.94    0.77
   6   4   0    9.36    0.52
   6   4   0    8.62    0.78
   6   4   0    9.67    0.60
   7   4   0    0.77    0.34
   7   4   0    0.89    0.63
  10  -5   0   11.52    0.91
  10  -5   0   13.46    1.03
 -10   5   0   13.39    0.65
 -10   5   0   16.04    0.90
   9  -5   0    0.21    0.46
   9  -5   0    0.04    0.22
  -9   5   0    0.31    0.38
  -9   5   0    0.03    0.22
   8  -5   0   11.35    0.49
   8  -5   0   11.87    0.67
  -8   5   0   10.85    0.45
  -8   5   0   11.31    0.65
   7  -5   0    7.75    0.36
   7  -5   0    8.28    0.53
  -7   5   0    8.39    0.51
  -7   5   0    7.27    0.33
   6  -5   0    1.27    0.15
   6  -5   0    1.41    0.31
  -6   5   0    1.23    0.26
  -6   5   0    1.13    0.13
   5  -5   0    0.07    0.08
   5  -5   0   -0.04    0.20
  -5   5   0    0.10    0.18
   4  -5   0   69.44    1.84
   4  -5   0   69.24    1.95
   4  -5   0   69.63    1.82
   4  -5   0   73.41    1.82
  -4   5   0   67.72    1.92
   3  -5   0  220.40    5.85
   3  -5   0  223.20    5.78
   3  -5   0  223.01    5.73
   3  -5   0  228.41    5.73
  -3   5   0  225.94    5.83
  -3   5   0  223.98    5.86
  -3   5   0  226.52    5.78
  -2   5   0   27.69    0.84
  -2   5   0   27.68    0.78
  -2   5   0   26.15    0.79
   1  -5   0    5.40    0.25
  -1   5   0    5.82    0.25
  -1   5   0    6.22    0.33
  -1   5   0    5.08    0.25
   0  -5   0   89.76    2.39
   0  -5   0   92.10    2.35
   0  -5   0   94.23    2.34
   0   5   0   90.80    2.47
   0   5   0   85.49    2.41
  -1  -5   0   43.46    1.23
  -1  -5   0   42.43    1.17
   1   5   0   45.16    1.30
   1   5   0   44.03    1.14
   1   5   0   42.15    1.24
   1   5   0   44.72    1.17
  -2  -5   0    0.08    0.12
   2   5   0    0.25    0.09
   2   5   0    0.24    0.24
   2   5   0    0.08    0.17
  -3  -5   0    4.09    0.27
   3   5   0    3.96    0.35
   3   5   0    3.72    0.24
   3   5   0    4.49    0.47
  -4  -5   0   28.50    0.91
   4   5   0   29.75    0.99
   4   5   0   29.79    0.89
   4   5   0   31.11    1.11
  -5  -5   0   33.07    1.07
   5   5   0   33.96    1.03
   5   5   0   34.50    1.14
   5   5   0   34.10    1.30
   6   5   0    0.61    0.38
   6   5   0    1.02    0.29
   7   5   0   14.32    0.72
  10  -6   0    0.27    0.58
  10  -6   0    0.45    0.32
 -10   6   0    0.47    0.28
 -10   6   0    0.32    0.52
   9  -6   0   17.71    0.95
   9  -6   0   17.12    0.66
  -9   6   0   16.57    0.85
  -9   6   0   15.89    0.59
   8  -6   0   30.06    0.93
   8  -6   0   30.05    1.13
  -8   6   0   29.74    0.87
  -8   6   0   29.77    1.09
   7  -6   0   16.22    0.74
   7  -6   0   16.40    0.55
  -7   6   0   16.20    0.49
  -7   6   0   16.62    0.71
   6  -6   0   16.00    0.51
   6  -6   0   16.46    0.67
  -6   6   0   16.02    0.66
   5  -6   0  148.62    4.01
   5  -6   0  150.15    3.87
  -5   6   0  150.44    4.00
   4  -6   0    8.26    0.41
   4  -6   0    8.99    0.27
   4  -6   0    8.82    0.33
   4  -6   0    8.63    0.27
  -4   6   0    9.43    0.34
  -4   6   0    9.34    0.42
   3  -6   0    0.67    0.19
  -3   6   0    0.93    0.18
  -3   6   0    0.68    0.13
  -3   6   0    0.53    0.17
   2  -6   0    0.50    0.14
  -2   6   0    0.48    0.13
  -2   6   0    0.61    0.19
  -2   6   0    0.88    0.16
   1  -6   0   60.24    1.57
   1  -6   0   62.82    1.56
   1  -6   0   59.82    1.64
  -1   6   0   61.30    1.73
  -1   6   0   56.68    1.65
  -1   6   0   60.61    1.66
   0  -6   0  118.46    3.06
   0  -6   0  111.94    3.04
   0  -6   0  119.70    3.00
   0   6   0  118.36    3.15
   0   6   0  111.12    3.08
  -1  -6   0    3.66    0.20
   1   6   0    3.56    0.29
   1   6   0    3.61    0.38
  -2  -6   0   58.52    1.61
   2   6   0   59.24    1.76
   2   6   0   60.02    1.70
   2   6   0   58.38    1.56
  -3  -6   0   10.27    0.43
   3   6   0   10.73    0.39
   3   6   0   10.56    0.65
   3   6   0   10.86    0.55
  -4  -6   0    1.61    0.25
   4   6   0    1.64    0.21
   4   6   0    1.99    0.36
  -5  -6   0    0.13    0.25
   5   6   0    0.45    0.23
   5   6   0    0.07    0.35
   6   6   0    7.79    0.53
   6   6   0    7.70    0.72
  10  -7   0   27.82    0.98
  10  -7   0   30.71    1.36
 -10   7   0   28.26    0.88
 -10   7   0   31.21    1.28
   9  -7   0   16.42    0.67
   9  -7   0   18.18    0.96
  -9   7   0   19.78    0.94
   8  -7   0    0.45    0.41
   8  -7   0    0.42    0.18
  -8   7   0    0.59    0.38
   7  -7   0    0.62    0.16
   7  -7   0    0.56    0.36
  -7   7   0    0.54    0.32
   6  -7   0   71.79    2.13
   6  -7   0   73.05    1.95
  -6   7   0   75.61    2.12
   5  -7   0   49.28    1.47
   5  -7   0   48.18    1.29
  -5   7   0   47.78    1.44
   4  -7   0   17.50    0.57
   4  -7   0   17.07    0.47
   4  -7   0   16.59    0.66
   4  -7   0   17.24    0.47
  -4   7   0   18.61    0.65
  -4   7   0   16.53    0.67
  -4   7   0   16.71    0.56
   3  -7   0  131.11    3.52
  -3   7   0  131.46    3.44
  -3   7   0  129.60    3.52
  -3   7   0  131.17    3.49
   2  -7   0  105.33    2.88
  -2   7   0  106.76    2.93
  -2   7   0  108.44    2.88
  -2   7   0  110.28    2.87
   1  -7   0    0.59    0.17
   1  -7   0    0.53    0.09
   1  -7   0    0.53    0.07
  -1   7   0    0.79    0.27
  -1   7   0    0.56    0.18
   0  -7   0    0.12    0.10
   0   7   0    0.15    0.27
   0   7   0    0.07    0.18
  -1  -7   0   16.26    0.52
   1   7   0   15.75    0.74
   1   7   0   16.11    0.64
  -2  -7   0   18.59    0.60
   2   7   0   18.93    0.73
   2   7   0   17.61    0.52
  -3  -7   0   10.32    0.45
   3   7   0   10.33    0.39
   3   7   0   11.11    0.57
  -4  -7   0    9.00    0.49
   4   7   0    9.09    0.63
   4   7   0    8.63    0.42
  -5  -7   0   35.72    1.20
   5   7   0   36.75    1.32
   5   7   0   36.74    1.12
  10  -8   0    0.98    0.62
  10  -8   0    1.30    0.32
 -10   8   0    0.60    0.56
   9  -8   0    2.47    0.52
   9  -8   0    2.41    0.28
  -9   8   0    2.26    0.50
   8  -8   0   39.65    1.15
   8  -8   0   38.44    1.37
  -8   8   0   39.89    1.38
   7  -8   0   38.50    1.10
   7  -8   0   40.33    1.34
  -7   8   0   37.57    1.28
   6  -8   0    9.09    0.59
   6  -8   0    9.55    0.34
  -6   8   0    9.38    0.52
   5  -8   0    0.03    0.26
   5  -8   0    0.04    0.09
  -5   8   0    0.10    0.25
   4  -8   0    0.32    0.18
   4  -8   0    0.31    0.25
  -4   8   0    0.31    0.23
  -4   8   0    0.39    0.25
  -4   8   0    0.31    0.17
   3  -8   0   44.37    1.35
   3  -8   0   46.17    1.32
  -3   8   0   43.38    1.35
  -3   8   0   41.29    1.27
  -3   8   0   44.86    1.31
   2  -8   0    1.62    0.25
   2  -8   0    1.13    0.13
   2  -8   0    1.27    0.09
  -2   8   0    1.45    0.25
  -2   8   0    1.35    0.30
  -2   8   0    1.19    0.22
   1  -8   0   63.76    1.68
  -1   8   0   61.42    1.80
  -1   8   0   66.01    1.90
   0  -8   0   89.47    2.35
   0   8   0   89.20    2.48
  -1  -8   0    7.56    0.35
   1   8   0    7.53    0.49
  -2  -8   0    2.96    0.30
   2   8   0    2.32    0.35
  -3  -8   0    0.44    0.21
   3   8   0    0.24    0.36
  -4  -8   0   14.11    0.66
   4   8   0   13.29    0.52
   4   8   0   13.99    0.81
  -5  -8   0    1.09    0.37
   5   8   0    0.98    0.52
   9  -9   0    3.03    0.35
   9  -9   0    4.22    0.65
  -9   9   0    3.08    0.53
   8  -9   0   13.36    0.83
   8  -9   0   13.06    0.50
  -8   9   0   12.73    0.78
   7  -9   0    1.37    0.18
   7  -9   0    0.87    0.41
  -7   9   0    1.55    0.40
   6  -9   0   66.65    1.75
   6  -9   0   67.54    2.00
  -6   9   0   64.49    1.97
   5  -9   0  112.73    2.90
   5  -9   0  112.73    3.13
  -5   9   0  112.08    3.12
   4  -9   0    6.48    0.50
   4  -9   0    5.91    0.45
   4  -9   0    5.11    0.40
  -4   9   0    5.79    0.49
  -4   9   0    5.45    0.45
  -4   9   0    5.84    0.38
   3  -9   0   16.55    0.71
   3  -9   0   17.58    0.69
  -3   9   0   16.02    0.64
  -3   9   0   16.31    0.69
  -3   9   0   16.90    0.73
   2  -9   0    7.02    0.25
  -2   9   0    6.20    0.43
   1  -9   0   20.00    0.60
  -1   9   0   20.61    0.77
   0  -9   0   13.16    0.45
   0   9   0   12.52    0.62
  -1  -9   0   12.92    0.49
   1   9   0   12.51    0.66
  -2  -9   0   48.94    1.39
   2   9   0   47.18    1.56
  -3  -9   0   16.58    0.69
   3   9   0   18.26    0.89
  -4  -9   0    5.87    0.56
   4   9   0    7.84    1.09
   9 -10   0    0.40    0.52
   9 -10   0    1.17    0.27
  -9  10   0    1.15    0.54
   8 -10   0    1.45    0.21
   8 -10   0    1.27    0.49
  -8  10   0    1.37    0.44
   7 -10   0    0.28    0.38
   7 -10   0    0.21    0.14
  -7  10   0    0.08    0.34
   6 -10   0   17.38    0.82
   6 -10   0   18.45    0.53
   6 -10   0   17.84    0.84
  -6  10   0   15.86    0.80
   5 -10   0   11.10    0.33
   5 -10   0   11.17    0.69
   5 -10   0   10.74    0.64
  -5  10   0   11.47    0.65
   4 -10   0   23.34    0.89
  -4  10   0   21.66    0.86
  -3  10   0   99.71    2.71
  -3  10   0   96.26    2.75
   2 -10   0   43.99    1.18
  -2  10   0   44.18    1.38
   1 -10   0    0.10    0.13
  -1  10   0    0.15    0.28
   0 -10   0    2.34    0.27
   0  10   0    2.84    0.41
  -1 -10   0    1.13    0.22
   1  10   0    1.40    0.41
  -2 -10   0    4.05    0.41
   2  10   0    4.53    0.57
   8 -11   0   36.13    1.38
   8 -11   0   34.41    1.01
   8 -11   0   33.08    1.31
  -8  11   0   32.49    1.36
   7 -11   0   23.97    1.08
   7 -11   0   25.63    0.75
  -7  11   0   24.52    1.10
   6 -11   0    2.93    0.22
   6 -11   0    3.20    0.50
  -6  11   0    2.75    0.49
   5 -11   0    6.46    0.61
  -5  11   0    6.15    0.61
   3 -11   0   17.50    0.51
  -3  11   0   17.38    0.76
   2 -11   0    0.62    0.14
  -2  11   0    0.31    0.33
   1 -11   0   55.89    1.54
  -1  11   0   56.73    1.77
   0 -11   0   32.08    0.93
   0  11   0   27.64    1.15
  -1 -11   0    4.16    0.39
   1  11   0    2.51    0.48
   7 -12   0    0.86    0.56
   7 -12   0    1.23    0.19
  -7  12   0    1.03    0.54
   6 -12   0   32.60    1.31
   6 -12   0   34.09    0.91
  -6  12   0   31.85    1.29
   3 -12   0    6.39    0.27
  -3  12   0    6.24    0.57
   2 -12   0    0.19    0.17
  -2  12   0   -0.02    0.40
   1 -12   0    8.66    0.42
  -1  12   0    8.32    0.73
   0  12   0    3.21    0.72
   3 -13   0   28.41    0.81
  -3  13   0   28.29    1.16
  -2  13  -1    6.41    0.72
   2 -13   1    6.42    0.33
   2 -13   1    7.19    0.86
  -3  13  -1    2.63    0.52
   3 -13   1    2.54    0.59
   3 -13   1    2.46    0.20
   0  12  -1   14.80    0.89
   0 -12   1   14.73    0.57
  -1  12  -1   11.31    0.76
   1 -12   1   12.19    0.46
  -2  12  -1    3.09    0.46
   2 -12   1    2.92    0.23
   2 -12   1    2.71    0.51
  -3  12  -1   42.85    1.42
   3 -12   1   42.65    1.42
  -5  12  -1    6.17    0.73
  -6  12  -1    0.18    0.44
   6 -12   1    0.35    0.47
   6 -12   1    0.30    0.12
  -7  12  -1   -0.16    0.51
   7 -12   1   -0.06    0.16
   7 -12   1   -0.29    0.49
   1  11  -1   26.34    1.12
  -1 -11   1   27.62    0.87
   0  11  -1    0.96    0.39
   0 -11   1    0.65    0.19
  -1  11  -1    4.43    0.53
   1 -11   1    5.24    0.27
  -2  11  -1    1.62    0.35
   2 -11   1    0.96    0.13
  -3  11  -1   24.78    0.93
   3 -11   1   25.28    0.95
  -4  11  -1    1.59    0.40
  -4  11  -1    1.66    0.55
  -5  11  -1    8.94    0.64
  -5  11  -1    7.65    0.75
   5 -11   1    8.47    0.72
   5 -11   1    8.79    0.63
  -6  11  -1   45.59    1.60
   6 -11   1   51.31    1.68
   6 -11   1   51.77    1.33
   7 -11   1   23.79    0.73
   7 -11   1   24.95    1.13
  -8  11  -1    0.12    0.50
   8 -11   1   -0.19    0.19
   8 -11   1   -0.06    0.54
   3  10  -1    0.65    0.48
  -3 -10   1    0.59    0.28
   2  10  -1    5.67    0.63
  -2 -10   1    5.57    0.41
   1  10  -1    1.78    0.37
  -1 -10   1    1.81    0.22
   0  10  -1   36.62    1.23
   0 -10   1   37.28    1.04
  -1  10  -1   98.80    2.79
   1 -10   1  100.59    2.60
  -2  10  -1   20.42    0.93
  -2  10  -1   21.32    0.81
   2 -10   1   21.66    0.59
  -3  10  -1    1.28    0.32
  -3  10  -1    1.08    0.39
  -3  10  -1    0.93    0.28
   3 -10   1    1.06    0.40
   3 -10   1    1.22    0.31
   3 -10   1    1.80    0.53
  -4  10  -1    0.44    0.36
  -4  10  -1    0.27    0.30
  -4  10  -1    0.09    0.31
   4 -10   1    0.08    0.27
   4 -10   1    0.19    0.35
  -5  10  -1    0.26    0.34
  -5  10  -1    0.13    0.32
   5 -10   1    0.41    0.40
   5 -10   1    0.34    0.10
  -6  10  -1    5.80    0.55
   6 -10   1    6.14    0.27
   6 -10   1    6.57    0.65
  -7  10  -1    2.70    0.49
   7 -10   1    2.99    0.48
   7 -10   1    3.54    0.27
  -8  10  -1   34.90    1.37
   8 -10   1   37.46    1.44
   8 -10   1   36.67    1.08
  -9  10  -1   32.42    1.32
   9 -10   1   34.95    1.47
   9 -10   1   31.84    1.03
   4   9  -1   25.37    1.12
  -4  -9   1   26.69    0.95
   3   9  -1    4.55    0.59
  -3  -9   1    3.92    0.40
   2   9  -1    0.88    0.32
  -2  -9   1    0.86    0.21
   1   9  -1    6.69    0.51
  -1  -9   1    7.26    0.33
   0   9  -1    0.98    0.46
   0   9  -1    1.03    0.30
   0  -9   1    1.18    0.15
  -1   9  -1    0.76    0.39
  -1   9  -1    0.68    0.27
   1  -9   1    0.97    0.12
  -2   9  -1   12.83    0.61
  -2   9  -1   12.94    0.70
  -2   9  -1   13.59    0.58
  -3   9  -1   39.56    1.29
  -3   9  -1   40.78    1.38
  -3   9  -1   42.85    1.27
   3  -9   1   44.46    1.39
   3  -9   1   43.53    1.29
   3  -9   1   44.05    1.30
  -4   9  -1   60.62    1.77
  -4   9  -1   64.62    1.90
  -4   9  -1   62.47    1.83
   4  -9   1   61.80    1.88
   4  -9   1   64.80    1.78
  -5   9  -1    0.75    0.30
   5  -9   1    1.77    0.40
   5  -9   1    0.67    0.11
  -6   9  -1    4.74    0.51
   6  -9   1    5.53    0.27
   6  -9   1    5.86    0.59
  -7   9  -1    0.33    0.32
   7  -9   1   -0.03    0.15
   7  -9   1    0.55    0.44
  -8   9  -1    2.24    0.45
   8  -9   1    3.63    0.57
   8  -9   1    3.28    0.33
  -9   9  -1   -0.26    0.50
   9  -9   1   -0.13    0.23
   9  -9   1    0.15    0.51
   5   8  -1    0.26    0.46
   5   8  -1    0.13    0.27
  -5  -8   1   -0.10    0.31
   4   8  -1    5.05    0.35
   4   8  -1    6.01    0.61
  -4  -8   1    5.57    0.45
   3   8  -1    3.79    0.50
  -3  -8   1    3.31    0.35
   2   8  -1  137.05    3.64
   2   8  -1  132.64    3.76
  -2  -8   1  129.19    3.49
   1   8  -1   49.63    1.62
   1   8  -1   48.01    1.47
  -1  -8   1   49.30    1.34
   0   8  -1    1.36    0.24
   0   8  -1    1.77    0.38
   0  -8   1    1.52    0.14
  -1   8  -1   28.13    1.04
  -1   8  -1   27.65    0.90
   1  -8   1   28.01    0.75
  -2   8  -1   -0.02    0.27
  -2   8  -1    0.61    0.20
  -2   8  -1    0.34    0.19
   2  -8   1    0.36    0.19
  -3   8  -1   35.02    1.05
  -3   8  -1   35.84    1.09
  -3   8  -1   35.59    1.17
   3  -8   1   34.74    1.16
   3  -8   1   35.97    1.07
  -4   8  -1    0.24    0.28
  -4   8  -1    0.12    0.18
  -4   8  -1    0.36    0.23
   4  -8   1    0.14    0.28
   4  -8   1    0.18    0.06
   4  -8   1    0.18    0.07
   4  -8   1    0.16    0.17
  -5   8  -1   88.14    2.47
   5  -8   1   88.58    2.29
   5  -8   1   86.76    2.51
  -6   8  -1   66.63    1.98
   6  -8   1   67.81    1.80
   6  -8   1   67.19    2.01
  -7   8  -1   29.80    1.07
   7  -8   1   30.41    1.13
   7  -8   1   30.79    0.90
  -8   8  -1   -0.06    0.33
   8  -8   1    0.05    0.43
   8  -8   1    0.48    0.19
  -9   8  -1    4.18    0.58
   9  -8   1    4.79    0.68
   9  -8   1    3.92    0.42
   6   7  -1   13.74    0.86
   5   7  -1    0.65    0.41
   5   7  -1    0.35    0.23
  -5  -7   1    0.13    0.28
   4   7  -1    8.44    1.02
   4   7  -1    6.97    0.37
   4   7  -1    8.03    0.56
  -4  -7   1    7.36    0.45
   3   7  -1    0.04    0.40
   3   7  -1    0.00    0.27
   3   7  -1    0.20    0.14
  -3  -7   1    0.16    0.17
   2   7  -1    4.65    0.40
   2   7  -1    4.60    0.53
  -2  -7   1    4.84    0.27
   1   7  -1    7.21    0.39
   1   7  -1    6.52    0.53
  -1  -7   1    6.76    0.29
   0   7  -1   69.10    2.04
   0   7  -1   69.83    1.94
   0  -7   1   70.36    1.83
  -1   7  -1  158.40    4.24
  -1   7  -1  163.72    4.21
  -1   7  -1  157.83    4.35
   1  -7   1  165.24    4.13
   1  -7   1  161.42    4.12
   1  -7   1  159.66    4.21
  -2   7  -1   24.64    0.79
  -2   7  -1   26.39    0.79
  -2   7  -1   25.56    0.90
  -3   7  -1   20.25    0.68
  -3   7  -1   21.92    0.77
  -3   7  -1   20.06    0.65
   3  -7   1   19.10    0.65
   3  -7   1   19.34    0.75
  -4   7  -1   21.02    0.72
  -4   7  -1   20.58    0.77
   4  -7   1   21.48    0.57
   4  -7   1   20.38    0.66
   4  -7   1   20.42    0.57
   4  -7   1   20.67    0.78
  -5   7  -1    2.91    0.32
   5  -7   1    2.75    0.18
   5  -7   1    3.34    0.42
  -6   7  -1    1.08    0.30
   6  -7   1    1.43    0.36
   6  -7   1    1.18    0.16
  -7   7  -1    3.02    0.40
   7  -7   1    3.48    0.45
   7  -7   1    3.16    0.27
  -8   7  -1   40.91    1.42
   8  -7   1   42.89    1.49
   8  -7   1   42.08    1.23
  -9   7  -1   11.35    0.78
   9  -7   1   12.70    0.84
   9  -7   1   12.93    0.58
 -10   7  -1   -0.48    0.52
 -10   7  -1   -0.12    0.25
  10  -7   1    0.13    0.30
   6   6  -1    2.53    0.34
   6   6  -1    1.97    0.43
   5   6  -1   22.83    1.10
   5   6  -1   23.26    0.78
   5   6  -1   23.79    0.91
  -5  -6   1   23.28    0.82
   4   6  -1   74.64    2.20
   4   6  -1   73.25    2.07
   4   6  -1   70.51    1.94
  -4  -6   1   69.62    1.98
   3   6  -1   31.79    1.17
   3   6  -1   34.36    0.94
   3   6  -1   34.99    1.09
  -3  -6   1   32.62    0.98
   2   6  -1   14.82    0.60
   2   6  -1   17.23    0.71
   2   6  -1   15.52    0.46
  -2  -6   1   14.97    0.49
   1   6  -1   38.76    1.22
   1   6  -1   38.62    1.14
  -1  -6   1   37.75    1.04
   0   6  -1    0.69    0.15
   0   6  -1    1.09    0.26
   0  -6   1    1.06    0.14
   0  -6   1    0.98    0.09
   0  -6   1    0.82    0.08
  -1   6  -1    2.93    0.20
  -1   6  -1    2.28    0.29
  -1   6  -1    2.65    0.22
   1  -6   1    2.60    0.20
  -2   6  -1   32.84    0.92
  -2   6  -1   30.28    0.93
  -2   6  -1   32.98    1.03
  -3   6  -1  178.83    4.62
  -3   6  -1  174.74    4.66
  -3   6  -1  176.70    4.72
   3  -6   1  181.27    4.54
   3  -6   1  178.03    4.72
   3  -6   1  177.94    4.62
  -4   6  -1   64.25    1.85
  -4   6  -1   64.53    1.79
   4  -6   1   61.93    1.83
   4  -6   1   63.62    1.72
   4  -6   1   68.28    1.67
   4  -6   1   60.30    1.67
  -5   6  -1    0.70    0.20
   5  -6   1    0.82    0.26
   5  -6   1    0.63    0.11
  -6   6  -1   20.63    0.77
   6  -6   1   21.30    0.65
   6  -6   1   21.23    0.82
  -7   6  -1    0.40    0.27
  -7   6  -1    0.51    0.13
   7  -6   1    0.77    0.18
   7  -6   1    0.56    0.37
  -8   6  -1    2.20    0.21
  -8   6  -1    2.09    0.41
   8  -6   1    1.98    0.24
   8  -6   1    2.36    0.45
  -9   6  -1    1.15    0.45
  -9   6  -1    0.93    0.24
   9  -6   1    1.20    0.52
   9  -6   1    0.89    0.26
 -10   6  -1   11.07    0.58
 -10   6  -1   12.18    0.88
  10  -6   1   12.06    0.67
   7   5  -1    7.72    0.56
   7   5  -1    8.34    1.02
   6   5  -1    1.30    0.37
   6   5  -1    1.37    0.27
   6   5  -1    1.00    0.53
   5   5  -1    0.09    0.19
   5   5  -1    0.04    0.42
   5   5  -1    0.03    0.28
  -5  -5   1   -0.14    0.21
   4   5  -1    0.26    0.32
   4   5  -1    0.12    0.15
   4   5  -1    0.23    0.25
  -4  -5   1    0.33    0.18
   3   5  -1   67.12    1.94
   3   5  -1   65.82    1.77
   3   5  -1   65.89    1.86
  -3  -5   1   66.44    1.79
   2   5  -1  231.22    5.94
   2   5  -1  227.00    5.78
   2   5  -1  220.03    5.87
  -2  -5   1  223.24    5.81
   1   5  -1   20.69    0.56
   1   5  -1   20.19    0.66
   1   5  -1   20.82    0.57
   1   5  -1   20.52    0.73
  -1  -5   1   20.62    0.60
  -1  -5   1   20.77    0.59
  -1  -5   1   21.08    0.59
   0   5  -1    9.65    0.31
   0   5  -1    9.31    0.44
   0   5  -1    7.82    0.33
   0  -5   1    8.80    0.26
   0  -5   1    8.78    0.26
   0  -5   1    8.29    0.30
  -1   5  -1  121.16    3.06
  -1   5  -1  115.38    3.16
  -1   5  -1  114.77    3.07
  -2   5  -1   36.71    1.10
  -2   5  -1   36.75    1.04
  -2   5  -1   37.99    1.02
   2  -5   1   35.79    1.02
  -3   5  -1    3.42    0.22
  -3   5  -1    2.89    0.27
   3  -5   1    2.78    0.13
   3  -5   1    2.67    0.27
   3  -5   1    2.68    0.18
   3  -5   1    3.00    0.11
  -4   5  -1    6.99    0.34
   4  -5   1    7.56    0.30
   4  -5   1    7.54    0.25
   4  -5   1    7.24    0.25
   4  -5   1    6.76    0.38
  -5   5  -1  108.25    2.96
  -5   5  -1  111.35    2.84
  -5   5  -1  109.49    2.82
   5  -5   1  108.02    2.99
   5  -5   1  108.88    2.85
  -6   5  -1   67.13    1.73
  -6   5  -1   62.99    1.87
   6  -5   1   65.24    1.93
   6  -5   1   65.30    1.76
  -7   5  -1    4.70    0.27
  -7   5  -1    4.65    0.46
   7  -5   1    4.70    0.54
   7  -5   1    4.81    0.32
  -8   5  -1   23.97    0.92
  -8   5  -1   23.25    0.75
   8  -5   1   24.10    1.02
   8  -5   1   23.59    0.80
  -9   5  -1    9.74    0.50
  -9   5  -1   10.51    0.73
   9  -5   1   10.62    0.84
   9  -5   1   10.61    0.56
 -10   5  -1    0.56    0.51
   8   4  -1   11.93    0.72
   8   4  -1   12.85    1.19
   7   4  -1   22.68    0.84
   7   4  -1   21.95    1.17
   6   4  -1   18.59    0.76
   6   4  -1   18.89    0.96
   6   4  -1   19.26    0.70
   5   4  -1   10.06    0.44
   5   4  -1    9.09    0.49
   5   4  -1    8.86    0.64
  -5  -4   1    8.48    0.43
   4   4  -1   45.00    1.27
   4   4  -1   45.50    1.44
   4   4  -1   46.95    1.34
  -4  -4   1   45.74    1.29
   3   4  -1   14.97    0.55
   3   4  -1   15.70    0.49
   3   4  -1   16.16    0.64
  -3  -4   1   16.86    0.51
   2   4  -1    0.56    0.11
   2   4  -1    0.80    0.15
   2   4  -1    0.61    0.08
   2   4  -1    0.71    0.20
  -2  -4   1    0.75    0.10
   1   4  -1   27.48    0.74
   1   4  -1   28.26    0.74
   1   4  -1   27.17    0.81
   1   4  -1   27.54    0.86
  -1  -4   1   28.32    0.75
  -1  -4   1   27.84    0.76
  -1  -4   1   27.49    0.75
   0   4  -1   59.50    1.52
   0   4  -1   55.46    1.56
   0   4  -1   56.05    1.62
   0  -4   1   59.90    1.52
   0  -4   1   58.48    1.50
   0  -4   1   58.09    1.50
  -1   4  -1  248.39    6.56
  -1   4  -1  257.23    6.48
  -1   4  -1  250.60    6.48
  -2   4  -1    0.46    0.09
  -2   4  -1    0.11    0.14
  -2   4  -1    0.13    0.09
   2  -4   1    0.35    0.09
  -3   4  -1   73.98    2.05
  -3   4  -1   76.68    2.09
   3  -4   1   75.59    1.98
   3  -4   1   76.68    2.09
   3  -4   1   75.42    2.01
   3  -4   1   79.51    1.98
  -4   4  -1   47.80    1.27
  -4   4  -1   48.38    1.37
  -4   4  -1   50.86    1.30
   4  -4   1   46.81    1.29
   4  -4   1   49.33    1.33
   4  -4   1   46.89    1.40
  -5   4  -1   14.72    0.55
  -5   4  -1   15.15    0.45
   5  -4   1   13.94    0.60
   5  -4   1   14.57    0.47
  -6   4  -1    0.02    0.23
  -6   4  -1    0.15    0.13
   6  -4   1   -0.01    0.25
   6  -4   1    0.09    0.12
  -7   4  -1   14.38    0.65
  -7   4  -1   13.78    0.51
   7  -4   1   14.44    0.54
   7  -4   1   13.70    0.69
  -8   4  -1   33.54    1.16
  -8   4  -1   33.26    1.01
   8  -4   1   33.42    1.04
   8  -4   1   32.02    1.22
  -9   4  -1    3.53    0.36
  -9   4  -1    3.62    0.49
   9  -4   1    4.25    0.64
   8   3  -1    4.71    0.45
   8   3  -1    3.98    0.76
   7   3  -1   -0.18    0.26
   7   3  -1   -0.41    0.50
   6   3  -1    5.92    0.41
   6   3  -1    6.67    0.51
   6   3  -1    6.46    0.67
   5   3  -1   67.74    1.82
   5   3  -1   66.34    1.98
   5   3  -1   65.49    1.86
  -5  -3   1   67.17    1.83
   4   3  -1   16.74    0.59
   4   3  -1   17.00    0.54
   4   3  -1   17.07    0.69
  -4  -3   1   17.05    0.55
   3   3  -1    4.02    0.25
   3   3  -1    4.01    0.32
   3   3  -1    3.97    0.21
  -3  -3   1    4.77    0.23
  -3  -3   1    4.29    0.16
  -3  -3   1    4.12    0.22
   2   3  -1   71.49    1.88
   2   3  -1   71.88    1.92
   2   3  -1   72.17    1.97
  -2  -3   1   71.94    1.88
   1   3  -1  172.38    4.30
   1   3  -1  166.10    4.34
   1   3  -1  168.37    4.29
   1   3  -1  163.34    4.37
  -1  -3   1  168.24    4.30
   0   3  -1    2.70    0.12
   0   3  -1    2.87    0.20
   0   3  -1    3.38    0.15
   0  -3   1    2.86    0.10
   0  -3   1    2.91    0.09
  -1   3  -1    9.47    0.29
  -1   3  -1    8.71    0.35
  -1   3  -1    8.40    0.28
   1  -3   1    8.78    0.28
  -2   3  -1   49.96    1.34
  -2   3  -1   47.93    1.31
   2  -3   1   47.01    1.26
   2  -3   1   49.46    1.25
   2  -3   1   46.62    1.28
  -3   3  -1  236.67    5.78
  -3   3  -1  229.46    5.76
  -3   3  -1  223.86    5.84
   3  -3   1  224.33    5.80
   3  -3   1  221.01    5.78
   3  -3   1  216.59    5.86
  -4   3  -1   59.45    1.50
  -4   3  -1   54.85    1.48
  -4   3  -1   53.83    1.55
   4  -3   1   54.96    1.49
   4  -3   1   56.00    1.51
   4  -3   1   56.12    1.58
  -5   3  -1   66.30    1.80
  -5   3  -1   63.13    1.71
   5  -3   1   63.27    1.83
   5  -3   1   63.19    1.72
  -6   3  -1  178.50    4.70
  -6   3  -1  178.52    4.61
   6  -3   1  176.02    4.75
   6  -3   1  175.24    4.62
  -7   3  -1   13.12    0.61
  -7   3  -1   12.96    0.50
   7  -3   1   11.38    0.51
   7  -3   1   12.59    0.66
  -8   3  -1    0.58    0.34
  -8   3  -1    0.03    0.22
   8  -3   1   -0.11    0.42
   8  -3   1    0.16    0.24
  -9   3  -1    0.13    0.30
   9  -3   1    0.34    0.49
   9   2  -1    0.22    0.77
   8   2  -1    3.90    0.65
   8   2  -1    3.33    0.40
   7   2  -1   53.41    1.54
   7   2  -1   52.41    1.75
   6   2  -1    6.44    0.39
   6   2  -1    6.12    0.53
   5   2  -1    0.27    0.16
   5   2  -1    0.02    0.27
   5   2  -1    0.17    0.15
  -5  -2   1    0.34    0.18
  -5  -2   1    0.08    0.14
   4   2  -1    1.24    0.22
   4   2  -1    1.16    0.14
   4   2  -1    1.18    0.16
   4   2  -1    0.95    0.24
  -4  -2   1    1.16    0.16
  -4  -2   1    0.66    0.12
  -4  -2   1    1.08    0.13
   3   2  -1   31.40    0.93
   3   2  -1   29.14    0.86
   3   2  -1   29.34    0.84
   3   2  -1   29.77    0.83
  -3  -2   1   29.97    0.85
  -3  -2   1   31.28    0.84
  -3  -2   1   30.18    0.81
   2   2  -1  207.42    5.37
   2   2  -1  211.45    5.39
   2   2  -1  211.21    5.43
  -2  -2   1  212.50    5.37
  -2  -2   1  202.52    5.37
  -2  -2   1  210.73    5.34
   1   2  -1    9.04    0.29
   1   2  -1    9.30    0.32
   1   2  -1    9.34    0.27
  -1  -2   1    9.60    0.27
   0   2  -1  285.29    7.24
   0   2  -1  299.74    7.29
   0   2  -1  290.18    7.28
   0  -2   1  272.75    7.23
   0  -2   1  267.72    7.24
  -1   2  -1   82.28    2.23
  -1   2  -1   86.76    2.20
   1  -2   1   83.82    2.19
   1  -2   1   86.93    2.16
   1  -2   1   83.29    2.17
  -2   2  -1  322.33    8.46
  -2   2  -1  345.94    8.51
   2  -2   1  328.24    8.50
   2  -2   1  329.74    8.47
   2  -2   1  332.87    8.53
  -3   2  -1    8.99    0.29
  -3   2  -1    9.45    0.34
   3  -2   1    9.60    0.33
   3  -2   1    9.71    0.33
   3  -2   1    8.96    0.37
   3  -2   1    9.20    0.30
  -4   2  -1    6.09    0.25
  -4   2  -1    6.62    0.31
   4  -2   1    6.82    0.36
   4  -2   1    6.74    0.27
   4  -2   1    6.58    0.26
   4  -2   1    6.92    0.27
  -5   2  -1   27.50    0.86
  -5   2  -1   26.79    0.80
   5  -2   1   28.04    0.79
   5  -2   1   28.21    0.92
   5  -2   1   26.79    0.80
  -6   2  -1    4.95    0.36
  -6   2  -1    4.59    0.30
   6  -2   1    5.32    0.46
   6  -2   1    4.57    0.30
  -7   2  -1    3.61    0.41
  -7   2  -1    3.57    0.35
   7  -2   1    3.07    0.33
   7  -2   1    3.16    0.45
  -8   2  -1   23.59    0.83
   8  -2   1   24.55    1.09
  -9   2  -1   17.12    0.76
   9  -2   1   16.76    1.06
   9   1  -1    1.05    0.69
   8   1  -1   13.57    0.91
   7   1  -1   52.86    1.73
   7   1  -1   52.29    1.52
   6   1  -1    4.31    0.49
   6   1  -1    4.39    0.32
  -6  -1   1    4.31    0.32
   5   1  -1   64.24    1.84
   5   1  -1   63.87    1.72
   5   1  -1   62.74    1.72
   5   1  -1   63.44    1.73
  -5  -1   1   63.98    1.72
  -5  -1   1   62.73    1.73
  -5  -1   1   63.06    1.72
   4   1  -1  163.31    4.19
   4   1  -1  155.01    4.27
  -4  -1   1  165.20    4.19
  -4  -1   1  160.16    4.19
  -4  -1   1  163.15    4.18
   3   1  -1    9.10    0.31
   3   1  -1    9.64    0.38
   3   1  -1    9.56    0.31
   3   1  -1    9.32    0.31
  -3  -1   1    8.84    0.30
  -3  -1   1    9.35    0.31
  -3  -1   1    9.50    0.30
   2   1  -1   14.71    0.41
   2   1  -1   13.94    0.46
   2   1  -1   14.60    0.42
   2   1  -1   15.11    0.42
  -2  -1   1   14.73    0.40
  -2  -1   1   14.60    0.42
  -2  -1   1   14.24    0.41
   1   1  -1   64.17    1.61
   1   1  -1   61.08    1.59
   1   1  -1   59.60    1.62
  -1  -1   1   62.10    1.59
   0   1  -1    2.80    0.10
   0   1  -1    2.57    0.09
   0  -1   1    2.64    0.10
   0  -1   1    2.71    0.08
  -1   1  -1   16.39    0.46
  -1   1  -1   15.56    0.43
   1  -1   1   15.96    0.46
   1  -1   1   16.08    0.44
  -2   1  -1    1.19    0.11
  -2   1  -1    1.21    0.09
   2  -1   1    1.26    0.09
   2  -1   1    1.12    0.10
   2  -1   1    1.38    0.13
   2  -1   1    1.13    0.14
  -3   1  -1  230.61    5.96
  -3   1  -1  238.34    6.01
  -3   1  -1  227.56    5.97
   3  -1   1  236.75    5.97
   3  -1   1  229.80    5.97
   3  -1   1  235.21    6.03
   3  -1   1  228.85    5.98
  -4   1  -1  118.21    3.16
  -4   1  -1  126.82    3.17
  -4   1  -1  123.11    3.21
   4  -1   1  118.12    3.17
   4  -1   1  122.09    3.17
   4  -1   1  118.57    3.24
   4  -1   1  122.41    3.17
  -5   1  -1   10.45    0.44
  -5   1  -1   10.36    0.40
   5  -1   1   10.83    0.52
   5  -1   1   10.33    0.39
   5  -1   1   11.08    0.40
  -6   1  -1    0.68    0.22
  -6   1  -1    0.50    0.19
   6  -1   1    1.00    0.33
   6  -1   1    0.56    0.17
  -7   1  -1    0.41    0.23
  -7   1  -1    0.44    0.29
   7  -1   1    0.42    0.39
  -8   1  -1   38.17    1.20
   8  -1   1   36.56    1.43
  -9   1  -1    0.10    0.34
   9  -1   1   -0.24    0.55
   9   0  -1   21.56    1.19
  -9   0   1   22.01    0.89
   8   0  -1   11.12    0.82
  -8   0   1   11.26    0.58
   7   0  -1    0.06    0.32
  -7   0   1    0.04    0.22
   6   0  -1    2.36    0.26
   6   0  -1    2.78    0.37
   6   0  -1    2.41    0.23
  -6   0   1    2.46    0.27
  -6   0   1    2.32    0.27
   5   0  -1   28.28    0.92
   5   0  -1   27.39    0.82
   5   0  -1   29.00    0.80
   5   0  -1   28.53    0.82
  -5   0   1   28.45    0.84
  -5   0   1   28.70    0.82
  -5   0   1   26.26    0.82
   4   0  -1    0.94    0.12
   4   0  -1    0.77    0.10
   4   0  -1    0.61    0.10
   4   0  -1    0.73    0.17
  -4   0   1    0.91    0.12
  -4   0   1    0.71    0.11
  -4   0   1    0.88    0.12
   3   0  -1   78.65    2.05
   3   0  -1   77.86    2.05
   3   0  -1   79.06    2.03
   3   0  -1   77.90    2.10
  -3   0   1   78.19    2.05
  -3   0   1   79.89    2.05
  -3   0   1   77.05    2.05
   2   0  -1  423.94   10.44
   2   0  -1  402.14   10.40
   2   0  -1  408.65   10.43
   2   0  -1  391.50   10.43
  -2   0   1  399.15   10.41
  -2   0   1  417.35   10.47
  -2   0   1  410.65   10.45
   1   0  -1   39.84    1.07
   1   0  -1   42.90    1.09
   1   0  -1   41.67    1.08
   1   0  -1   41.48    1.07
  -1   0   1   39.70    1.07
  -1   0   1   43.07    1.09
  -1   0   1   41.87    1.08
  -1   0   1   40.84    1.07
   0   0  -1    1.49    0.09
   0   0  -1    1.54    0.08
   0   0   1    1.53    0.09
  -1   0  -1   14.51    0.42
  -1   0  -1   14.67    0.41
  -1   0  -1   15.32    0.44
   1   0   1   15.21    0.44
   1   0   1   14.67    0.43
   1   0   1   15.57    0.42
   1   0   1   15.20    0.42
  -2   0  -1  185.98    4.63
  -2   0  -1  182.43    4.65
  -2   0  -1  178.70    4.62
   2   0   1  175.73    4.62
   2   0   1  182.67    4.64
   2   0   1  173.42    4.66
   2   0   1  181.22    4.63
  -3   0  -1   64.21    1.71
  -3   0  -1   65.36    1.74
  -3   0  -1   63.66    1.71
   3   0   1   63.28    1.72
   3   0   1   63.38    1.71
   3   0   1   66.70    1.78
   3   0   1   65.94    1.71
  -4   0  -1    0.24    0.14
  -4   0  -1    0.30    0.11
  -4   0  -1    0.17    0.11
   4   0   1    0.20    0.12
   4   0   1    0.26    0.11
   4   0   1    0.20    0.11
   4   0   1    0.42    0.19
  -5   0  -1  111.32    2.99
  -5   0  -1  112.45    2.96
   5   0   1  111.01    2.95
   5   0   1  113.93    3.06
   5   0   1  109.77    2.96
  -6   0  -1   77.51    2.14
  -6   0  -1   76.19    2.17
   6   0   1   81.21    2.30
  -7   0  -1    8.50    0.49
   7   0   1    8.04    0.69
  -8   0  -1    1.00    0.33
   8   0   1    1.15    0.54
   9   0   1    4.40    0.82
 -10   1   1    4.24    0.51
   9  -1  -1   12.18    0.90
  -9   1   1   10.54    0.61
   8  -1  -1   27.49    1.11
  -8   1   1   25.74    0.89
   7  -1  -1  118.02    3.34
  -7   1   1  118.14    3.20
  -7   1   1  123.71    3.24
   6  -1  -1   50.35    1.50
   6  -1  -1   47.98    1.37
  -6   1   1   49.11    1.38
  -6   1   1   49.99    1.41
   5  -1  -1    1.50    0.14
   5  -1  -1    1.99    0.26
   5  -1  -1    1.61    0.17
   5  -1  -1    1.64    0.16
  -5   1   1    1.41    0.23
  -5   1   1    1.37    0.15
  -5   1   1    1.61    0.19
   4  -1  -1    1.64    0.15
   4  -1  -1    1.62    0.11
   4  -1  -1    1.42    0.19
  -4   1   1    1.51    0.16
  -4   1   1    1.53    0.14
  -4   1   1    1.82    0.15
   3  -1  -1   33.26    0.89
   3  -1  -1   32.52    0.94
   3  -1  -1   32.54    0.89
   3  -1  -1   34.33    0.86
  -3   1   1   32.98    0.91
  -3   1   1   32.15    0.89
  -3   1   1   33.02    0.89
   2  -1  -1  158.91    4.19
   2  -1  -1  163.72    4.23
  -2   1   1  165.19    4.20
  -2   1   1  167.67    4.22
   1  -1  -1   55.80    1.42
   1  -1  -1   55.86    1.45
   1  -1  -1   54.20    1.43
  -1   1   1   55.51    1.45
  -1   1   1   55.98    1.43
  -1   1   1   55.12    1.43
   0  -1  -1  121.86    3.08
   0  -1  -1  114.79    3.05
   0   1   1  120.26    3.04
   0   1   1  118.45    3.06
  -1  -1  -1  349.31    8.77
  -1  -1  -1  336.33    8.77
  -1  -1  -1  353.15    8.80
   1   1   1  336.80    8.77
   1   1   1  341.14    8.78
  -2  -1  -1  142.01    3.72
  -2  -1  -1  146.50    3.72
  -2  -1  -1  139.43    3.73
   2   1   1  139.77    3.75
   2   1   1  145.84    3.71
   2   1   1  146.92    3.74
   2   1   1  147.30    3.72
  -3  -1  -1    5.41    0.24
  -3  -1  -1    5.05    0.23
  -3  -1  -1    5.27    0.25
   3   1   1    5.72    0.28
   3   1   1    5.27    0.26
  -4  -1  -1    1.86    0.19
  -4  -1  -1    1.54    0.20
  -4  -1  -1    1.62    0.17
   4   1   1    1.89    0.21
   4   1   1    2.22    0.28
   4   1   1    1.52    0.16
  -5  -1  -1   19.56    0.65
  -5  -1  -1   18.76    0.64
  -5  -1  -1   18.27    0.75
   5   1   1   18.88    0.65
   5   1   1   19.74    0.77
  -6  -1  -1   10.40    0.57
   6   1   1   10.12    0.67
   6   1   1   10.42    0.49
   7   1   1    3.01    0.56
   7   1   1    4.63    0.46
  10  -2  -1    0.88    0.57
 -10   2   1    1.21    0.38
   9  -2  -1    0.21    0.49
  -9   2   1    0.23    0.29
   8  -2  -1    5.52    0.60
  -8   2   1    6.91    0.44
  -8   2   1    6.74    0.49
   7  -2  -1    0.43    0.29
   7  -2  -1    0.38    0.16
  -7   2   1    0.00    0.17
  -7   2   1    0.21    0.24
   6  -2  -1   19.88    0.74
  -6   2   1   19.90    0.68
  -6   2   1   19.35    0.62
   5  -2  -1  189.88    5.11
   5  -2  -1  191.17    5.02
   5  -2  -1  204.59    5.02
  -5   2   1  193.78    5.02
  -5   2   1  190.65    5.06
   4  -2  -1  194.91    4.99
   4  -2  -1  190.19    5.06
   4  -2  -1  202.72    4.99
  -4   2   1  187.82    5.04
  -4   2   1  194.25    4.99
   3  -2  -1   25.43    0.76
   3  -2  -1   26.21    0.71
  -3   2   1   26.75    0.75
  -3   2   1   26.53    0.71
   2  -2  -1    7.80    0.26
   2  -2  -1    7.54    0.22
   2  -2  -1    7.83    0.24
  -2   2   1    7.96    0.23
  -2   2   1    8.13    0.22
  -2   2   1    6.86    0.26
  -2   2   1    8.08    0.22
   1  -2  -1    3.28    0.10
   1  -2  -1    3.43    0.11
   1  -2  -1    3.90    0.13
   1  -2  -1    3.22    0.15
  -1   2   1    3.61    0.14
  -1   2   1    3.49    0.13
  -1   2   1    3.10    0.15
   0  -2  -1   28.06    0.76
   0  -2  -1   28.17    0.78
   0   2   1   28.36    0.76
   0   2   1   27.06    0.77
   0   2   1   27.88    0.75
   0   2   1   28.82    0.73
  -1  -2  -1    3.03    0.14
  -1  -2  -1    2.87    0.20
   1   2   1    3.25    0.18
   1   2   1    3.25    0.17
  -2  -2  -1   65.39    1.74
  -2  -2  -1   68.09    1.76
   2   2   1   68.31    1.73
   2   2   1   64.68    1.73
   2   2   1   64.85    1.77
   2   2   1   63.33    1.78
  -3  -2  -1  236.38    6.28
  -3  -2  -1  237.28    6.27
  -3  -2  -1  245.66    6.28
   3   2   1  249.21    6.27
   3   2   1  246.52    6.27
   3   2   1  250.17    6.34
   3   2   1  237.59    6.30
  -4  -2  -1   62.92    1.70
  -4  -2  -1   61.81    1.70
  -4  -2  -1   61.16    1.69
   4   2   1   61.97    1.68
   4   2   1   61.10    1.79
   4   2   1   62.58    1.72
  -5  -2  -1    6.27    0.36
   5   2   1    5.55    0.39
   5   2   1    5.90    0.52
   5   2   1    6.08    0.35
   6   2   1    0.28    0.23
   6   2   1   -0.07    0.39
   7   2   1    1.01    0.30
   7   2   1    0.68    0.52
   8   2   1    0.50    0.65
   8   2   1    0.09    0.35
  10  -3  -1   24.15    1.16
 -10   3   1   22.91    0.90
   9  -3  -1   20.78    1.02
  -9   3   1   22.23    0.79
   8  -3  -1    7.52    0.63
   8  -3  -1    7.67    0.44
  -8   3   1    7.56    0.41
  -8   3   1    7.38    0.51
   7  -3  -1    5.45    0.33
   7  -3  -1    6.42    0.47
  -7   3   1    6.82    0.43
  -7   3   1    6.26    0.33
   6  -3  -1    0.32    0.12
   6  -3  -1    1.14    0.27
  -6   3   1    0.58    0.20
  -6   3   1    0.52    0.13
   5  -3  -1   42.09    1.13
   5  -3  -1   41.02    1.23
  -5   3   1   41.71    1.13
  -5   3   1   41.23    1.20
   4  -3  -1    4.82    0.19
   4  -3  -1    4.30    0.26
  -4   3   1    5.24    0.20
  -4   3   1    4.94    0.19
  -4   3   1    4.49    0.25
   3  -3  -1  179.48    4.64
   3  -3  -1  176.96    4.64
   3  -3  -1  180.72    4.70
  -3   3   1  186.33    4.63
  -3   3   1  176.16    4.70
  -3   3   1  181.77    4.63
  -3   3   1  185.69    4.63
   2  -3  -1  322.61    8.49
   2  -3  -1  337.04    8.45
   2  -3  -1  334.98    8.45
  -2   3   1  326.60    8.46
  -2   3   1  334.25    8.50
   1  -3  -1  176.69    4.49
   1  -3  -1  173.72    4.54
   1  -3  -1  170.71    4.49
  -1   3   1  177.79    4.53
  -1   3   1  180.37    4.53
   0  -3  -1    5.80    0.25
   0  -3  -1    5.91    0.19
   0  -3  -1    5.89    0.21
   0   3   1    6.35    0.25
   0   3   1    5.95    0.20
   0   3   1    6.09    0.24
   0   3   1    6.12    0.18
  -1  -3  -1    2.03    0.21
  -1  -3  -1    2.44    0.14
   1   3   1    1.80    0.11
   1   3   1    2.25    0.16
   1   3   1    2.05    0.17
   1   3   1    2.23    0.19
  -2  -3  -1    4.71    0.24
  -2  -3  -1    3.83    0.20
  -2  -3  -1    4.29    0.24
   2   3   1    3.99    0.24
   2   3   1    4.32    0.28
   2   3   1    3.69    0.19
  -3  -3  -1    1.36    0.16
  -3  -3  -1    1.64    0.18
   3   3   1    1.49    0.15
   3   3   1    1.55    0.25
   3   3   1    1.25    0.18
  -4  -3  -1   17.76    0.60
   4   3   1   18.38    0.66
   4   3   1   17.73    0.59
   4   3   1   18.04    0.73
  -5  -3  -1   81.99    2.27
   5   3   1   83.74    2.43
   5   3   1   82.20    2.25
   5   3   1   84.00    2.32
   6   3   1   39.55    1.44
   6   3   1   38.95    1.19
   6   3   1   38.71    1.26
   7   3   1    0.66    0.31
   7   3   1    0.96    0.64
  10  -4  -1    2.01    0.62
 -10   4   1    2.73    0.37
   9  -4  -1    0.74    0.45
   9  -4  -1    0.50    0.28
  -9   4   1    0.36    0.40
  -9   4   1    0.54    0.25
   8  -4  -1   43.27    1.32
   8  -4  -1   45.56    1.49
  -8   4   1   47.27    1.45
  -8   4   1   46.68    1.31
   7  -4  -1  184.11    4.79
   7  -4  -1  181.74    4.93
  -7   4   1  182.45    4.89
  -7   4   1  186.57    4.78
   6  -4  -1   34.26    0.96
   6  -4  -1   32.79    1.09
  -6   4   1   32.99    1.04
  -6   4   1   34.21    0.95
   5  -4  -1    5.40    0.23
   5  -4  -1    4.80    0.34
  -5   4   1    5.61    0.22
  -5   4   1    5.04    0.30
  -5   4   1    5.41    0.22
   4  -4  -1   26.03    0.69
   4  -4  -1   25.49    0.80
   4  -4  -1   25.42    0.71
   4  -4  -1   24.72    0.71
  -4   4   1   26.99    0.69
  -4   4   1   26.61    0.69
  -4   4   1   25.86    0.79
   3  -4  -1   17.38    0.57
   3  -4  -1   17.66    0.49
   3  -4  -1   17.50    0.48
  -3   4   1   18.61    0.51
  -3   4   1   18.57    0.58
   2  -4  -1   54.91    1.38
   2  -4  -1   55.22    1.39
   2  -4  -1   53.91    1.46
   2  -4  -1   51.57    1.47
  -2   4   1   52.92    1.44
  -2   4   1   55.52    1.46
  -2   4   1   53.63    1.47
   1  -4  -1  115.69    3.07
   1  -4  -1  120.48    3.13
   1  -4  -1  121.67    3.06
  -1   4   1  116.87    3.12
  -1   4   1  122.28    3.13
   0  -4  -1  465.12   12.24
   0  -4  -1  504.15   12.19
   0  -4  -1  469.40   12.19
   0   4   1  481.60   12.17
   0   4   1  483.71   12.24
   0   4   1  472.51   12.24
   0   4   1  464.00   12.16
  -1  -4  -1  101.57    2.68
  -1  -4  -1   95.23    2.60
   1   4   1   99.88    2.58
   1   4   1  102.30    2.66
   1   4   1  100.73    2.61
   1   4   1   98.80    2.66
  -2  -4  -1    0.72    0.17
  -2  -4  -1    0.46    0.11
   2   4   1    0.48    0.10
   2   4   1    0.52    0.17
   2   4   1    0.60    0.20
  -3  -4  -1   65.87    1.78
   3   4   1   67.07    1.88
   3   4   1   63.91    1.84
   3   4   1   64.50    1.75
  -4  -4  -1    6.27    0.37
   4   4   1    7.32    0.54
   4   4   1    6.93    0.35
   4   4   1    6.94    0.44
  -5  -4  -1    9.93    0.50
   5   4   1   10.39    0.56
   5   4   1    8.89    0.70
   5   4   1    9.25    0.47
   6   4   1    0.23    0.34
   6   4   1   -0.18    0.25
   7   4   1    4.58    0.54
  10  -5  -1   -0.01    0.57
  10  -5  -1    0.04    0.32
 -10   5   1   -0.10    0.47
 -10   5   1    0.22    0.28
   9  -5  -1    5.19    0.42
   9  -5  -1    4.98    0.67
  -9   5   1    5.44    0.60
  -9   5   1    4.98    0.39
   8  -5  -1    0.11    0.32
   8  -5  -1    0.21    0.17
  -8   5   1    0.25    0.33
  -8   5   1    0.08    0.17
   7  -5  -1    0.52    0.15
   7  -5  -1    0.84    0.32
  -7   5   1    0.68    0.26
  -7   5   1    0.59    0.15
   6  -5  -1   28.35    0.95
   6  -5  -1   28.19    0.82
  -6   5   1   30.30    0.80
  -6   5   1   27.94    0.95
   5  -5  -1   74.42    2.04
   5  -5  -1   71.25    1.92
  -5   5   1   73.77    2.04
   4  -5  -1   76.15    2.00
   4  -5  -1   77.59    2.09
   4  -5  -1   76.17    1.99
   4  -5  -1   76.73    1.99
  -4   5   1   73.48    2.09
  -4   5   1   78.85    2.00
   3  -5  -1    0.30    0.04
   3  -5  -1    0.19    0.06
   3  -5  -1    0.14    0.12
   3  -5  -1    0.05    0.13
  -3   5   1    0.22    0.09
  -3   5   1    0.07    0.13
   2  -5  -1   33.08    0.94
   2  -5  -1   32.27    0.95
  -2   5   1   33.30    0.92
  -2   5   1   31.89    0.95
  -2   5   1   32.16    0.94
   1  -5  -1   11.21    0.35
   1  -5  -1   11.49    0.32
   1  -5  -1   11.28    0.42
  -1   5   1   10.79    0.40
  -1   5   1   12.10    0.45
   0  -5  -1    2.64    0.16
   0  -5  -1    3.12    0.25
   0  -5  -1    3.03    0.15
   0   5   1    3.49    0.25
   0   5   1    2.84    0.27
  -1  -5  -1    0.87    0.21
  -1  -5  -1    0.55    0.11
   1   5   1    0.65    0.08
   1   5   1    0.45    0.17
   1   5   1    0.25    0.20
   1   5   1    0.58    0.14
  -2  -5  -1   19.13    0.59
   2   5   1   19.16    0.71
   2   5   1   18.78    0.56
   2   5   1   18.23    0.67
  -3  -5  -1   75.73    2.10
   3   5   1   75.34    2.21
   3   5   1   77.31    2.06
   3   5   1   80.93    2.19
  -4  -5  -1    5.90    0.38
   4   5   1    5.86    0.35
   4   5   1    6.37    0.47
  -5  -5  -1    0.98    0.28
   5   5   1    0.64    0.33
   5   5   1    1.03    0.25
   6   5   1    2.60    0.47
   6   5   1    2.24    0.35
  10  -6  -1   19.37    1.03
  10  -6  -1   20.26    0.81
 -10   6   1   19.67    0.74
 -10   6   1   19.70    1.00
   9  -6  -1   10.53    0.52
   9  -6  -1   10.49    0.78
  -9   6   1   12.50    0.75
  -9   6   1   10.56    0.48
   8  -6  -1    0.20    0.35
   8  -6  -1    0.30    0.17
  -8   6   1    0.33    0.35
  -8   6   1    0.19    0.15
   7  -6  -1    5.21    0.45
   7  -6  -1    5.07    0.28
  -7   6   1    4.85    0.42
   6  -6  -1    4.37    0.23
   6  -6  -1    5.08    0.43
  -6   6   1    4.62    0.41
   5  -6  -1    1.22    0.24
   5  -6  -1    1.00    0.11
  -5   6   1    1.04    0.23
   4  -6  -1    2.12    0.13
   4  -6  -1    2.48    0.29
   4  -6  -1    2.08    0.11
  -4   6   1    2.41    0.28
  -4   6   1    2.24    0.18
   3  -6  -1  133.55    3.46
   3  -6  -1  128.34    3.35
   3  -6  -1  125.55    3.47
   3  -6  -1  130.62    3.34
  -3   6   1  131.30    3.42
  -3   6   1  133.96    3.48
  -3   6   1  131.39    3.47
   2  -6  -1  161.65    4.00
   2  -6  -1  157.45    4.12
   2  -6  -1  151.90    4.01
  -2   6   1  160.43    4.12
  -2   6   1  151.50    4.09
   1  -6  -1   24.31    0.71
   1  -6  -1   26.46    0.69
   1  -6  -1   24.95    0.79
  -1   6   1   25.53    0.82
  -1   6   1   25.61    0.79
   0  -6  -1   68.58    1.90
   0  -6  -1   69.10    1.82
   0   6   1   70.28    1.92
   0   6   1   65.52    1.89
  -1  -6  -1   27.77    0.82
   1   6   1   27.48    0.77
   1   6   1   28.99    0.75
   1   6   1   28.10    0.95
   1   6   1   28.72    0.92
  -2  -6  -1    3.05    0.26
   2   6   1    3.67    0.20
   2   6   1    3.18    0.37
  -3  -6  -1    3.18    0.32
   3   6   1    3.59    0.27
   3   6   1    4.06    0.43
  -4  -6  -1   22.04    0.77
   4   6   1   22.64    0.73
   4   6   1   21.94    0.88
  -5  -6  -1   29.01    0.98
   5   6   1   27.27    1.08
   5   6   1   27.40    0.92
   6   6   1    8.76    0.80
  10  -7  -1    1.05    0.32
  10  -7  -1    1.88    0.61
 -10   7   1    0.79    0.51
   9  -7  -1    3.64    0.55
   9  -7  -1    4.00    0.41
  -9   7   1    3.84    0.53
   8  -7  -1   35.99    1.08
   8  -7  -1   39.04    1.32
  -8   7   1   35.94    1.26
   7  -7  -1   55.50    1.69
   7  -7  -1   53.44    1.50
  -7   7   1   55.99    1.69
   6  -7  -1    3.96    0.22
   6  -7  -1    4.10    0.43
  -6   7   1    4.12    0.38
   5  -7  -1   38.19    1.03
   5  -7  -1   37.78    1.18
  -5   7   1   39.23    1.21
   4  -7  -1   16.33    0.61
   4  -7  -1   15.58    0.47
   4  -7  -1   16.61    0.45
   4  -7  -1   16.44    0.63
  -4   7   1   15.59    0.61
  -4   7   1   16.52    0.54
   3  -7  -1    3.39    0.29
   3  -7  -1    3.52    0.13
   3  -7  -1    3.70    0.32
  -3   7   1    3.96    0.32
  -3   7   1    4.20    0.26
  -3   7   1    3.61    0.31
   2  -7  -1    3.04    0.13
   2  -7  -1    2.76    0.28
   2  -7  -1    2.54    0.16
  -2   7   1    2.93    0.27
  -2   7   1    2.89    0.31
   1  -7  -1   14.02    0.57
   1  -7  -1   14.55    0.46
  -1   7   1   15.23    0.57
  -1   7   1   14.92    0.61
   0  -7  -1  122.54    3.25
   0   7   1  127.05    3.36
  -1  -7  -1   24.15    0.73
   1   7   1   23.57    0.84
  -2  -7  -1    1.28    0.21
   2   7   1    1.49    0.32
   2   7   1    1.54    0.18
  -3  -7  -1   25.53    0.86
   3   7   1   26.34    0.79
   3   7   1   27.68    1.01
  -4  -7  -1    7.54    0.49
   4   7   1    8.48    0.44
   4   7   1    8.55    0.66
  -5  -7  -1    3.81    0.42
   5   7   1    3.84    0.46
   5   7   1    4.68    0.57
  10  -8  -1    8.66    0.57
  10  -8  -1    8.50    0.91
 -10   8   1    9.03    0.85
   9  -8  -1    2.41    0.29
   9  -8  -1    2.45    0.52
  -9   8   1    2.35    0.52
   8  -8  -1    0.10    0.39
   8  -8  -1   -0.01    0.17
  -8   8   1   -0.14    0.35
   7  -8  -1    0.16    0.13
   7  -8  -1    0.35    0.35
  -7   8   1    0.09    0.32
   6  -8  -1    5.13    0.48
   6  -8  -1    5.87    0.25
  -6   8   1    5.32    0.44
   5  -8  -1   51.72    1.60
   5  -8  -1   54.45    1.59
   5  -8  -1   53.54    1.41
  -5   8   1   54.65    1.61
   4  -8  -1   72.42    2.03
   4  -8  -1   72.65    2.05
   4  -8  -1   71.93    1.86
  -4   8   1   72.08    1.97
  -4   8   1   71.57    2.06
   3  -8  -1    2.82    0.15
   3  -8  -1    2.84    0.35
   3  -8  -1    3.11    0.15
   3  -8  -1    3.10    0.34
  -3   8   1    2.77    0.32
  -3   8   1    2.69    0.28
  -3   8   1    2.72    0.37
   2  -8  -1   59.87    1.60
   2  -8  -1   60.90    1.73
  -2   8   1   59.52    1.71
   1  -8  -1   33.93    0.96
  -1   8   1   34.39    1.08
   0  -8  -1    0.53    0.15
   0   8   1    0.26    0.23
  -1  -8  -1    0.21    0.16
   1   8   1    0.21    0.29
  -2  -8  -1   35.54    1.08
   2   8   1   36.32    1.24
  -3  -8  -1   37.38    1.19
   3   8   1   39.98    1.35
  -4  -8  -1    0.29    0.30
   4   8   1    0.27    0.41
   4   8   1    0.46    0.23
  10  -9  -1   16.89    1.08
   9  -9  -1    0.79    0.25
   9  -9  -1    0.29    0.51
  -9   9   1    1.06    0.51
   8  -9  -1   11.49    0.77
   8  -9  -1   12.17    0.71
   8  -9  -1   12.83    0.49
  -8   9   1   10.54    0.74
   7  -9  -1   26.60    1.03
   7  -9  -1   27.26    1.03
   7  -9  -1   26.49    0.78
  -7   9   1   24.46    0.99
   6  -9  -1    6.95    0.56
   6  -9  -1    8.32    0.60
   6  -9  -1    8.17    0.31
  -6   9   1    7.65    0.58
   5  -9  -1    0.25    0.32
   5  -9  -1    0.46    0.32
   5  -9  -1    0.63    0.10
  -5   9   1    0.37    0.31
   4  -9  -1   33.32    0.90
   4  -9  -1   33.83    1.14
  -4   9   1   33.00    1.13
  -4   9   1   34.78    1.05
   3  -9  -1   42.92    1.33
   3  -9  -1   41.50    1.14
  -3   9   1   42.19    1.27
   2  -9  -1   25.70    0.75
  -2   9   1   25.98    0.89
   1  -9  -1    7.84    0.34
  -1   9   1    8.30    0.52
   0  -9  -1   50.67    1.40
   0   9   1   49.60    1.56
  -1  -9  -1   30.30    0.94
   1   9   1   31.01    1.11
  -2  -9  -1    0.05    0.23
   2   9   1   -0.02    0.35
  -3  -9  -1    0.13    0.26
   3   9   1    0.12    0.47
   9 -10  -1    2.65    0.30
   9 -10  -1    2.76    0.53
   9 -10  -1    3.30    0.61
  -9  10   1    2.56    0.60
   8 -10  -1   17.81    0.93
   8 -10  -1   18.04    0.62
   8 -10  -1   17.73    0.94
  -8  10   1   16.53    0.89
   7 -10  -1    9.48    0.70
   7 -10  -1    8.30    0.37
  -7  10   1    8.65    0.68
   6 -10  -1   10.51    0.37
   6 -10  -1   11.72    0.71
  -6  10   1    9.83    0.63
   5 -10  -1   43.95    1.47
   5 -10  -1   45.75    1.23
  -5  10   1   49.11    1.52
   4 -10  -1   13.85    0.72
   4 -10  -1   13.73    0.43
  -4  10   1   14.44    0.71
   3 -10  -1    3.81    0.25
  -3  10   1    3.81    0.43
   2 -10  -1    4.61    0.27
  -2  10   1    4.47    0.46
   1 -10  -1    9.22    0.39
  -1  10   1    9.04    0.59
   0 -10  -1   34.07    1.02
   0  10   1   35.17    1.23
  -1 -10  -1    3.17    0.30
   1  10   1    2.54    0.47
  -2 -10  -1    6.51    0.48
   2  10   1    7.12    0.75
   8 -11  -1    0.03    0.21
   8 -11  -1   -0.01    0.54
  -8  11   1    0.05    0.51
   7 -11  -1    0.13    0.49
   7 -11  -1    0.31    0.17
  -7  11   1    0.35    0.42
   6 -11  -1    8.73    0.73
   6 -11  -1    9.68    0.36
  -6  11   1    8.70    0.71
   5 -11  -1   10.23    0.73
   5 -11  -1   10.14    0.37
   4 -11  -1    1.47    0.19
   3 -11  -1   38.48    1.07
  -3  11   1   38.64    1.29
   2 -11  -1   54.63    1.47
  -2  11   1   53.03    1.68
   1 -11  -1    9.54    0.42
  -1  11   1   10.46    0.69
   0 -11  -1    1.28    0.29
   0  11   1    1.25    0.48
   7 -12  -1   16.05    0.94
   7 -12  -1   16.43    0.56
  -7  12   1   14.88    1.00
   6 -12  -1    1.50    0.21
   6 -12  -1    1.90    0.58
  -6  12   1    1.43    0.51
   5 -12  -1    3.85    0.29
   4 -12  -1    0.57    0.16
   3 -12  -1    9.96    0.40
  -3  12   1   10.39    0.70
   2 -12  -1    2.17    0.23
  -2  12   1    1.90    0.47
   1 -12  -1    0.69    0.25
  -1  12   1    0.96    0.46
   4 -13  -1    4.59    0.29
  -1  13  -2    0.55    0.50
   1 -13   2    0.51    0.53
   1 -13   2    0.67    0.24
  -2  13  -2    2.61    0.55
   2 -13   2    3.10    0.25
   2 -13   2    3.14    0.57
  -3  13  -2    6.43    0.68
   3 -13   2    7.35    0.76
   6 -13   2   21.27    0.62
   0  12  -2   -0.31    0.39
   0 -12   2    0.09    0.20
   0 -12   2    0.52    0.51
  -1  12  -2    9.78    0.71
   1 -12   2   10.62    0.40
   1 -12   2   10.50    0.77
  -2  12  -2   16.27    0.82
   2 -12   2   16.88    0.51
   2 -12   2   16.82    0.84
  -3  12  -2    1.17    0.37
   3 -12   2    1.63    0.43
  -4  12  -2    5.61    0.79
  -5  12  -2    0.41    0.51
  -5  12  -2    0.20    0.42
   5 -12   2    0.00    0.50
  -6  12  -2   20.12    0.99
   6 -12   2   21.71    0.62
   6 -12   2   19.31    1.06
  -7  12  -2    2.98    0.59
   7 -12   2    4.03    0.69
   7 -12   2    3.88    0.32
   2  11  -2    3.55    0.53
  -2 -11   2    3.22    0.31
   1  11  -2    1.08    0.41
  -1 -11   2    1.40    0.23
   0  11  -2    1.58    0.39
   0 -11   2    2.12    0.21
  -1  11  -2   21.57    0.90
   1 -11   2   23.05    0.94
   1 -11   2   23.28    0.67
  -2  11  -2   25.45    0.96
  -2  11  -2   26.50    1.16
   2 -11   2   24.88    0.70
   2 -11   2   26.68    0.98
  -3  11  -2    7.98    0.74
  -3  11  -2    8.40    0.55
   3 -11   2    7.87    0.59
  -4  11  -2   86.22    2.44
  -4  11  -2   81.94    2.54
   4 -11   2   83.66    2.50
   4 -11   2   84.91    2.53
  -5  11  -2    9.48    0.63
  -5  11  -2    8.61    0.75
   5 -11   2    9.16    0.31
   5 -11   2    9.65    0.76
  -6  11  -2    2.97    0.48
   6 -11   2    3.24    0.51
   6 -11   2    3.47    0.26
  -7  11  -2    1.02    0.49
   7 -11   2    1.30    0.19
   7 -11   2    1.48    0.51
  -8  11  -2   16.01    0.97
   8 -11   2   16.37    0.61
   8 -11   2   16.24    1.10
   3  10  -2    2.90    0.54
  -3 -10   2    2.46    0.31
   2  10  -2   16.06    0.79
  -2 -10   2   17.29    0.62
   1  10  -2   49.05    1.57
  -1 -10   2   49.30    1.37
   0  10  -2   30.15    1.06
   0  10  -2   28.62    1.26
   0 -10   2   28.79    0.84
  -1  10  -2    6.75    0.73
  -1  10  -2    5.97    0.47
   1 -10   2    6.73    0.26
  -2  10  -2    1.21    0.46
  -2  10  -2    0.88    0.28
   2 -10   2    0.90    0.31
   2 -10   2    0.89    0.09
  -3  10  -2   15.49    0.69
  -3  10  -2   16.70    0.68
  -3  10  -2   14.06    0.81
   3 -10   2   16.22    0.73
   3 -10   2   16.34    0.68
  -4  10  -2   33.84    1.27
  -4  10  -2   35.54    1.15
  -4  10  -2   32.93    1.10
   4 -10   2   34.24    1.25
  -5  10  -2    0.21    0.36
  -5  10  -2   -0.02    0.31
   5 -10   2    0.30    0.41
   5 -10   2   -0.08    0.11
  -6  10  -2   27.36    1.07
   6 -10   2   30.66    0.85
   6 -10   2   31.12    1.17
  -7  10  -2   39.23    1.47
   7 -10   2   44.96    1.59
   7 -10   2   45.34    1.23
  -8  10  -2    1.57    0.51
   8 -10   2    2.45    0.63
   8 -10   2    2.70    0.27
   9 -10   2    0.73    1.02
   4   9  -2    1.38    0.43
  -4  -9   2    1.92    0.31
   3   9  -2    1.68    0.43
  -3  -9   2    1.25    0.25
   2   9  -2    8.52    0.60
   2   9  -2   11.16    0.87
  -2  -9   2    9.47    0.41
   1   9  -2   19.88    0.80
   1   9  -2   19.64    1.00
  -1  -9   2   20.00    0.62
   0   9  -2    1.05    0.27
   0   9  -2    0.97    0.44
   0  -9   2    1.45    0.14
  -1   9  -2   53.39    1.83
  -1   9  -2   59.93    1.68
   1  -9   2   57.41    1.50
  -2   9  -2  139.17    3.47
  -2   9  -2  122.95    3.46
  -2   9  -2  126.23    3.62
   2  -9   2  128.88    3.30
   2  -9   2  126.41    3.47
  -3   9  -2   59.81    1.69
  -3   9  -2   53.30    1.78
  -3   9  -2   58.53    1.67
   3  -9   2   59.66    1.68
  -4   9  -2    0.63    0.35
  -4   9  -2    0.58    0.27
   4  -9   2    0.20    0.31
   4  -9   2    0.15    0.23
   4  -9   2    0.12    0.11
  -5   9  -2    1.12    0.41
  -5   9  -2    0.99    0.30
   5  -9   2    1.37    0.43
   5  -9   2    1.00    0.14
  -6   9  -2   16.64    0.76
   6  -9   2   16.23    0.53
   6  -9   2   16.14    0.81
  -7   9  -2    1.10    0.36
   7  -9   2    1.79    0.21
   7  -9   2    1.55    0.44
  -8   9  -2   14.57    0.78
   8  -9   2   15.10    0.59
   8  -9   2   16.75    0.92
  -9   9  -2   29.62    1.27
   9  -9   2   30.68    1.42
   9  -9   2   29.99    0.99
   5   8  -2    2.36    0.48
   5   8  -2    2.63    0.31
  -5  -8   2    3.05    0.39
   4   8  -2   61.03    1.66
   4   8  -2   61.20    2.15
   4   8  -2   62.16    1.89
  -4  -8   2   59.75    1.73
   3   8  -2   62.09    1.86
   3   8  -2   63.00    2.04
  -3  -8   2   61.27    1.72
   2   8  -2    5.61    0.66
   2   8  -2    6.09    0.48
  -2  -8   2    5.79    0.31
   1   8  -2    0.91    0.42
   1   8  -2    0.65    0.27
  -1  -8   2    0.88    0.14
   0   8  -2    4.78    0.55
   0   8  -2    4.88    0.38
   0  -8   2    4.55    0.21
  -1   8  -2   26.19    0.85
  -1   8  -2   25.27    1.02
   1  -8   2   26.45    0.70
  -2   8  -2    2.47    0.27
  -2   8  -2    3.36    0.43
  -2   8  -2    3.04    0.29
   2  -8   2    2.95    0.30
  -3   8  -2  147.81    4.08
  -3   8  -2  147.54    3.94
  -3   8  -2  147.11    3.95
   3  -8   2  152.90    3.95
  -4   8  -2  139.50    3.77
  -4   8  -2  137.27    3.86
   4  -8   2  144.58    3.73
   4  -8   2  138.80    3.85
   4  -8   2  141.66    3.63
  -5   8  -2   12.98    0.60
   5  -8   2   13.92    0.45
   5  -8   2   14.99    0.74
  -6   8  -2    4.15    0.41
   6  -8   2    4.09    0.26
   6  -8   2    5.23    0.58
  -7   8  -2   -0.12    0.32
   7  -8   2    0.79    0.44
   7  -8   2   -0.03    0.16
  -8   8  -2    2.49    0.44
   8  -8   2    2.81    0.53
   8  -8   2    2.65    0.27
  -9   8  -2    2.22    0.56
   9  -8   2    2.40    0.61
   9  -8   2    1.67    0.31
   6   7  -2    4.12    0.47
   6   7  -2    4.57    0.57
  -6  -7   2    4.03    0.45
   5   7  -2    1.05    0.40
   5   7  -2    1.33    0.54
   5   7  -2    1.08    0.24
  -5  -7   2    1.11    0.29
   4   7  -2   22.51    0.87
   4   7  -2   22.47    1.07
   4   7  -2   21.66    0.70
  -4  -7   2   21.62    0.75
   3   7  -2    1.40    0.30
   3   7  -2    1.28    0.43
   3   7  -2    1.44    0.18
  -3  -7   2    1.99    0.21
   2   7  -2   58.34    1.79
   2   7  -2   56.02    1.65
  -2  -7   2   54.98    1.53
   1   7  -2  118.74    3.26
   1   7  -2  126.21    3.39
  -1  -7   2  118.43    3.14
   0   7  -2   62.59    1.71
   0   7  -2   58.52    1.82
   0  -7   2   60.08    1.58
  -1   7  -2    7.21    0.35
  -1   7  -2    6.79    0.31
  -1   7  -2    7.11    0.52
   1  -7   2    6.37    0.20
   1  -7   2    6.85    0.23
  -2   7  -2    2.44    0.25
  -2   7  -2    2.23    0.25
  -2   7  -2    2.87    0.37
   2  -7   2    2.28    0.25
  -3   7  -2    7.42    0.38
  -3   7  -2    7.71    0.49
  -3   7  -2    7.15    0.35
   3  -7   2    7.56    0.22
   3  -7   2    7.16    0.49
   3  -7   2    7.32    0.25
   3  -7   2    7.17    0.35
  -4   7  -2   12.17    0.61
  -4   7  -2   11.68    0.51
   4  -7   2   11.97    0.38
   4  -7   2   10.83    0.46
   4  -7   2   11.19    0.60
  -5   7  -2    2.53    0.35
   5  -7   2    2.32    0.35
   5  -7   2    2.29    0.19
  -6   7  -2   94.07    2.66
   6  -7   2   93.47    2.51
   6  -7   2   97.67    2.74
  -7   7  -2   76.62    2.30
   7  -7   2   79.80    2.14
   7  -7   2   81.01    2.39
  -8   7  -2    2.05    0.44
   8  -7   2    2.55    0.55
   8  -7   2    1.97    0.26
  -9   7  -2    1.06    0.20
  -9   7  -2    0.89    0.48
   9  -7   2    1.56    0.63
   9  -7   2    1.49    0.31
   7   6  -2    8.86    1.14
   6   6  -2   56.62    1.73
   6   6  -2   53.67    1.95
   6   6  -2   54.52    1.60
  -6  -6   2   56.26    1.65
   5   6  -2   15.86    0.73
   5   6  -2   16.02    0.59
   5   6  -2   17.20    0.95
  -5  -6   2   15.32    0.62
   4   6  -2    0.37    0.16
   4   6  -2    0.31    0.26
   4   6  -2    0.27    0.41
  -4  -6   2    0.30    0.19
   3   6  -2    6.01    0.28
   3   6  -2    5.55    0.40
   3   6  -2    5.44    0.55
  -3  -6   2    5.22    0.30
   2   6  -2    0.44    0.11
   2   6  -2    0.24    0.28
   2   6  -2    0.39    0.20
  -2  -6   2    0.22    0.11
   1   6  -2   21.77    0.72
   1   6  -2   23.37    0.83
  -1  -6   2   21.89    0.63
   0   6  -2   27.64    0.77
   0   6  -2   26.57    0.94
   0   6  -2   26.80    0.83
   0  -6   2   27.74    0.77
   0  -6   2   27.52    0.74
   0  -6   2   26.48    0.73
  -1   6  -2  294.37    8.09
  -1   6  -2  308.89    7.98
  -1   6  -2  314.73    7.95
   1  -6   2  311.20    7.87
   1  -6   2  306.90    7.98
   1  -6   2  316.55    7.89
  -2   6  -2  103.78    2.72
  -2   6  -2  101.26    2.83
  -2   6  -2  101.52    2.72
   2  -6   2  102.78    2.72
  -3   6  -2   13.93    0.60
  -3   6  -2   12.84    0.50
   3  -6   2   14.04    0.38
   3  -6   2   13.20    0.41
   3  -6   2   13.46    0.48
   3  -6   2   13.03    0.59
  -4   6  -2   20.99    0.73
  -4   6  -2   21.78    0.80
   4  -6   2   22.30    0.63
   4  -6   2   20.10    0.78
   4  -6   2   22.44    0.69
  -5   6  -2    1.74    0.27
   5  -6   2    1.60    0.18
   5  -6   2    1.73    0.32
  -6   6  -2    6.90    0.48
  -6   6  -2    6.88    0.25
   6  -6   2    7.15    0.34
   6  -6   2    6.96    0.52
  -7   6  -2    2.52    0.23
  -7   6  -2    3.07    0.41
   7  -6   2    2.23    0.23
   7  -6   2    3.08    0.48
  -8   6  -2   17.59    0.59
  -8   6  -2   18.43    0.85
   8  -6   2   17.79    0.96
   8  -6   2   18.07    0.67
  -9   6  -2   33.19    1.25
  -9   6  -2   30.34    0.96
   9  -6   2   30.73    1.04
   9  -6   2   30.08    1.33
   7   5  -2    0.76    0.66
   7   5  -2    0.11    0.32
   6   5  -2    0.13    0.31
   6   5  -2    0.08    0.24
   6   5  -2    0.62    0.51
  -6  -5   2   -0.07    0.28
   5   5  -2   16.72    0.62
   5   5  -2   18.33    0.71
   5   5  -2   16.74    0.87
  -5  -5   2   17.00    0.63
   4   5  -2   50.48    1.63
   4   5  -2   52.24    1.51
   4   5  -2   53.56    1.43
  -4  -5   2   50.29    1.44
   3   5  -2   36.19    1.00
   3   5  -2   33.40    1.15
   3   5  -2   35.94    1.08
  -3  -5   2   37.22    1.01
   2   5  -2    5.90    0.24
   2   5  -2    5.95    0.42
   2   5  -2    4.82    0.30
   2   5  -2    5.49    0.23
  -2  -5   2    5.34    0.23
   1   5  -2   15.79    0.61
   1   5  -2   15.86    0.54
   1   5  -2   16.50    0.44
   1   5  -2   15.88    0.44
  -1  -5   2   16.10    0.45
  -1  -5   2   15.96    0.47
  -1  -5   2   15.57    0.46
   0   5  -2   40.86    1.21
   0   5  -2   35.99    1.10
   0   5  -2   40.65    1.06
   0  -5   2   38.85    1.04
   0  -5   2   39.82    1.03
  -1   5  -2   13.35    0.56
  -1   5  -2   14.22    0.44
  -1   5  -2   14.29    0.46
   1  -5   2   13.45    0.46
   1  -5   2   13.78    0.37
   1  -5   2   13.36    0.38
  -2   5  -2    0.24    0.12
  -2   5  -2    0.22    0.19
  -2   5  -2    0.12    0.11
   2  -5   2    0.07    0.05
   2  -5   2    0.07    0.11
   2  -5   2    0.13    0.04
  -3   5  -2  117.71    3.14
  -3   5  -2  119.81    3.07
   3  -5   2  114.07    3.03
   3  -5   2  110.06    2.99
   3  -5   2  117.97    2.97
   3  -5   2  112.16    3.12
  -4   5  -2  133.10    3.52
   4  -5   2  133.75    3.48
   4  -5   2  133.04    3.43
   4  -5   2  128.13    3.56
  -5   5  -2   16.14    0.47
  -5   5  -2   16.05    0.63
   5  -5   2   16.15    0.70
   5  -5   2   16.24    0.52
  -6   5  -2    0.01    0.11
  -6   5  -2    0.14    0.23
   6  -5   2    0.25    0.15
   6  -5   2    0.34    0.28
  -7   5  -2    0.41    0.28
  -7   5  -2    0.32    0.15
   7  -5   2   -0.18    0.36
   7  -5   2    0.08    0.17
  -8   5  -2    0.13    0.35
  -8   5  -2   -0.09    0.20
   8  -5   2    0.20    0.39
   8  -5   2    0.04    0.23
  -9   5  -2   -0.22    0.43
  -9   5  -2    0.48    0.27
   9  -5   2    0.05    0.54
   9  -5   2    0.08    0.30
   8   4  -2    6.75    0.91
   8   4  -2    6.61    0.58
   7   4  -2    2.31    0.61
   7   4  -2    1.77    0.31
   6   4  -2    6.14    0.46
   6   4  -2    6.81    0.68
   6   4  -2    6.52    0.41
   5   4  -2    1.65    0.40
   5   4  -2    1.75    0.21
   5   4  -2    1.38    0.26
  -5  -4   2    1.67    0.23
   4   4  -2   66.07    1.82
   4   4  -2   69.57    1.99
   4   4  -2   66.13    1.87
  -4  -4   2   68.55    1.83
   3   4  -2    0.54    0.23
   3   4  -2    0.70    0.17
   3   4  -2    0.48    0.11
  -3  -4   2    0.54    0.12
   2   4  -2  198.79    5.08
   2   4  -2  194.96    5.19
   2   4  -2  194.23    5.14
   2   4  -2  205.78    5.08
  -2  -4   2  193.51    5.08
   1   4  -2  446.44   11.15
   1   4  -2  422.22   11.08
   1   4  -2  449.36   11.21
   1   4  -2  443.23   11.08
   1   4  -2  442.24   11.08
  -1  -4   2  422.60   11.09
  -1  -4   2  429.51   11.09
  -1  -4   2  420.46   11.08
   0   4  -2   62.94    1.78
   0   4  -2   62.67    1.71
   0   4  -2   66.21    1.68
   0  -4   2   62.63    1.72
   0  -4   2   63.93    1.65
   0  -4   2   64.81    1.66
  -1   4  -2   39.06    1.11
  -1   4  -2   41.46    1.11
  -1   4  -2   41.10    1.20
   1  -4   2   39.90    1.11
   1  -4   2   40.33    1.04
   1  -4   2   40.87    1.05
  -2   4  -2   15.18    0.49
  -2   4  -2   14.74    0.56
   2  -4   2   14.18    0.43
   2  -4   2   14.75    0.47
   2  -4   2   15.50    0.41
  -3   4  -2   68.13    1.87
  -3   4  -2   68.93    1.73
  -3   4  -2   65.94    1.81
  -3   4  -2   64.95    1.71
   3  -4   2   62.99    1.86
   3  -4   2   68.28    1.74
   3  -4   2   65.54    1.75
   3  -4   2   66.00    1.79
  -4   4  -2    9.63    0.35
  -4   4  -2    8.46    0.28
  -4   4  -2    8.31    0.39
   4  -4   2    8.02    0.44
   4  -4   2    8.70    0.31
   4  -4   2    8.37    0.40
  -5   4  -2   46.55    1.22
  -5   4  -2   42.94    1.33
   5  -4   2   45.91    1.38
   5  -4   2   44.27    1.24
  -6   4  -2  116.73    3.16
  -6   4  -2  116.16    3.03
   6  -4   2  112.74    3.06
   6  -4   2  115.70    3.22
  -7   4  -2   45.86    1.45
  -7   4  -2   46.89    1.32
   7  -4   2   45.48    1.52
   7  -4   2   47.09    1.35
  -8   4  -2   -0.19    0.22
  -8   4  -2    0.00    0.33
   8  -4   2   -0.10    0.23
   8  -4   2   -0.06    0.38
  -9   4  -2    8.12    0.70
  -9   4  -2    7.93    0.53
   9  -4   2    8.67    0.88
   8   3  -2    2.23    0.61
   8   3  -2    1.80    0.37
   7   3  -2   30.44    1.29
   7   3  -2   32.38    1.03
   6   3  -2   50.10    1.64
   6   3  -2   49.34    1.42
   5   3  -2   19.78    0.64
   5   3  -2   19.00    0.66
   5   3  -2   19.47    0.79
  -5  -3   2   19.57    0.65
   4   3  -2   33.64    1.02
   4   3  -2   37.08    1.14
   4   3  -2   34.21    0.99
  -4  -3   2   36.63    1.00
   3   3  -2   22.53    0.68
   3   3  -2   22.02    0.64
   3   3  -2   22.10    0.76
  -3  -3   2   23.36    0.66
  -3  -3   2   22.10    0.65
   2   3  -2   16.63    0.55
   2   3  -2   14.63    0.48
   2   3  -2   14.95    0.44
  -2  -3   2   14.89    0.44
   1   3  -2    8.78    0.25
   1   3  -2    7.96    0.29
   1   3  -2    8.24    0.24
   1   3  -2    8.38    0.34
   1   3  -2    8.72    0.26
  -1  -3   2    8.38    0.25
   0   3  -2   48.69    1.29
   0   3  -2   47.64    1.26
   0   3  -2   48.56    1.31
   0   3  -2   50.87    1.25
   0   3  -2   49.22    1.37
   0  -3   2   46.33    1.31
   0  -3   2   49.70    1.28
   0  -3   2   49.37    1.26
  -1   3  -2  372.09    9.70
  -1   3  -2  394.35    9.64
   1  -3   2  381.47    9.63
   1  -3   2  366.18    9.60
   1  -3   2  366.44    9.59
  -2   3  -2   57.07    1.62
  -2   3  -2   58.48    1.66
  -2   3  -2   63.02    1.58
  -2   3  -2   63.44    1.56
   2  -3   2   58.71    1.66
   2  -3   2   62.89    1.62
   2  -3   2   60.09    1.59
   2  -3   2   56.76    1.59
  -3   3  -2    8.56    0.28
  -3   3  -2    8.98    0.35
  -3   3  -2    9.64    0.33
   3  -3   2    8.75    0.30
   3  -3   2    8.67    0.38
   3  -3   2    8.43    0.36
  -4   3  -2   38.81    1.15
  -4   3  -2   39.57    1.07
   4  -3   2   39.82    1.19
   4  -3   2   39.57    1.14
   4  -3   2   39.29    1.09
  -5   3  -2    5.59    0.27
  -5   3  -2    5.96    0.37
   5  -3   2    5.95    0.29
   5  -3   2    6.24    0.33
   5  -3   2    7.12    0.45
  -6   3  -2    5.68    0.32
  -6   3  -2    6.45    0.43
   6  -3   2    6.54    0.47
   6  -3   2    5.50    0.33
  -7   3  -2    2.33    0.36
  -7   3  -2    2.30    0.26
   7  -3   2    1.63    0.38
   7  -3   2    1.92    0.26
  -8   3  -2   36.52    1.27
  -8   3  -2   36.66    1.15
   8  -3   2   37.72    1.41
  -9   3  -2   12.02    0.65
   9  -3   2   10.91    0.98
   9   2  -2    0.27    0.69
   8   2  -2    7.07    0.85
   8   2  -2    7.71    0.55
   7   2  -2    6.11    0.44
   7   2  -2    4.92    0.59
   6   2  -2    3.04    0.27
   6   2  -2    3.02    0.44
   5   2  -2   15.59    0.54
   5   2  -2   15.32    0.53
   5   2  -2   16.56    0.69
  -5  -2   2   15.79    0.55
  -5  -2   2   15.32    0.53
   4   2  -2  153.67    4.19
   4   2  -2  154.72    4.08
   4   2  -2  160.83    4.09
   4   2  -2  153.35    4.10
  -4  -2   2  161.97    4.10
  -4  -2   2  161.40    4.06
  -4  -2   2  155.44    4.09
   3   2  -2   90.83    2.47
   3   2  -2   91.38    2.53
   3   2  -2   93.43    2.45
   3   2  -2   96.84    2.45
   3   2  -2   96.69    2.42
  -3  -2   2   93.44    2.45
  -3  -2   2   90.17    2.45
  -3  -2   2   96.52    2.42
   2   2  -2   64.04    1.71
   2   2  -2   66.83    1.78
   2   2  -2   65.74    1.73
  -2  -2   2   65.25    1.71
  -2  -2   2   65.10    1.71
   1   2  -2  152.56    3.90
   1   2  -2  150.64    3.93
   1   2  -2  156.03    3.90
   1   2  -2  150.13    3.96
  -1  -2   2  146.56    3.93
  -1  -2   2  156.31    3.90
   0   2  -2   16.26    0.47
   0   2  -2   17.44    0.48
   0   2  -2   17.25    0.53
   0  -2   2   16.61    0.49
   0  -2   2   16.70    0.45
  -1   2  -2  126.86    3.31
  -1   2  -2  128.51    3.24
  -1   2  -2  133.10    3.28
   1  -2   2  122.69    3.26
   1  -2   2  120.21    3.28
  -2   2  -2  112.64    2.90
  -2   2  -2  109.68    2.97
  -2   2  -2  114.74    2.96
   2  -2   2  110.68    2.97
   2  -2   2  112.89    2.97
   2  -2   2  114.67    2.92
  -3   2  -2  182.08    4.52
  -3   2  -2  168.02    4.57
   3  -2   2  179.42    4.53
   3  -2   2  174.54    4.60
   3  -2   2  174.19    4.58
   3  -2   2  174.14    4.53
  -4   2  -2  120.81    3.24
  -4   2  -2  124.94    3.31
   4  -2   2  127.32    3.28
   4  -2   2  128.99    3.26
   4  -2   2  122.79    3.25
   4  -2   2  121.60    3.34
  -5   2  -2    0.86    0.16
  -5   2  -2    0.88    0.21
   5  -2   2    0.91    0.27
   5  -2   2    0.62    0.14
   5  -2   2    1.26    0.19
  -6   2  -2    7.27    0.45
  -6   2  -2    7.24    0.38
   6  -2   2    7.11    0.38
   6  -2   2    7.36    0.50
  -7   2  -2    7.48    0.52
  -7   2  -2    6.80    0.43
   7  -2   2    7.49    0.65
  -8   2  -2    5.64    0.48
   8  -2   2    5.58    0.74
  -9   2  -2    5.05    0.57
   9  -2   2    4.70    0.72
   9   1  -2   36.72    1.50
   8   1  -2    0.51    0.48
   7   1  -2   14.07    0.77
   7   1  -2   12.34    0.56
  -7  -1   2   13.80    0.59
   6   1  -2   59.11    1.79
   6   1  -2   58.79    1.63
  -6  -1   2   58.97    1.64
   5   1  -2   11.11    0.41
   5   1  -2   10.54    0.39
   5   1  -2   10.64    0.40
   5   1  -2   10.64    0.53
  -5  -1   2   10.96    0.42
  -5  -1   2   11.24    0.40
  -5  -1   2   10.78    0.39
   4   1  -2    1.65    0.16
   4   1  -2    1.73    0.23
   4   1  -2    1.53    0.17
   4   1  -2    1.48    0.15
  -4  -1   2    1.76    0.17
  -4  -1   2    1.51    0.15
  -4  -1   2    1.59    0.16
   3   1  -2   79.22    2.20
   3   1  -2   80.87    2.13
   3   1  -2   80.36    2.14
   3   1  -2   81.92    2.14
   3   1  -2   81.51    2.13
  -3  -1   2   81.05    2.13
  -3  -1   2   85.61    2.13
  -3  -1   2   82.38    2.14
   2   1  -2  361.34    9.07
   2   1  -2  362.68    9.06
   2   1  -2  353.59    9.06
   2   1  -2  361.32    9.11
   2   1  -2  340.50    9.07
  -2  -1   2  359.62    9.07
  -2  -1   2  353.57    9.07
  -2  -1   2  345.28    9.06
   1   1  -2   10.11    0.30
   1   1  -2   10.73    0.33
   1   1  -2   10.08    0.33
  -1  -1   2   10.87    0.32
  -1  -1   2   10.21    0.30
  -1  -1   2   10.54    0.30
   0   1  -2   30.37    0.84
   0   1  -2   30.45    0.83
   0   1  -2   31.49    0.85
   0  -1   2   29.99    0.83
  -1   1  -2  678.06   16.27
  -1   1  -2  608.23   16.17
  -1   1  -2  653.05   16.12
   1  -1   2  618.74   16.12
   1  -1   2  595.43   16.10
   1  -1   2  625.09   16.06
  -2   1  -2   75.06    2.02
  -2   1  -2   76.07    1.97
  -2   1  -2   76.68    1.97
   2  -1   2   71.58    2.02
   2  -1   2   76.80    1.98
   2  -1   2   74.34    2.02
   2  -1   2   77.50    1.98
  -3   1  -2    0.29    0.09
  -3   1  -2    0.25    0.09
  -3   1  -2    0.37    0.13
   3  -1   2    0.32    0.13
   3  -1   2    0.25    0.09
   3  -1   2    0.34    0.14
   3  -1   2    0.44    0.11
  -4   1  -2    0.39    0.12
  -4   1  -2    0.61    0.13
  -4   1  -2    0.49    0.16
   4  -1   2    0.51    0.14
   4  -1   2    0.34    0.12
   4  -1   2    0.79    0.22
   4  -1   2    0.69    0.13
  -5   1  -2   22.73    0.76
  -5   1  -2   22.65    0.71
   5  -1   2   23.18    0.71
   5  -1   2   22.40    0.72
   5  -1   2   22.28    0.83
   5  -1   2   21.85    0.70
  -6   1  -2   48.10    1.39
  -6   1  -2   48.45    1.45
   6  -1   2   48.82    1.55
  -7   1  -2    6.40    0.45
  -7   1  -2    6.16    0.55
   7  -1   2    6.22    0.59
  -8   1  -2    9.78    0.60
   8  -1   2   10.36    0.87
  -9   1  -2   12.51    0.79
   9  -1   2   14.63    1.14
   9   0  -2    3.77    0.60
  -9   0   2    5.50    0.55
   8   0  -2    5.32    0.67
  -8   0   2    6.15    0.47
   7   0  -2   11.53    0.65
  -7   0   2   12.60    0.53
   6   0  -2   39.93    1.28
   6   0  -2   40.52    1.16
   6   0  -2   40.44    1.16
  -6   0   2   41.08    1.17
  -6   0   2   40.69    1.18
   5   0  -2    5.98    0.28
   5   0  -2    6.22    0.26
   5   0  -2    6.63    0.29
   5   0  -2    6.49    0.37
  -5   0   2    6.21    0.30
  -5   0   2    5.92    0.29
  -5   0   2    6.40    0.29
   4   0  -2  170.00    4.42
   4   0  -2  161.66    4.49
   4   0  -2  172.72    4.42
   4   0  -2  172.05    4.40
  -4   0   2  172.63    4.43
  -4   0   2  172.97    4.43
  -4   0   2  175.46    4.42
   3   0  -2  306.83    7.98
   3   0  -2  307.87    7.99
   3   0  -2  321.96    7.97
   3   0  -2  306.91    7.98
   3   0  -2  312.23    8.03
  -3   0   2  315.83    7.99
  -3   0   2  310.18    7.98
  -3   0   2  311.01    7.97
   2   0  -2   10.86    0.33
   2   0  -2    9.90    0.34
   2   0  -2   10.72    0.31
   2   0  -2   11.04    0.32
  -2   0   2   10.68    0.32
  -2   0   2   10.73    0.32
  -2   0   2   10.65    0.31
  -2   0   2   10.63    0.33
   1   0  -2  154.67    3.96
   1   0  -2  160.50    3.99
   1   0  -2  153.87    3.95
   1   0  -2  154.91    3.96
  -1   0   2  143.71    3.95
  -1   0   2  156.69    3.98
  -1   0   2  155.01    3.96
   0   0  -2   12.04    0.37
   0   0  -2   12.01    0.40
   0   0  -2   12.16    0.37
   0   0  -2   12.82    0.36
   0   0   2   11.54    0.36
   0   0   2   12.27    0.40
  -1   0  -2  324.44    8.31
  -1   0  -2  331.94    8.27
  -1   0  -2  326.95    8.27
   1   0   2  312.76    8.26
   1   0   2  318.09    8.31
   1   0   2  315.77    8.27
   1   0   2  330.88    8.27
  -2   0  -2    5.03    0.21
  -2   0  -2    5.08    0.21
  -2   0  -2    4.80    0.24
   2   0   2    5.35    0.25
   2   0   2    5.19    0.21
   2   0   2    5.48    0.21
   2   0   2    5.58    0.25
  -3   0  -2   81.04    2.12
  -3   0  -2   78.81    2.12
  -3   0  -2   78.06    2.16
   3   0   2   79.32    2.12
   3   0   2   81.27    2.12
   3   0   2   82.54    2.18
   3   0   2   80.27    2.15
  -4   0  -2   61.37    1.67
  -4   0  -2   61.70    1.71
  -4   0  -2   62.51    1.67
   4   0   2   58.82    1.66
   4   0   2   60.93    1.66
   4   0   2   61.41    1.69
   4   0   2   63.06    1.76
  -5   0  -2    9.64    0.46
  -5   0  -2    9.53    0.43
   5   0   2   10.33    0.57
   5   0   2   10.69    0.46
   5   0   2   10.10    0.43
  -6   0  -2    0.48    0.23
  -6   0  -2    0.44    0.25
   6   0   2    0.28    0.35
  -7   0  -2   18.74    0.74
   7   0   2   17.83    0.94
   8   0   2    9.74    0.92
  10  -1  -2    2.13    0.63
 -10   1   2    2.32    0.43
   9  -1  -2   27.39    1.17
  -9   1   2   27.70    0.99
   8  -1  -2   26.47    1.05
  -8   1   2   27.01    0.91
   7  -1  -2   -0.19    0.27
   7  -1  -2   -0.08    0.17
  -7   1   2    0.08    0.18
  -7   1   2    0.25    0.23
   6  -1  -2    5.02    0.29
   6  -1  -2    5.27    0.39
  -6   1   2    4.49    0.28
  -6   1   2    3.98    0.30
   5  -1  -2   49.49    1.35
   5  -1  -2   50.51    1.35
   5  -1  -2   47.87    1.44
  -5   1   2   49.32    1.31
  -5   1   2   49.06    1.38
  -5   1   2   51.26    1.36
   4  -1  -2   96.80    2.62
   4  -1  -2   98.92    2.55
   4  -1  -2   95.05    2.55
  -4   1   2   93.18    2.58
  -4   1   2  101.12    2.52
  -4   1   2   96.44    2.56
  -4   1   2  103.03    2.56
   3  -1  -2    3.56    0.21
   3  -1  -2    4.24    0.17
   3  -1  -2    4.30    0.20
   3  -1  -2    3.87    0.16
  -3   1   2    4.16    0.16
  -3   1   2    4.17    0.20
  -3   1   2    3.89    0.19
  -3   1   2    3.65    0.16
   2  -1  -2  297.90    7.61
   2  -1  -2  293.69    7.58
   2  -1  -2  310.76    7.60
  -2   1   2  290.91    7.58
  -2   1   2  280.03    7.59
  -2   1   2  306.44    7.61
   1  -1  -2  381.19    9.97
   1  -1  -2  388.93    9.97
   1  -1  -2  398.30    9.97
  -1   1   2  384.02    9.96
  -1   1   2  393.75    9.95
   0  -1  -2   37.34    1.01
   0  -1  -2   38.15    1.06
   0   1   2   37.07    1.00
  -1  -1  -2   24.28    0.76
  -1  -1  -2   25.81    0.71
  -1  -1  -2   25.36    0.71
   1   1   2   26.12    0.70
   1   1   2   24.56    0.70
   1   1   2   26.18    0.74
   1   1   2   24.67    0.70
  -2  -1  -2    5.72    0.28
  -2  -1  -2    5.65    0.23
  -2  -1  -2    5.66    0.24
   2   1   2    5.43    0.23
   2   1   2    5.61    0.23
   2   1   2    6.01    0.26
   2   1   2    5.42    0.27
  -3  -1  -2   93.09    2.46
  -3  -1  -2   91.29    2.45
  -3  -1  -2   92.42    2.49
   3   1   2   92.70    2.45
   3   1   2   94.84    2.49
   3   1   2   94.15    2.51
   3   1   2   91.38    2.45
  -4  -1  -2   10.03    0.41
  -4  -1  -2   10.75    0.41
  -4  -1  -2    9.68    0.43
   4   1   2    9.94    0.40
   4   1   2   10.53    0.44
   4   1   2   10.89    0.51
  -5  -1  -2   24.07    0.79
  -5  -1  -2   24.17    0.81
   5   1   2   24.62    0.78
   5   1   2   24.73    0.92
   5   1   2   23.76    0.80
   6   1   2   74.04    2.21
   6   1   2   71.77    2.03
   7   1   2   23.47    1.12
   8   1   2    0.55    0.67
  10  -2  -2    5.89    0.78
 -10   2   2    5.57    0.57
   9  -2  -2    9.50    0.72
  -9   2   2   11.09    0.56
   8  -2  -2    1.93    0.43
   8  -2  -2    1.76    0.27
  -8   2   2    2.46    0.36
  -8   2   2    1.98    0.27
   7  -2  -2   36.40    1.21
   7  -2  -2   36.49    1.08
  -7   2   2   38.42    1.15
  -7   2   2   35.71    1.08
   6  -2  -2   33.52    0.95
   6  -2  -2   33.94    1.08
  -6   2   2   33.38    0.96
  -6   2   2   32.01    1.01
   5  -2  -2   60.95    1.74
   5  -2  -2   65.16    1.67
   5  -2  -2   63.34    1.66
  -5   2   2   60.75    1.71
  -5   2   2   60.18    1.66
   4  -2  -2    0.14    0.07
   4  -2  -2    0.28    0.13
   4  -2  -2    0.19    0.09
  -4   2   2    0.14    0.08
  -4   2   2    0.18    0.12
   3  -2  -2   41.55    1.15
   3  -2  -2   42.29    1.10
   3  -2  -2   42.50    1.14
  -3   2   2   38.06    1.14
  -3   2   2   42.36    1.07
  -3   2   2   41.32    1.10
   2  -2  -2  195.33    5.08
   2  -2  -2  195.11    5.13
   2  -2  -2  203.93    5.10
  -2   2   2  201.13    5.10
  -2   2   2  194.53    5.09
  -2   2   2  200.08    5.14
  -2   2   2  199.98    5.07
   1  -2  -2    0.46    0.07
   1  -2  -2    0.39    0.09
  -1   2   2    0.31    0.07
  -1   2   2    0.60    0.06
   0  -2  -2   44.93    1.32
   0  -2  -2   46.26    1.28
   0   2   2   48.34    1.30
   0   2   2   51.08    1.24
   0   2   2   47.32    1.25
  -1  -2  -2  345.88    8.88
  -1  -2  -2  352.16    8.95
  -1  -2  -2  345.94    8.88
   1   2   2  346.87    8.91
   1   2   2  338.96    8.86
   1   2   2  348.18    8.87
  -2  -2  -2  115.72    2.97
  -2  -2  -2  112.78    2.98
  -2  -2  -2  116.94    3.03
   2   2   2  109.01    3.01
   2   2   2  114.33    3.00
   2   2   2  112.04    2.96
   2   2   2  114.03    2.96
  -3  -2  -2    8.29    0.35
  -3  -2  -2    7.93    0.38
  -3  -2  -2    7.99    0.33
   3   2   2    8.78    0.41
   3   2   2    7.64    0.38
  -4  -2  -2    0.36    0.20
  -4  -2  -2    0.23    0.16
   4   2   2    0.42    0.15
   4   2   2    0.31    0.20
   4   2   2    0.32    0.26
   5   2   2    7.16    0.46
   5   2   2    6.59    0.39
   5   2   2    5.84    0.54
   6   2   2   11.46    0.77
   6   2   2   11.54    0.56
   7   2   2    2.34    0.37
   8   2   2    9.03    0.90
  10  -3  -2    2.41    0.64
 -10   3   2    2.19    0.37
   9  -3  -2    0.61    0.40
  -9   3   2    0.22    0.26
   8  -3  -2   10.97    0.68
   8  -3  -2    9.75    0.48
  -8   3   2   10.88    0.49
  -8   3   2   10.93    0.58
   7  -3  -2   41.84    1.29
   7  -3  -2   38.91    1.15
  -7   3   2   38.75    1.15
  -7   3   2   41.10    1.24
   6  -3  -2   30.86    1.00
   6  -3  -2   29.43    0.87
  -6   3   2   30.05    0.95
  -6   3   2   30.33    0.87
   5  -3  -2   47.76    1.37
   5  -3  -2   47.83    1.28
  -5   3   2   47.08    1.35
  -5   3   2   47.04    1.28
   4  -3  -2  315.68    8.09
   4  -3  -2  308.84    8.02
  -4   3   2  307.56    8.02
  -4   3   2  323.47    8.01
  -4   3   2  310.81    8.09
   3  -3  -2  106.06    2.82
   3  -3  -2  103.85    2.76
   3  -3  -2  108.39    2.75
   3  -3  -2  105.63    2.80
  -3   3   2  105.87    2.82
  -3   3   2  104.29    2.76
  -3   3   2  108.36    2.75
  -3   3   2  110.55    2.74
   2  -3  -2   21.00    0.59
   2  -3  -2   20.71    0.64
   2  -3  -2   19.88    0.57
   2  -3  -2   21.42    0.59
  -2   3   2   21.10    0.55
  -2   3   2   21.47    0.60
  -2   3   2   21.55    0.55
   1  -3  -2    5.39    0.18
   1  -3  -2    4.72    0.18
   1  -3  -2    4.22    0.19
   1  -3  -2    5.07    0.25
  -1   3   2    5.05    0.15
  -1   3   2    5.62    0.18
  -1   3   2    4.89    0.15
  -1   3   2    5.25    0.23
   0  -3  -2   42.71    1.26
   0  -3  -2   42.39    1.20
   0   3   2   43.36    1.23
   0   3   2   44.97    1.16
   0   3   2   45.95    1.19
   0   3   2   45.62    1.19
  -1  -3  -2  109.51    2.87
  -1  -3  -2  113.40    2.96
   1   3   2  104.62    2.91
   1   3   2  110.21    2.85
   1   3   2  111.02    2.88
  -2  -3  -2    5.36    0.26
  -2  -3  -2    5.18    0.33
   2   3   2    4.67    0.29
   2   3   2    5.55    0.31
   2   3   2    4.90    0.23
  -3  -3  -2  101.78    2.67
  -3  -3  -2   98.42    2.63
   3   3   2  101.26    2.71
   3   3   2   94.24    2.62
   3   3   2   99.66    2.69
  -4  -3  -2   79.92    2.23
   4   3   2   80.12    2.21
   4   3   2   83.78    2.29
   4   3   2   84.05    2.35
   5   3   2   26.19    1.03
   5   3   2   24.88    0.83
   5   3   2   24.95    0.91
   6   3   2    0.54    0.35
   6   3   2    0.41    0.26
   7   3   2    2.44    0.41
 -10   4   2    6.47    0.53
   9  -4  -2   37.14    1.39
   9  -4  -2   38.48    1.19
  -9   4   2   37.59    1.17
  -9   4   2   40.06    1.33
   8  -4  -2   26.58    1.04
   8  -4  -2   26.44    0.86
  -8   4   2   27.62    0.85
  -8   4   2   27.80    0.97
   7  -4  -2    0.70    0.27
   7  -4  -2    0.76    0.17
  -7   4   2    0.64    0.24
  -7   4   2    0.85    0.17
   6  -4  -2    2.69    0.22
   6  -4  -2    2.05    0.27
  -6   4   2    2.30    0.20
  -6   4   2    2.47    0.29
   5  -4  -2   32.59    0.93
   5  -4  -2   32.34    1.01
  -5   4   2   34.53    0.92
  -5   4   2   34.61    0.93
  -5   4   2   34.57    1.03
   4  -4  -2   38.82    1.05
   4  -4  -2   38.82    1.12
   4  -4  -2   38.14    1.14
   4  -4  -2   38.15    1.05
  -4   4   2   37.58    1.14
  -4   4   2   40.89    1.04
  -4   4   2   39.84    1.04
  -4   4   2   40.99    1.03
   3  -4  -2   35.50    0.95
   3  -4  -2   36.15    1.00
   3  -4  -2   33.20    1.03
   3  -4  -2   34.85    0.97
  -3   4   2   37.74    0.98
  -3   4   2   37.50    1.05
   2  -4  -2  287.49    7.33
   2  -4  -2  281.27    7.41
   2  -4  -2  289.59    7.36
   2  -4  -2  287.71    7.34
  -2   4   2  287.56    7.37
   1  -4  -2  211.36    5.58
   1  -4  -2  206.55    5.52
   1  -4  -2  217.41    5.50
  -1   4   2  221.96    5.52
  -1   4   2  214.99    5.55
   0  -4  -2    1.23    0.14
   0  -4  -2    1.13    0.13
   0  -4  -2    1.39    0.20
   0   4   2    1.35    0.10
   0   4   2    1.24    0.13
   0   4   2    1.43    0.18
   0   4   2    1.49    0.19
  -1  -4  -2    0.46    0.12
  -1  -4  -2    0.18    0.19
   1   4   2    0.10    0.16
   1   4   2    0.18    0.08
   1   4   2    0.08    0.14
   1   4   2    0.23    0.18
  -2  -4  -2   11.62    0.43
  -2  -4  -2   11.43    0.52
   2   4   2   12.53    0.51
   2   4   2   11.54    0.50
   2   4   2   12.29    0.40
  -3  -4  -2   21.19    0.69
   3   4   2   21.89    0.77
   3   4   2   21.40    0.80
   3   4   2   21.30    0.67
  -4  -4  -2    0.31    0.20
   4   4   2    0.30    0.19
   4   4   2   -0.19    0.26
   5   4   2   20.93    0.85
   5   4   2   20.95    0.74
   6   4   2   41.74    1.41
   6   4   2   43.07    1.32
  10  -5  -2    3.92    0.66
  10  -5  -2    3.31    0.38
 -10   5   2    4.96    0.67
 -10   5   2    3.84    0.44
   9  -5  -2    6.75    0.67
   9  -5  -2    6.43    0.45
  -9   5   2    5.70    0.60
  -9   5   2    4.95    0.39
   8  -5  -2    9.30    0.65
   8  -5  -2   11.35    0.49
  -8   5   2   11.71    0.64
  -8   5   2   11.69    0.46
   7  -5  -2  106.47    2.77
   7  -5  -2  104.02    2.91
  -7   5   2  103.61    2.89
  -7   5   2  103.13    2.74
   6  -5  -2   77.25    2.13
   6  -5  -2   73.99    2.00
  -6   5   2   77.17    1.99
  -6   5   2   73.32    2.12
   5  -5  -2    6.42    0.37
   5  -5  -2    6.96    0.26
   5  -5  -2    6.95    0.38
  -5   5   2    6.20    0.36
   4  -5  -2   10.71    0.43
   4  -5  -2   10.48    0.46
   4  -5  -2   11.09    0.34
   4  -5  -2   10.70    0.35
  -4   5   2   11.36    0.45
  -4   5   2   11.31    0.36
   3  -5  -2   19.02    0.58
   3  -5  -2   18.17    0.54
   3  -5  -2   18.05    0.51
   3  -5  -2   17.54    0.62
  -3   5   2   19.06    0.63
  -3   5   2   18.36    0.56
   2  -5  -2   41.23    1.13
   2  -5  -2   44.17    1.17
   2  -5  -2   42.80    1.23
  -2   5   2   40.16    1.19
  -2   5   2   44.93    1.18
   1  -5  -2    1.78    0.18
   1  -5  -2    2.14    0.24
   1  -5  -2    2.25    0.15
  -1   5   2    2.72    0.21
  -1   5   2    2.36    0.22
   0  -5  -2   46.78    1.30
   0  -5  -2   46.19    1.38
   0   5   2   47.54    1.23
   0   5   2   47.48    1.24
   0   5   2   48.34    1.33
   0   5   2   47.54    1.36
  -1  -5  -2  131.95    3.40
  -1  -5  -2  134.83    3.51
   1   5   2  127.51    3.35
   1   5   2  118.52    3.58
   1   5   2  135.05    3.48
  -2  -5  -2   95.59    2.58
   2   5   2  100.60    2.54
   2   5   2   92.97    2.65
  -3  -5  -2    2.50    0.26
   3   5   2    2.97    0.41
   3   5   2    2.97    0.26
  -4  -5  -2    0.35    0.23
   4   5   2    0.71    0.22
   4   5   2    1.30    0.36
   5   5   2    0.40    0.25
   5   5   2    0.11    0.35
   6   5   2    2.56    0.51
   6   5   2    1.54    0.36
  10  -6  -2    0.15    0.28
  10  -6  -2    0.58    0.54
 -10   6   2    0.02    0.47
 -10   6   2    0.13    0.25
   9  -6  -2    1.77    0.43
   9  -6  -2    2.49    0.29
  -9   6   2    2.01    0.25
  -9   6   2    1.96    0.42
   8  -6  -2    1.19    0.37
   8  -6  -2    2.02    0.23
  -8   6   2    2.07    0.21
  -8   6   2    2.08    0.38
   7  -6  -2    5.97    0.32
   7  -6  -2    5.26    0.48
  -7   6   2    7.46    0.47
   6  -6  -2    1.11    0.14
   6  -6  -2    0.81    0.26
   6  -6  -2    1.19    0.28
  -6   6   2    1.20    0.28
   5  -6  -2   72.28    2.02
   5  -6  -2   70.28    1.99
   5  -6  -2   71.26    1.88
  -5   6   2   71.71    2.03
   4  -6  -2  182.89    4.70
   4  -6  -2  177.41    4.61
   4  -6  -2  179.33    4.75
  -4   6   2  179.13    4.65
  -4   6   2  178.92    4.75
   3  -6  -2   28.73    0.79
   3  -6  -2   27.89    0.76
   3  -6  -2   29.94    0.85
   3  -6  -2   27.14    0.89
  -3   6   2   27.23    0.90
  -3   6   2   28.34    0.83
   2  -6  -2    6.95    0.27
   2  -6  -2    7.06    0.38
   2  -6  -2    7.41    0.26
   2  -6  -2    7.78    0.33
  -2   6   2    8.18    0.34
  -2   6   2    8.25    0.36
   1  -6  -2    0.30    0.12
   1  -6  -2    0.25    0.19
  -1   6   2    0.14    0.17
   0  -6  -2   11.77    0.42
   0  -6  -2   11.65    0.54
   0   6   2   10.76    0.50
  -1  -6  -2    8.27    0.37
   1   6   2    8.43    0.28
   1   6   2    7.93    0.44
  -2  -6  -2   49.30    1.40
   2   6   2   50.08    1.34
   2   6   2   48.06    1.50
  -3  -6  -2   72.54    2.01
   3   6   2   70.77    2.10
   3   6   2   72.83    1.95
  -4  -6  -2   22.57    0.84
   4   6   2   24.49    0.93
   4   6   2   23.75    0.78
   5   6   2   -0.03    0.41
   5   6   2   -0.20    0.28
  10  -7  -2    6.34    0.80
  10  -7  -2    5.62    0.72
  10  -7  -2    5.10    0.50
 -10   7   2    5.45    0.74
   9  -7  -2   41.53    1.26
   9  -7  -2   41.84    1.45
   9  -7  -2   42.57    1.48
  -9   7   2   42.32    1.48
   8  -7  -2    9.13    0.61
   8  -7  -2    8.45    0.61
   8  -7  -2    9.00    0.42
  -8   7   2    8.87    0.63
   7  -7  -2   13.89    0.49
   7  -7  -2   14.09    0.68
   7  -7  -2   15.58    0.69
  -7   7   2   12.97    0.65
   6  -7  -2    4.21    0.24
   6  -7  -2    4.01    0.43
   6  -7  -2    4.41    0.41
  -6   7   2    4.07    0.40
   5  -7  -2   23.51    0.67
   5  -7  -2   23.24    0.79
   5  -7  -2   24.09    0.85
  -5   7   2   23.02    0.83
   4  -7  -2    1.55    0.14
   4  -7  -2    1.15    0.22
   4  -7  -2    1.55    0.29
  -4   7   2    1.44    0.19
  -4   7   2    1.43    0.26
   3  -7  -2   26.68    0.89
   3  -7  -2   26.26    0.74
  -3   7   2   26.26    0.83
  -3   7   2   27.79    0.85
   2  -7  -2  173.95    4.62
   2  -7  -2  169.76    4.51
  -2   7   2  178.42    4.58
   1  -7  -2   17.31    0.56
   1  -7  -2   17.17    0.69
  -1   7   2   17.25    0.65
   0  -7  -2    0.92    0.17
   0   7   2    0.82    0.26
  -1  -7  -2    4.65    0.32
   1   7   2    4.90    0.44
  -2  -7  -2   -0.16    0.18
   2   7   2    0.03    0.27
   2   7   2    0.11    0.13
  -3  -7  -2    0.71    0.25
   3   7   2    0.74    0.37
   3   7   2    0.26    0.18
  -4  -7  -2    0.20    0.28
   4   7   2    0.18    0.23
   4   7   2    0.10    0.43
  10  -8  -2    0.90    0.30
  10  -8  -2    0.63    0.56
  10  -8  -2    0.57    0.51
 -10   8   2    0.47    0.54
   9  -8  -2    1.01    0.44
   9  -8  -2    1.31    0.47
   9  -8  -2    0.89    0.24
  -9   8   2    1.11    0.48
   8  -8  -2   19.12    0.89
   8  -8  -2   20.01    0.89
   8  -8  -2   20.20    0.67
  -8   8   2   19.38    0.91
   7  -8  -2   59.61    1.83
   7  -8  -2   60.88    1.82
   7  -8  -2   60.12    1.63
  -7   8   2   59.90    1.86
   6  -8  -2   27.40    1.02
   6  -8  -2   27.12    0.96
   6  -8  -2   27.47    0.80
  -6   8   2   29.38    1.03
   5  -8  -2    1.46    0.33
   5  -8  -2    1.38    0.30
   5  -8  -2    1.47    0.16
  -5   8   2    1.73    0.34
   4  -8  -2   60.62    1.78
   4  -8  -2   58.12    1.58
  -4   8   2   61.33    1.67
   3  -8  -2    5.36    0.43
   3  -8  -2    5.67    0.26
  -3   8   2    5.47    0.36
   2  -8  -2   32.41    0.94
   2  -8  -2   33.11    1.09
  -2   8   2   32.42    1.03
   1  -8  -2    1.87    0.19
  -1   8   2    1.37    0.26
   0  -8  -2   31.73    0.93
   0   8   2   30.17    1.06
  -1  -8  -2   63.98    1.77
   1   8   2   63.48    1.91
  -2  -8  -2    4.83    0.42
   2   8   2    5.93    0.58
  -3  -8  -2   15.23    0.69
   3   8   2   16.11    0.52
   3   8   2   16.11    0.87
  -4  -8  -2    1.17    0.35
   4   8   2    0.70    0.59
   4   8   2    1.12    0.25
  10  -9  -2   -0.08    0.58
   9  -9  -2   11.35    0.80
   9  -9  -2   10.38    0.51
   9  -9  -2   10.17    0.82
  -9   9   2   10.86    0.77
   8  -9  -2    1.87    0.45
   8  -9  -2    1.76    0.46
   8  -9  -2    2.20    0.24
  -8   9   2    2.06    0.48
   7  -9  -2    0.80    0.17
   7  -9  -2    0.93    0.37
  -7   9   2    1.16    0.40
   6  -9  -2    0.39    0.36
   6  -9  -2    0.05    0.13
  -6   9   2   -0.05    0.31
   5  -9  -2   38.02    1.26
   5  -9  -2   36.26    1.00
  -5   9   2   35.21    1.23
   4  -9  -2   62.00    1.86
   4  -9  -2   61.99    1.64
  -4   9   2   61.13    1.83
   3  -9  -2    3.64    0.45
   3  -9  -2    3.19    0.28
  -3   9   2    3.28    0.40
   2  -9  -2   13.66    0.49
  -2   9   2   13.48    0.62
   1  -9  -2    6.52    0.35
  -1   9   2    5.74    0.50
   0  -9  -2    2.19    0.24
   0   9   2    1.82    0.36
  -1  -9  -2    0.38    0.22
   1   9   2    0.33    0.39
  -2  -9  -2    4.60    0.46
   2   9   2    4.38    0.57
  -3  -9  -2   10.64    0.64
   9 -10  -2   16.73    0.65
   9 -10  -2   15.90    1.03
  -9  10   2   16.45    0.94
   8 -10  -2    1.37    0.53
   8 -10  -2    0.75    0.22
  -8  10   2    0.93    0.49
   7 -10  -2   30.30    1.18
   7 -10  -2   29.03    0.85
  -7  10   2   26.81    1.12
   6 -10  -2   14.72    0.48
   6 -10  -2   14.30    0.81
  -6  10   2   11.86    0.73
   5 -10  -2    0.00    0.34
   5 -10  -2    0.39    0.15
  -5  10   2    0.36    0.39
   4 -10  -2    1.39    0.40
   4 -10  -2    1.61    0.19
   3 -10  -2   21.07    0.68
  -3  10   2   21.50    0.83
   2 -10  -2   44.78    1.27
  -2  10   2   45.79    1.45
   1 -10  -2   10.94    0.47
  -1  10   2    9.92    0.66
   0 -10  -2   15.02    0.59
   0  10   2   15.17    0.81
  -1 -10  -2    7.13    0.49
   1  10   2    6.46    0.70
   8 -11  -2    8.68    0.44
   8 -11  -2    7.74    0.87
  -8  11   2    7.83    0.85
   7 -11  -2   32.76    1.35
   7 -11  -2   33.66    0.99
  -7  11   2   34.50    1.37
   6 -11  -2    2.80    0.29
   6 -11  -2    2.85    0.54
  -6  11   2    2.31    0.53
   5 -11  -2   15.14    0.54
   5 -11  -2   14.56    0.83
   4 -11  -2   27.30    0.83
   3 -11  -2    2.52    0.24
  -3  11   2    2.91    0.43
   2 -11  -2    4.02    0.34
  -2  11   2    4.21    0.56
   1 -11  -2    2.74    0.29
  -1  11   2    2.67    0.48
   0 -11  -2   22.82    0.81
   0  11   2   22.89    1.02
   7 -12  -2    0.44    0.23
   7 -12  -2    0.80    0.59
  -7  12   2    0.46    0.51
   6 -12  -2    2.42    0.26
   6 -12  -2    2.39    0.59
   5 -12  -2   24.22    0.79
   4 -12  -2   22.06    0.71
   3 -12  -2    0.20    0.21
  -3  12   2    0.11    0.42
   2 -12  -2   38.93    1.16
  -2  12   2   40.47    1.44
  -1  13  -3   13.69    0.89
   1 -13   3   14.74    0.52
   1 -13   3   14.71    0.94
  -2  13  -3   31.28    1.26
   2 -13   3   32.12    0.91
   2 -13   3   32.80    1.27
  -3  13  -3    5.69    0.68
   3 -13   3    5.07    0.68
   3 -13   3    5.99    0.30
  -5  13  -3    5.16    0.81
   5 -13   3    6.22    0.77
   6 -13   3    2.05    0.21
   6 -13   3    2.46    0.68
   1  12  -3    6.43    0.72
  -1 -12   3    7.12    0.88
  -1 -12   3    7.17    0.45
   0  12  -3    8.17    0.72
   0 -12   3    8.93    0.77
   0 -12   3    9.12    0.41
  -1  12  -3    1.20    0.45
   1 -12   3    0.04    0.40
   1 -12   3    1.22    0.18
  -2  12  -3    0.90    0.61
  -2  12  -3    0.62    0.37
   2 -12   3    0.65    0.14
   2 -12   3    0.58    0.40
  -3  12  -3    0.84    0.57
  -3  12  -3    1.06    0.40
   3 -12   3    0.86    0.40
   3 -12   3    1.74    0.16
  -4  12  -3   36.23    1.47
   4 -12   3   34.51    1.41
  -5  12  -3   27.27    1.10
  -5  12  -3   27.90    1.29
   5 -12   3   27.54    0.78
   5 -12   3   27.08    1.25
  -6  12  -3    4.39    0.60
   6 -12   3    3.95    0.66
   6 -12   3    4.36    0.29
  -7  12  -3    7.43    0.79
   7 -12   3    6.56    0.40
   7 -12   3    6.13    0.80
   2  11  -3    4.76    0.58
  -2 -11   3    4.25    0.59
  -2 -11   3    4.36    0.40
   1  11  -3   29.34    1.11
  -1 -11   3   28.79    1.17
  -1 -11   3   30.57    0.91
   0  11  -3   29.83    1.42
   0  11  -3   28.11    1.09
   0 -11   3   29.92    1.08
   0 -11   3   28.47    0.84
  -1  11  -3    0.15    0.56
  -1  11  -3   -0.14    0.33
   1 -11   3    0.19    0.13
   1 -11   3    0.37    0.36
  -2  11  -3   28.93    1.27
  -2  11  -3   27.97    1.03
   2 -11   3   27.65    1.03
   2 -11   3   27.80    0.77
  -3  11  -3   17.20    0.76
  -3  11  -3   16.61    0.92
   3 -11   3   17.76    0.78
   3 -11   3   18.01    0.52
  -4  11  -3    0.50    0.49
  -4  11  -3    0.00    0.35
   4 -11   3    0.11    0.15
   4 -11   3    0.31    0.41
  -5  11  -3    0.93    0.40
  -5  11  -3    1.11    0.50
   5 -11   3    1.36    0.17
   5 -11   3    0.96    0.51
  -6  11  -3   18.94    0.89
   6 -11   3   20.89    0.64
   6 -11   3   20.12    1.07
  -7  11  -3   21.29    1.00
   7 -11   3   19.60    0.68
   7 -11   3   18.85    1.12
  -8  11  -3    0.31    0.53
   8 -11   3    0.44    0.59
   8 -11   3    0.83    0.32
   3  10  -3   16.46    0.86
  -3 -10   3   17.75    0.68
   2  10  -3    6.95    0.60
   2  10  -3    5.98    0.79
  -2 -10   3    7.32    0.41
   1  10  -3    2.54    0.41
   1  10  -3    2.56    0.62
  -1 -10   3    2.46    0.42
  -1 -10   3    2.46    0.27
   0  10  -3    0.17    0.30
   0  10  -3    0.13    0.52
   0 -10   3   -0.18    0.32
   0 -10   3    0.02    0.13
  -1  10  -3   34.25    1.17
  -1  10  -3   35.46    1.40
   1 -10   3   36.63    1.19
   1 -10   3   35.36    0.96
  -2  10  -3   51.33    1.83
  -2  10  -3   55.03    1.63
   2 -10   3   55.62    1.64
   2 -10   3   54.35    1.42
  -3  10  -3    0.13    0.37
  -3  10  -3    0.22    0.28
  -3  10  -3   -0.02    0.27
   3 -10   3    0.39    0.11
   3 -10   3    0.27    0.28
  -4  10  -3   20.55    0.79
  -4  10  -3   19.02    0.93
   4 -10   3   19.20    0.60
   4 -10   3   18.95    0.94
   4 -10   3   19.10    1.01
  -5  10  -3   24.35    0.94
  -5  10  -3   23.09    1.10
   5 -10   3   25.02    0.73
   5 -10   3   24.99    1.10
  -6  10  -3    2.31    0.43
   6 -10   3    2.65    0.27
   6 -10   3    2.71    0.53
  -7  10  -3   -0.05    0.42
   7 -10   3    0.44    0.48
   7 -10   3    0.32    0.20
  -8  10  -3    0.16    0.49
   8 -10   3    0.10    0.22
   8 -10   3    0.05    0.54
  -5  -9   3    2.54    0.38
   4   9  -3   16.24    0.84
   4   9  -3   14.17    1.25
  -4  -9   3   15.13    0.66
   3   9  -3   16.91    1.07
   3   9  -3   14.95    0.73
  -3  -9   3   14.63    0.59
   2   9  -3    0.74    0.53
   2   9  -3    1.40    0.34
  -2  -9   3    1.15    0.20
   1   9  -3   45.47    1.60
   1   9  -3   43.91    1.37
  -1  -9   3   42.23    1.20
   0   9  -3   40.49    1.48
   0   9  -3   39.22    1.26
   0  -9   3   40.90    1.28
   0  -9   3   39.89    1.09
  -1   9  -3    3.21    0.55
  -1   9  -3    3.95    0.40
   1  -9   3    3.40    0.18
   1  -9   3    3.43    0.36
  -2   9  -3    0.23    0.23
  -2   9  -3    0.06    0.22
  -2   9  -3    0.07    0.38
   2  -9   3    0.22    0.08
   2  -9   3    0.11    0.25
  -3   9  -3    0.76    0.25
  -3   9  -3    0.89    0.37
   3  -9   3    0.72    0.11
   3  -9   3    0.79    0.26
  -4   9  -3   54.97    1.63
  -4   9  -3   55.05    1.78
   4  -9   3   55.74    1.60
   4  -9   3   52.12    1.47
   4  -9   3   54.12    1.75
  -5   9  -3   36.97    1.24
  -5   9  -3   37.18    1.36
   5  -9   3   39.70    1.40
   5  -9   3   39.16    1.08
  -6   9  -3    6.82    0.51
   6  -9   3    7.11    0.35
   6  -9   3    7.17    0.69
  -7   9  -3   37.87    1.35
   7  -9   3   38.64    1.44
   7  -9   3   38.90    1.14
  -8   9  -3   17.74    0.90
   8  -9   3   19.98    1.05
   8  -9   3   18.74    0.69
   9  -9   3   -0.09    0.31
   5   8  -3   13.65    0.78
   5   8  -3   13.13    1.07
   5   8  -3   13.07    0.58
  -5  -8   3   12.63    0.63
   4   8  -3    8.55    0.61
   4   8  -3    8.49    0.42
   4   8  -3    7.59    0.84
  -4  -8   3    9.02    0.48
   3   8  -3    2.77    0.39
   3   8  -3    2.96    0.58
  -3  -8   3    2.43    0.25
   2   8  -3    3.03    0.53
   2   8  -3    3.22    0.37
  -2  -8   3    2.97    0.26
   1   8  -3   63.06    2.00
   1   8  -3   64.45    1.85
  -1  -8   3   64.57    1.71
   0   8  -3   10.70    0.71
   0   8  -3   10.73    0.51
   0  -8   3   11.78    0.36
   0  -8   3   10.92    0.54
  -1   8  -3   12.56    0.69
  -1   8  -3   11.46    0.51
   1  -8   3   10.49    0.52
   1  -8   3   12.68    0.36
  -2   8  -3   85.76    2.30
  -2   8  -3   83.64    2.28
  -2   8  -3   80.73    2.45
   2  -8   3   85.00    2.31
   2  -8   3   82.62    2.16
  -3   8  -3   27.29    1.07
  -3   8  -3   28.21    0.91
   3  -8   3   28.97    0.79
   3  -8   3   28.07    0.90
  -4   8  -3    3.33    0.45
  -4   8  -3    2.79    0.36
   4  -8   3    3.35    0.44
   4  -8   3    2.65    0.35
   4  -8   3    3.17    0.24
  -5   8  -3    9.51    0.51
  -5   8  -3    9.47    0.63
   5  -8   3   10.12    0.39
   5  -8   3    9.92    0.64
  -6   8  -3   20.72    0.85
   6  -8   3   21.09    0.93
   6  -8   3   20.37    0.66
  -7   8  -3   12.74    0.72
   7  -8   3   13.63    0.86
   7  -8   3   12.36    0.52
  -8   8  -3    0.04    0.38
   8  -8   3    0.33    0.48
   8  -8   3    0.24    0.23
  -9   8  -3   10.29    0.85
   9  -8   3    9.07    1.02
   9  -8   3    8.98    0.58
   6   7  -3   18.80    0.76
   6   7  -3   18.71    1.22
   6   7  -3   19.43    0.90
  -6  -7   3   18.97    0.79
   5   7  -3    0.61    0.37
   5   7  -3    0.38    0.23
   5   7  -3    0.33    0.52
  -5  -7   3    0.64    0.26
   4   7  -3   34.56    1.31
   4   7  -3   34.15    1.16
   4   7  -3   34.43    1.01
  -4  -7   3   34.13    1.04
   3   7  -3   85.56    2.38
   3   7  -3   82.91    2.23
   3   7  -3   82.27    2.51
  -3  -7   3   87.12    2.27
   2   7  -3   15.71    0.63
   2   7  -3   16.63    0.82
  -2  -7   3   16.24    0.52
   1   7  -3    0.56    0.19
   1   7  -3    0.20    0.33
  -1  -7   3    0.44    0.11
   0   7  -3    1.42    0.31
   0   7  -3    1.63    0.24
   0  -7   3    1.49    0.13
   0  -7   3    1.84    0.26
  -1   7  -3   32.82    0.94
  -1   7  -3   32.41    1.15
  -1   7  -3   31.82    0.98
   1  -7   3   31.59    0.88
   1  -7   3   32.01    0.99
  -2   7  -3  100.27    2.72
  -2   7  -3   98.52    2.87
  -2   7  -3  106.36    2.74
   2  -7   3   99.14    2.62
   2  -7   3  104.78    2.64
   2  -7   3  100.59    2.74
  -3   7  -3    1.59    0.23
  -3   7  -3    1.15    0.30
   3  -7   3    1.36    0.14
   3  -7   3    1.41    0.22
   3  -7   3    1.57    0.33
  -4   7  -3   79.34    2.22
  -4   7  -3   78.40    2.31
   4  -7   3   80.80    2.19
   4  -7   3   79.58    2.11
   4  -7   3   79.02    2.32
  -5   7  -3   88.24    2.46
   5  -7   3   86.78    2.33
   5  -7   3   87.50    2.55
  -6   7  -3   11.49    0.62
   6  -7   3   11.81    0.46
   6  -7   3   10.94    0.67
  -7   7  -3    0.02    0.30
   7  -7   3    0.11    0.20
   7  -7   3   -0.01    0.42
  -8   7  -3    8.44    0.35
  -8   7  -3    9.06    0.69
   8  -7   3    8.33    0.74
   8  -7   3    7.04    0.47
  -9   7  -3   25.08    0.80
  -9   7  -3   26.99    1.18
   9  -7   3   24.25    1.30
   9  -7   3   25.52    0.95
   7   6  -3    6.18    0.88
   7   6  -3    6.48    0.56
   6   6  -3    0.23    0.36
   6   6  -3    0.68    0.58
   6   6  -3    0.21    0.25
  -6  -6   3    0.26    0.28
   5   6  -3    0.56    0.21
   5   6  -3    0.96    0.50
   5   6  -3    0.81    0.32
  -5  -6   3    0.49    0.23
   4   6  -3   17.83    0.58
   4   6  -3   16.24    0.84
   4   6  -3   17.42    0.69
  -4  -6   3   15.54    0.59
   3   6  -3    5.64    0.40
   3   6  -3    5.10    0.28
   3   6  -3    6.08    0.55
  -3  -6   3    5.18    0.29
   2   6  -3    0.50    0.13
   2   6  -3    0.48    0.21
   2   6  -3    0.40    0.26
  -2  -6   3    0.41    0.12
   1   6  -3  154.51    4.20
   1   6  -3  161.35    4.10
  -1  -6   3  154.39    4.10
  -1  -6   3  149.68    3.99
   0   6  -3  145.70    3.66
   0   6  -3  138.56    3.58
   0   6  -3  135.11    3.76
   0  -6   3  135.39    3.65
   0  -6   3  137.35    3.55
   0  -6   3  135.71    3.57
  -1   6  -3   20.71    0.63
  -1   6  -3   20.25    0.80
  -1   6  -3   18.39    0.65
   1  -6   3   19.69    0.55
   1  -6   3   21.00    0.59
   1  -6   3   20.82    0.66
  -2   6  -3    1.39    0.28
  -2   6  -3    1.17    0.17
   2  -6   3    0.97    0.09
   2  -6   3    1.44    0.19
   2  -6   3    1.05    0.12
  -3   6  -3    9.32    0.41
  -3   6  -3    8.26    0.48
   3  -6   3    8.07    0.48
   3  -6   3    8.43    0.38
   3  -6   3    8.84    0.33
  -4   6  -3   34.93    1.14
  -4   6  -3   31.87    1.04
   4  -6   3   33.70    1.13
   4  -6   3   32.82    1.02
   4  -6   3   34.25    0.95
  -5   6  -3   14.46    0.40
  -5   6  -3   13.27    0.38
  -5   6  -3   12.60    0.59
   5  -6   3   14.61    0.70
   5  -6   3   12.85    0.47
  -6   6  -3   52.70    1.64
  -6   6  -3   54.22    1.45
   6  -6   3   55.89    1.72
   6  -6   3   55.30    1.52
  -7   6  -3   78.18    2.29
  -7   6  -3   76.49    2.08
   7  -6   3   80.54    2.39
   7  -6   3   77.33    2.15
  -8   6  -3   19.52    0.67
  -8   6  -3   20.50    0.93
   8  -6   3   20.80    0.75
   8  -6   3   18.31    0.98
  -9   6  -3    0.55    0.49
  -9   6  -3    0.54    0.27
   9  -6   3    0.24    0.51
   9  -6   3    0.22    0.32
   7   5  -3    7.96    0.94
   7   5  -3    8.23    0.57
   6   5  -3   45.68    1.35
   6   5  -3   45.15    1.63
   6   5  -3   46.39    1.43
  -6  -5   3   44.75    1.36
   5   5  -3   57.11    1.64
   5   5  -3   55.35    1.56
   5   5  -3   55.08    1.78
  -5  -5   3   55.98    1.58
   4   5  -3   14.26    0.58
   4   5  -3   13.79    0.49
   4   5  -3   13.91    0.71
  -4  -5   3   14.16    0.51
   3   5  -3    3.13    0.38
   3   5  -3    2.94    0.22
   3   5  -3    2.76    0.29
  -3  -5   3    2.45    0.21
   2   5  -3    2.89    0.24
   2   5  -3    2.76    0.32
   2   5  -3    3.00    0.18
   2   5  -3    2.31    0.25
  -2  -5   3    2.73    0.17
   1   5  -3   25.81    0.78
   1   5  -3   25.30    0.69
   1   5  -3   25.14    0.68
   1   5  -3   25.14    0.70
   1   5  -3   25.27    0.86
  -1  -5   3   25.39    0.79
  -1  -5   3   24.86    0.71
  -1  -5   3   26.01    0.70
   0   5  -3    4.25    0.25
   0   5  -3    4.26    0.20
   0   5  -3    3.50    0.32
   0  -5   3    4.12    0.19
   0  -5   3    3.69    0.24
  -1   5  -3   73.58    1.94
  -1   5  -3   72.00    1.96
   1  -5   3   71.55    1.88
   1  -5   3   75.01    1.91
   1  -5   3   70.67    1.96
  -2   5  -3  245.46    6.57
  -2   5  -3  255.80    6.47
   2  -5   3  261.22    6.40
   2  -5   3  246.16    6.46
   2  -5   3  239.39    6.41
  -3   5  -3  137.00    3.74
  -3   5  -3  145.62    3.83
   3  -5   3  137.57    3.73
   3  -5   3  146.78    3.73
   3  -5   3  140.66    3.68
   3  -5   3  140.58    3.82
  -4   5  -3    2.61    0.26
  -4   5  -3    2.65    0.14
  -4   5  -3    2.54    0.20
   4  -5   3    3.46    0.22
   4  -5   3    2.31    0.29
   4  -5   3    2.82    0.34
  -5   5  -3    2.59    0.35
  -5   5  -3    3.00    0.19
   5  -5   3    3.39    0.39
   5  -5   3    3.10    0.25
  -6   5  -3    7.70    0.48
  -6   5  -3    7.23    0.32
   6  -5   3    8.10    0.60
   6  -5   3    6.56    0.36
  -7   5  -3    5.45    0.47
  -7   5  -3    4.77    0.32
   7  -5   3    5.65    0.58
   7  -5   3    4.64    0.38
  -8   5  -3    2.59    0.43
  -8   5  -3    2.33    0.28
   8  -5   3    2.22    0.55
   8  -5   3    2.35    0.31
  -9   5  -3   21.31    1.03
  -9   5  -3   20.31    0.78
   9  -5   3   19.71    1.18
   8   4  -3   -0.15    0.65
   8   4  -3    0.31    0.36
   7   4  -3    3.90    0.45
   7   4  -3    4.48    0.66
   6   4  -3   10.11    0.50
   6   4  -3   10.37    0.54
   6   4  -3   10.58    0.75
  -6  -4   3   10.55    0.49
   5   4  -3   14.33    0.69
   5   4  -3   14.01    0.52
   5   4  -3   13.85    0.57
  -5  -4   3   13.66    0.52
   4   4  -3  145.86    3.83
   4   4  -3  150.54    4.00
   4   4  -3  144.76    3.88
  -4  -4   3  146.72    3.84
   3   4  -3  152.24    3.90
   3   4  -3  149.87    4.03
   3   4  -3  148.05    3.95
  -3  -4   3  150.71    3.90
   2   4  -3   11.34    0.43
   2   4  -3   12.91    0.38
   2   4  -3   11.80    0.51
   2   4  -3   12.47    0.39
  -2  -4   3   12.53    0.38
  -2  -4   3   12.98    0.46
   1   4  -3    8.55    0.27
   1   4  -3    8.18    0.39
   1   4  -3    8.12    0.33
   1   4  -3    9.04    0.29
   1   4  -3    8.71    0.26
  -1  -4   3    8.47    0.27
  -1  -4   3    8.74    0.34
   0   4  -3    3.05    0.12
   0   4  -3    3.21    0.17
   0   4  -3    2.95    0.19
   0   4  -3    3.34    0.11
   0   4  -3    2.50    0.25
   0  -4   3    2.95    0.13
   0  -4   3    2.84    0.18
   0  -4   3    2.47    0.18
  -1   4  -3   43.29    1.09
  -1   4  -3   42.72    1.27
  -1   4  -3   42.31    1.17
  -1   4  -3   43.51    1.09
   1  -4   3   43.34    1.14
   1  -4   3   42.16    1.12
   1  -4   3   39.09    1.17
  -2   4  -3    1.23    0.16
  -2   4  -3    1.05    0.20
  -2   4  -3    1.31    0.10
  -2   4  -3    1.18    0.08
   2  -4   3    1.33    0.13
   2  -4   3    1.48    0.17
   2  -4   3    1.32    0.13
  -3   4  -3   38.38    1.20
  -3   4  -3   38.21    1.14
  -3   4  -3   42.33    1.09
  -3   4  -3   39.33    1.04
   3  -4   3   38.07    1.19
   3  -4   3   38.38    1.09
   3  -4   3   39.85    1.15
  -4   4  -3  180.68    4.87
  -4   4  -3  186.68    4.77
   4  -4   3  192.34    4.89
   4  -4   3  184.38    4.80
   4  -4   3  180.72    4.92
  -5   4  -3   30.15    0.85
  -5   4  -3   29.56    0.98
   5  -4   3   28.44    1.21
   5  -4   3   29.27    1.02
   5  -4   3   29.83    0.88
  -6   4  -3    0.85    0.30
  -6   4  -3    0.58    0.17
   6  -4   3    0.66    0.20
   6  -4   3    0.49    0.35
  -7   4  -3    7.30    0.56
  -7   4  -3    6.81    0.39
   7  -4   3    6.43    0.42
   7  -4   3    6.27    0.59
  -8   4  -3    2.44    0.30
  -8   4  -3    2.53    0.46
   8  -4   3    2.29    0.56
   8  -4   3    1.49    0.31
  -9   4  -3    6.23    0.72
  -9   4  -3    6.47    0.55
   9  -4   3    5.24    0.72
   8   3  -3   25.36    0.90
   8   3  -3   22.49    1.15
   7   3  -3    9.92    0.51
   7   3  -3    9.27    0.71
   6   3  -3   12.94    0.70
   6   3  -3   12.82    0.52
   5   3  -3    8.81    0.40
   5   3  -3    8.22    0.51
   5   3  -3    8.76    0.37
  -5  -3   3    7.80    0.37
   4   3  -3    8.51    0.37
   4   3  -3    8.29    0.45
   4   3  -3    8.63    0.34
  -4  -3   3    9.65    0.35
   3   3  -3    1.76    0.23
   3   3  -3    1.27    0.15
   3   3  -3    1.63    0.18
  -3  -3   3    1.59    0.18
  -3  -3   3    1.68    0.15
   2   3  -3   39.28    1.10
   2   3  -3   41.57    1.14
   2   3  -3   40.17    1.06
   2   3  -3   41.05    1.19
  -2  -3   3   41.26    1.09
  -2  -3   3   41.05    1.14
   1   3  -3  217.17    5.59
   1   3  -3  219.03    5.62
   1   3  -3  218.09    5.58
   1   3  -3  221.01    5.67
   1   3  -3  218.09    5.58
  -1  -3   3  212.33    5.62
  -1  -3   3  216.86    5.57
   0   3  -3  297.23    7.65
   0   3  -3  294.37    7.55
   0   3  -3  289.41    7.53
   0   3  -3  307.99    7.58
   0  -3   3  296.10    7.59
   0  -3   3  285.29    7.54
  -1   3  -3    1.64    0.14
  -1   3  -3    1.85    0.12
  -1   3  -3    1.69    0.23
   1  -3   3    1.60    0.13
   1  -3   3    1.24    0.15
  -2   3  -3   12.24    0.49
  -2   3  -3   12.67    0.43
  -2   3  -3   13.42    0.47
  -2   3  -3   12.99    0.39
   2  -3   3   13.75    0.51
   2  -3   3   13.88    0.43
   2  -3   3   13.62    0.47
  -3   3  -3   40.27    1.21
  -3   3  -3   40.83    1.13
   3  -3   3   44.43    1.17
   3  -3   3   41.79    1.23
   3  -3   3   41.16    1.24
   3  -3   3   43.28    1.16
  -4   3  -3   32.57    0.94
  -4   3  -3   32.93    1.03
   4  -3   3   34.01    1.07
   4  -3   3   34.98    0.97
   4  -3   3   33.92    1.04
  -5   3  -3   12.32    0.45
  -5   3  -3   12.45    0.54
   5  -3   3   12.29    0.53
   5  -3   3   12.87    0.59
   5  -3   3   12.66    0.47
  -6   3  -3   40.96    1.16
  -6   3  -3   37.70    1.25
   6  -3   3   39.15    1.34
   6  -3   3   41.23    1.19
  -7   3  -3   68.36    1.93
  -7   3  -3   69.92    2.06
   7  -3   3   69.74    1.95
   7  -3   3   69.20    2.15
  -8   3  -3   11.21    0.71
  -8   3  -3   10.31    0.57
   8  -3   3   11.10    0.86
  -9   3  -3    1.68    0.38
   9  -3   3    0.93    0.61
   9   2  -3    1.88    0.72
   8   2  -3    0.39    0.46
   8   2  -3    0.62    0.32
   7   2  -3   20.71    0.93
   7   2  -3   20.24    0.74
   6   2  -3  128.49    3.61
   6   2  -3  132.67    3.46
   5   2  -3   46.26    1.42
   5   2  -3   44.18    1.28
   5   2  -3   45.62    1.28
  -5  -2   3   46.37    1.28
  -5  -2   3   46.35    1.29
   4   2  -3    2.67    0.22
   4   2  -3    3.22    0.19
   4   2  -3    2.77    0.29
   4   2  -3    2.71    0.19
  -4  -2   3    2.99    0.23
  -4  -2   3    3.31    0.21
  -4  -2   3    2.75    0.21
   3   2  -3   56.35    1.48
   3   2  -3   55.29    1.51
   3   2  -3   55.62    1.50
   3   2  -3   55.22    1.49
   3   2  -3   55.78    1.57
  -3  -2   3   55.76    1.49
  -3  -2   3   55.81    1.51
  -3  -2   3   56.59    1.49
   2   2  -3    1.73    0.16
   2   2  -3    1.53    0.12
   2   2  -3    1.63    0.14
   2   2  -3    1.58    0.17
   2   2  -3    1.59    0.14
  -2  -2   3    1.67    0.12
  -2  -2   3    1.69    0.13
  -2  -2   3    1.51    0.14
   1   2  -3   50.81    1.41
   1   2  -3   52.98    1.39
   1   2  -3   48.72    1.36
  -1  -2   3   49.36    1.38
  -1  -2   3   54.62    1.38
  -1  -2   3   51.35    1.35
   0   2  -3   41.34    1.12
   0   2  -3   41.89    1.14
   0   2  -3   42.84    1.17
   0  -2   3   39.85    1.14
   0  -2   3   41.29    1.10
  -1   2  -3  109.52    2.86
  -1   2  -3  106.14    2.83
  -1   2  -3  109.10    2.79
   1  -2   3  106.32    2.80
   1  -2   3  106.04    2.84
  -2   2  -3  177.31    4.73
  -2   2  -3  173.98    4.80
  -2   2  -3  185.36    4.80
   2  -2   3  191.89    4.76
   2  -2   3  185.25    4.82
   2  -2   3  190.46    4.76
   2  -2   3  181.78    4.81
  -3   2  -3   30.06    0.93
  -3   2  -3   31.17    0.86
  -3   2  -3   29.87    0.86
   3  -2   3   31.50    0.88
   3  -2   3   31.15    0.94
   3  -2   3   28.86    0.94
   3  -2   3   30.95    0.87
  -4   2  -3    9.16    0.36
  -4   2  -3    9.24    0.44
   4  -2   3   10.48    0.39
   4  -2   3   10.24    0.49
   4  -2   3   10.03    0.45
   4  -2   3   10.01    0.40
  -5   2  -3    1.95    0.21
  -5   2  -3    2.07    0.30
   5  -2   3    2.30    0.35
   5  -2   3    1.69    0.21
   5  -2   3    1.95    0.26
  -6   2  -3    2.02    0.24
  -6   2  -3    2.42    0.33
   6  -2   3    2.14    0.25
   6  -2   3    1.79    0.36
  -7   2  -3    0.60    0.33
  -7   2  -3   -0.03    0.23
   7  -2   3    0.19    0.37
  -8   2  -3    2.79    0.37
   8  -2   3    2.91    0.62
  -9   2  -3   23.96    0.98
   9  -2   3   22.64    1.33
   9   1  -3    5.37    0.75
   8   1  -3    6.03    0.71
   7   1  -3    3.93    0.49
   7   1  -3    4.34    0.39
  -7  -1   3    4.17    0.39
   6   1  -3    2.14    0.22
   6   1  -3    1.96    0.32
  -6  -1   3    1.93    0.22
   5   1  -3   10.22    0.38
   5   1  -3    9.39    0.38
   5   1  -3    9.97    0.37
   5   1  -3    9.56    0.50
   5   1  -3    9.92    0.39
  -5  -1   3   10.14    0.38
  -5  -1   3    9.49    0.38
  -5  -1   3   10.66    0.39
  -5  -1   3    9.31    0.37
   4   1  -3  151.80    3.95
   4   1  -3  152.50    3.95
   4   1  -3  151.62    3.95
   4   1  -3  143.59    4.02
   4   1  -3  154.77    3.95
  -4  -1   3  152.37    3.95
  -4  -1   3  156.01    3.95
  -4  -1   3  153.71    3.96
   3   1  -3   45.92    1.22
   3   1  -3   45.30    1.22
   3   1  -3   46.98    1.23
   3   1  -3   44.29    1.22
   3   1  -3   44.92    1.28
  -3  -1   3   46.18    1.23
  -3  -1   3   44.82    1.23
  -3  -1   3   44.73    1.22
   2   1  -3    0.40    0.10
   2   1  -3    0.49    0.10
   2   1  -3    0.45    0.07
   2   1  -3    0.36    0.08
  -2  -1   3    0.50    0.07
  -2  -1   3    0.43    0.10
  -2  -1   3    0.40    0.08
   1   1  -3   27.28    0.75
   1   1  -3   26.54    0.77
   1   1  -3   28.05    0.80
   1   1  -3   25.60    0.75
  -1  -1   3   27.63    0.74
  -1  -1   3   27.80    0.77
  -1  -1   3   27.25    0.74
   0   1  -3   51.40    1.39
   0   1  -3   53.89    1.38
   0   1  -3   51.08    1.41
   0   1  -3   52.13    1.37
   0  -1   3   48.22    1.36
   0  -1   3   50.14    1.40
  -1   1  -3    6.57    0.24
  -1   1  -3    5.60    0.26
  -1   1  -3    6.12    0.23
  -1   1  -3    5.75    0.27
   1  -1   3    6.09    0.24
   1  -1   3    6.07    0.31
   1  -1   3    6.32    0.27
  -2   1  -3    0.04    0.08
  -2   1  -3    0.02    0.08
  -2   1  -3    0.12    0.11
   2  -1   3    0.02    0.13
   2  -1   3    0.24    0.09
   2  -1   3    0.24    0.11
   2  -1   3    0.02    0.15
  -3   1  -3  108.89    2.96
  -3   1  -3  110.28    2.90
  -3   1  -3  111.90    2.89
   3  -1   3  107.68    2.90
   3  -1   3  112.08    2.96
   3  -1   3  112.19    2.96
   3  -1   3  109.86    2.90
  -4   1  -3  101.63    2.69
  -4   1  -3  101.61    2.76
   4  -1   3  101.06    2.78
   4  -1   3  103.85    2.70
   4  -1   3  100.54    2.69
   4  -1   3  100.65    2.74
  -5   1  -3   50.94    1.44
  -5   1  -3   51.47    1.52
   5  -1   3   48.94    1.56
   5  -1   3   51.90    1.48
   5  -1   3   51.81    1.45
  -6   1  -3    0.57    0.22
  -6   1  -3    0.75    0.30
   6  -1   3    1.33    0.41
  -7   1  -3   16.05    0.69
   7  -1   3   15.47    0.84
  -8   1  -3    1.15    0.36
   8  -1   3    0.90    0.61
 -10   0   3    3.48    0.50
   9   0  -3   30.34    1.31
  -9   0   3   30.46    1.06
   8   0  -3   30.90    1.21
  -8   0   3   31.57    1.03
   7   0  -3    4.04    0.52
  -7   0   3    3.93    0.37
   6   0  -3   19.84    0.66
   6   0  -3   20.58    0.68
   6   0  -3   20.21    0.66
  -6   0   3   20.67    0.67
  -6   0   3   20.64    0.68
   5   0  -3   16.27    0.52
   5   0  -3   16.42    0.54
   5   0  -3   14.89    0.62
   5   0  -3   16.62    0.53
   5   0  -3   16.11    0.50
  -5   0   3   16.42    0.54
  -5   0   3   16.74    0.50
  -5   0   3   16.61    0.52
  -5   0   3   14.82    0.52
   4   0  -3   35.65    0.98
   4   0  -3   35.42    1.00
   4   0  -3   35.35    0.97
   4   0  -3   36.38    1.05
  -4   0   3   35.88    0.97
  -4   0   3   34.22    0.99
  -4   0   3   32.81    0.98
  -4   0   3   36.45    0.98
   3   0  -3    8.37    0.28
   3   0  -3    7.92    0.32
   3   0  -3    8.06    0.27
   3   0  -3    7.93    0.30
  -3   0   3    7.62    0.28
  -3   0   3    8.08    0.27
  -3   0   3    7.18    0.28
   2   0  -3  142.86    3.64
   2   0  -3  140.52    3.61
   2   0  -3  134.96    3.61
   2   0  -3  137.94    3.65
  -2   0   3  140.00    3.62
  -2   0   3  141.35    3.64
  -2   0   3  143.15    3.61
   1   0  -3 1000.00   24.78
   1   0  -3  980.64   24.89
   1   0  -3  948.82   24.63
   1   0  -3  948.18   24.62
  -1   0   3  931.35   24.74
  -1   0   3  985.05   24.80
  -1   0   3  960.83   24.71
   0   0  -3  307.01    7.60
   0   0  -3  306.53    7.58
   0   0  -3  293.69    7.65
   0   0  -3  306.04    7.60
   0   0   3  288.10    7.59
   0   0   3  275.80    7.63
   0   0   3  291.84    7.59
  -1   0  -3  125.71    3.21
  -1   0  -3  127.29    3.21
   1   0   3  124.96    3.21
   1   0   3  119.67    3.21
   1   0   3  123.57    3.21
   1   0   3  118.02    3.27
  -2   0  -3  152.33    3.89
  -2   0  -3  149.76    3.83
  -2   0  -3  143.64    3.82
   2   0   3  143.76    3.82
   2   0   3  150.11    3.82
   2   0   3  143.49    3.85
   2   0   3  146.22    3.88
  -3   0  -3   20.61    0.72
  -3   0  -3   21.92    0.66
   3   0   3   21.97    0.66
   3   0   3   21.94    0.72
   3   0   3   22.10    0.67
   3   0   3   22.41    0.73
  -4   0  -3    0.15    0.13
  -4   0  -3    0.09    0.17
  -4   0  -3    0.24    0.18
   4   0   3    0.12    0.14
   4   0   3    0.11    0.14
   4   0   3    0.40    0.23
   4   0   3    0.21    0.18
  -5   0  -3    2.16    0.32
  -5   0  -3    2.08    0.25
   5   0   3    1.86    0.28
   5   0   3    2.28    0.26
   5   0   3    1.82    0.35
  -6   0  -3   55.45    1.65
  -6   0  -3   57.90    1.71
   6   0   3   57.74    1.81
   7   0   3   30.33    1.26
   8   0   3    0.88    0.67
  10  -1  -3    7.45    0.93
 -10   1   3    8.23    0.64
   9  -1  -3    1.60    0.49
  -9   1   3    1.98    0.34
   8  -1  -3    1.02    0.38
  -8   1   3    0.89    0.25
   7  -1  -3   31.97    1.09
   7  -1  -3   32.36    0.96
   7  -1  -3   30.89    0.99
  -7   1   3   33.16    0.97
  -7   1   3   29.25    0.99
   6  -1  -3  112.39    3.05
   6  -1  -3  110.63    2.94
   6  -1  -3  111.63    2.98
  -6   1   3  108.29    2.95
  -6   1   3  113.81    2.99
   5  -1  -3    7.20    0.31
   5  -1  -3    7.29    0.31
   5  -1  -3    7.04    0.37
   5  -1  -3    7.80    0.34
  -5   1   3    7.17    0.31
  -5   1   3    7.52    0.34
   4  -1  -3   43.97    1.20
   4  -1  -3   43.08    1.17
   4  -1  -3   44.09    1.16
   4  -1  -3   41.84    1.22
  -4   1   3   41.90    1.17
  -4   1   3   43.63    1.15
  -4   1   3   41.85    1.16
  -4   1   3   42.12    1.20
   3  -1  -3   87.00    2.29
   3  -1  -3   89.21    2.32
   3  -1  -3   85.77    2.33
  -3   1   3   87.28    2.29
  -3   1   3   91.74    2.31
  -3   1   3   85.66    2.33
  -3   1   3   87.83    2.30
   2  -1  -3   58.51    1.54
   2  -1  -3   60.90    1.54
   2  -1  -3   60.14    1.54
   2  -1  -3   57.86    1.58
  -2   1   3   55.53    1.55
  -2   1   3   56.98    1.58
   1  -1  -3    0.20    0.08
   1  -1  -3    0.07    0.10
   1  -1  -3    0.14    0.07
   1  -1  -3    0.22    0.05
  -1   1   3    0.05    0.11
  -1   1   3    0.20    0.08
   0  -1  -3   57.97    1.61
   0  -1  -3   58.32    1.54
   0  -1  -3   56.64    1.54
   0   1   3   56.92    1.52
   0   1   3   58.38    1.48
   0   1   3   55.83    1.52
   0   1   3   54.79    1.57
  -1  -1  -3  127.00    3.33
  -1  -1  -3  126.88    3.41
  -1  -1  -3  130.06    3.34
   1   1   3  133.14    3.32
   1   1   3  123.65    3.31
   1   1   3  122.58    3.37
   1   1   3  129.70    3.31
  -2  -1  -3   34.27    1.06
  -2  -1  -3   35.01    0.99
  -2  -1  -3   34.38    0.99
   2   1   3   36.15    0.98
   2   1   3   35.43    1.00
   2   1   3   33.98    1.03
   2   1   3   34.20    0.98
  -3  -1  -3    4.85    0.26
  -3  -1  -3    4.11    0.32
   3   1   3    4.54    0.34
   3   1   3    4.30    0.32
   3   1   3    4.19    0.25
   3   1   3    4.64    0.27
  -4  -1  -3   44.51    1.33
  -4  -1  -3   42.34    1.27
  -4  -1  -3   44.47    1.27
   4   1   3   45.18    1.27
   4   1   3   43.92    1.32
   4   1   3   45.60    1.36
  -5  -1  -3   24.91    0.88
   5   1   3   24.94    0.97
   5   1   3   25.80    0.90
   6   1   3    0.80    0.27
   6   1   3    0.84    0.46
  10  -2  -3    0.68    0.53
 -10   2   3    0.02    0.34
   9  -2  -3    9.87    0.71
  -9   2   3   10.48    0.56
   8  -2  -3   14.34    0.58
   8  -2  -3   14.47    0.76
   8  -2  -3   12.99    0.64
  -8   2   3   14.11    0.58
  -8   2   3   13.33    0.66
   7  -2  -3    9.02    0.47
   7  -2  -3    8.83    0.53
   7  -2  -3    9.67    0.42
  -7   2   3   10.09    0.50
  -7   2   3    9.07    0.43
   6  -2  -3    3.65    0.25
   6  -2  -3    3.22    0.37
   6  -2  -3    3.80    0.30
  -6   2   3    4.18    0.27
  -6   2   3    3.88    0.31
   5  -2  -3   31.65    0.93
   5  -2  -3   29.41    0.94
   5  -2  -3   32.14    0.90
   5  -2  -3   30.72    0.87
  -5   2   3   28.77    0.92
  -5   2   3   30.08    0.87
   4  -2  -3  133.06    3.49
   4  -2  -3  136.75    3.55
   4  -2  -3  135.00    3.54
   4  -2  -3  136.83    3.49
  -4   2   3  135.17    3.47
  -4   2   3  134.54    3.50
  -4   2   3  131.93    3.55
   3  -2  -3   71.07    1.92
   3  -2  -3   70.74    1.88
   3  -2  -3   71.15    1.85
  -3   2   3   68.03    1.86
  -3   2   3   72.57    1.87
   2  -2  -3    3.25    0.20
   2  -2  -3    3.72    0.15
   2  -2  -3    3.07    0.15
  -2   2   3    3.75    0.19
  -2   2   3    3.50    0.18
   1  -2  -3  179.90    4.67
   1  -2  -3  182.35    4.73
  -1   2   3  178.69    4.66
  -1   2   3  182.26    4.70
   0  -2  -3   63.43    1.68
   0  -2  -3   60.83    1.74
   0  -2  -3   64.44    1.68
   0   2   3   59.58    1.64
   0   2   3   62.39    1.70
  -1  -2  -3    6.83    0.38
  -1  -2  -3    6.23    0.29
  -1  -2  -3    6.65    0.30
   1   2   3    6.73    0.26
   1   2   3    7.07    0.27
   1   2   3    6.80    0.33
   1   2   3    5.68    0.30
  -2  -2  -3    7.75    0.34
  -2  -2  -3    7.78    0.33
  -2  -2  -3    7.30    0.41
   2   2   3    7.67    0.34
   2   2   3    7.93    0.31
   2   2   3    7.94    0.39
  -3  -2  -3   55.72    1.52
  -3  -2  -3   56.72    1.59
   3   2   3   52.71    1.50
   3   2   3   53.27    1.57
   3   2   3   55.12    1.57
  -4  -2  -3   65.88    1.79
  -4  -2  -3   64.04    1.84
   4   2   3   64.91    1.85
   4   2   3   62.28    1.87
   5   2   3    0.63    0.23
   5   2   3    0.50    0.41
   5   2   3    0.87    0.30
   6   2   3   12.79    0.61
   7   2   3   17.01    0.80
  10  -3  -3   27.05    1.23
 -10   3   3   25.78    0.97
   9  -3  -3   27.72    1.11
   9  -3  -3   28.71    1.06
   9  -3  -3   27.06    0.94
  -9   3   3   27.58    0.94
   8  -3  -3    3.28    0.42
   8  -3  -3    3.92    0.36
   8  -3  -3    4.02    0.47
  -8   3   3    4.40    0.36
  -8   3   3    4.31    0.47
   7  -3  -3   31.24    0.95
   7  -3  -3   31.69    1.03
   7  -3  -3   33.02    1.07
  -7   3   3   32.39    1.04
  -7   3   3   31.42    0.95
   6  -3  -3  144.12    3.79
   6  -3  -3  146.94    3.87
   6  -3  -3  138.05    3.87
  -6   3   3  146.15    3.79
  -6   3   3  150.08    3.88
   5  -3  -3   49.95    1.45
   5  -3  -3   52.14    1.46
   5  -3  -3   50.93    1.38
  -5   3   3   50.25    1.38
  -5   3   3   50.96    1.46
   4  -3  -3    2.73    0.21
   4  -3  -3    2.89    0.25
   4  -3  -3    2.89    0.17
  -4   3   3    3.05    0.25
  -4   3   3    3.11    0.16
  -4   3   3    3.26    0.19
  -4   3   3    3.20    0.15
   3  -3  -3    2.92    0.15
   3  -3  -3    2.73    0.17
   3  -3  -3    3.14    0.22
  -3   3   3    2.97    0.13
  -3   3   3    2.62    0.21
  -3   3   3    2.87    0.17
  -3   3   3    3.02    0.17
   2  -3  -3   26.03    0.75
   2  -3  -3   27.01    0.82
   2  -3  -3   27.59    0.73
  -2   3   3   27.53    0.72
  -2   3   3   27.14    0.74
  -2   3   3   26.65    0.78
   1  -3  -3  119.57    3.20
   1  -3  -3  120.42    3.27
  -1   3   3  126.96    3.24
  -1   3   3  121.71    3.17
  -1   3   3  125.12    3.17
   0  -3  -3    0.82    0.14
   0  -3  -3    0.89    0.20
   0   3   3    0.98    0.12
   0   3   3    0.79    0.15
   0   3   3    0.63    0.15
   0   3   3    0.70    0.09
  -1  -3  -3  113.26    3.47
  -1  -3  -3  134.25    3.49
  -1  -3  -3  130.44    3.39
   1   3   3  135.84    3.37
   1   3   3  130.80    3.44
   1   3   3  128.49    3.35
  -2  -3  -3   77.21    2.18
  -2  -3  -3   80.85    2.10
   2   3   3   72.70    2.06
   2   3   3   80.42    2.11
   2   3   3   76.24    2.15
  -3  -3  -3    2.20    0.29
  -3  -3  -3    2.29    0.23
   3   3   3    2.19    0.26
   3   3   3    2.76    0.38
   3   3   3    2.94    0.34
  -4  -3  -3    2.25    0.27
   4   3   3    2.11    0.32
   4   3   3    2.08    0.25
   5   3   3    4.77    0.42
   5   3   3    4.70    0.49
   6   3   3   32.44    1.21
   6   3   3   34.57    1.12
   7   3   3    6.33    0.61
  10  -4  -3   15.76    0.97
 -10   4   3   15.46    0.69
   9  -4  -3    3.16    0.32
   9  -4  -3    2.60    0.46
   9  -4  -3    3.65    0.46
  -9   4   3    3.42    0.48
  -9   4   3    3.24    0.38
   8  -4  -3    1.13    0.34
   8  -4  -3    0.34    0.20
   8  -4  -3    0.78    0.31
  -8   4   3    0.50    0.20
  -8   4   3    0.63    0.32
   7  -4  -3    7.78    0.37
   7  -4  -3    8.10    0.48
   7  -4  -3    7.20    0.51
  -7   4   3    8.63    0.38
  -7   4   3    7.76    0.46
   6  -4  -3   30.36    0.99
   6  -4  -3   29.73    0.98
   6  -4  -3   31.83    0.88
  -6   4   3   29.90    0.87
  -6   4   3   29.84    0.98
   5  -4  -3    3.67    0.32
   5  -4  -3    3.93    0.21
   5  -4  -3    3.79    0.29
  -5   4   3    3.83    0.22
  -5   4   3    3.29    0.31
  -5   4   3    3.50    0.25
   4  -4  -3   28.29    0.78
   4  -4  -3   27.29    0.88
   4  -4  -3   28.68    0.83
  -4   4   3   27.59    0.78
  -4   4   3   28.47    0.77
  -4   4   3   28.68    0.75
  -4   4   3   27.07    0.88
   3  -4  -3  156.38    3.92
   3  -4  -3  147.02    3.99
   3  -4  -3  155.85    3.93
   3  -4  -3  146.77    3.90
  -3   4   3  149.49    3.93
  -3   4   3  152.28    3.87
   2  -4  -3   17.77    0.63
   2  -4  -3   19.21    0.57
   2  -4  -3   18.65    0.55
   2  -4  -3   18.45    0.53
  -2   4   3   19.04    0.50
  -2   4   3   18.75    0.50
  -2   4   3   19.15    0.60
   1  -4  -3   14.16    0.50
   1  -4  -3   15.81    0.49
   1  -4  -3   15.40    0.58
  -1   4   3   16.87    0.55
  -1   4   3   16.27    0.45
  -1   4   3   15.64    0.44
   0  -4  -3   12.78    0.54
   0  -4  -3   12.19    0.44
   0   4   3   11.63    0.46
   0   4   3   12.21    0.48
   0   4   3   12.97    0.43
   0   4   3   12.31    0.38
  -1  -4  -3  127.11    3.36
  -1  -4  -3  124.73    3.25
   1   4   3  117.71    3.30
  -2  -4  -3   28.38    1.00
  -2  -4  -3   29.44    0.91
   2   4   3   29.80    0.98
   2   4   3   31.30    0.87
  -3  -4  -3    2.82    0.30
   3   4   3    2.43    0.32
   3   4   3    2.46    0.26
  -4  -4  -3   62.39    1.75
   4   4   3   59.77    1.82
   4   4   3   60.35    1.70
   5   4   3   12.81    0.72
   5   4   3   12.66    0.59
   6   4   3    4.77    0.52
   6   4   3    4.08    0.56
  10  -5  -3    0.71    0.53
  10  -5  -3    0.53    0.31
  10  -5  -3    0.53    0.43
 -10   5   3    0.42    0.46
 -10   5   3    0.43    0.29
   9  -5  -3   35.07    1.28
   9  -5  -3   34.09    1.08
   9  -5  -3   34.55    1.20
  -9   5   3   34.34    1.05
  -9   5   3   33.50    1.24
   8  -5  -3   17.08    0.79
   8  -5  -3   17.12    0.63
   8  -5  -3   17.82    0.78
  -8   5   3   17.27    0.60
  -8   5   3   18.13    0.80
   7  -5  -3    4.74    0.30
   7  -5  -3    5.14    0.41
   7  -5  -3    5.36    0.45
  -7   5   3    5.08    0.30
  -7   5   3    4.76    0.42
   6  -5  -3    9.18    0.47
   6  -5  -3    9.78    0.49
   6  -5  -3    9.50    0.36
  -6   5   3    8.73    0.48
  -6   5   3    9.77    0.35
   5  -5  -3   38.58    1.06
   5  -5  -3   38.80    1.18
   5  -5  -3   39.13    1.14
  -5   5   3   37.42    1.19
   4  -5  -3   46.25    1.38
   4  -5  -3   46.16    1.26
   4  -5  -3   48.17    1.32
  -4   5   3   47.38    1.28
   3  -5  -3   10.40    0.40
   3  -5  -3   10.54    0.37
   3  -5  -3   10.69    0.47
   3  -5  -3   10.75    0.35
  -3   5   3   11.36    0.40
   2  -5  -3   79.44    2.14
   2  -5  -3   78.39    2.22
  -2   5   3   84.86    2.19
   1  -5  -3   89.53    2.38
   1  -5  -3   87.70    2.46
  -1   5   3   90.09    2.42
   0  -5  -3   87.60    2.40
   0  -5  -3   90.13    2.50
   0   5   3   86.18    2.32
   0   5   3   87.41    2.45
   0   5   3   97.07    2.42
  -1  -5  -3   -0.02    0.16
  -1  -5  -3    0.29    0.29
   1   5   3    0.30    0.23
   1   5   3    0.13    0.11
  -2  -5  -3    0.09    0.18
   2   5   3    0.13    0.14
   2   5   3   -0.19    0.24
  -3  -5  -3   11.07    0.51
   3   5   3   12.01    0.47
   3   5   3   11.37    0.63
  -4  -5  -3   24.50    0.86
   4   5   3   22.83    0.95
   4   5   3   23.20    0.78
   5   5   3   -0.03    0.30
   5   5   3    0.18    0.43
  10  -6  -3   11.61    0.63
  10  -6  -3   11.05    0.87
  10  -6  -3   12.14    0.84
 -10   6   3   11.18    0.55
 -10   6   3   14.19    0.87
   9  -6  -3   19.21    0.71
   9  -6  -3   19.27    0.92
   9  -6  -3   18.67    0.90
  -9   6   3   20.36    0.92
  -9   6   3   18.82    0.66
   8  -6  -3    2.33    0.41
   8  -6  -3    1.54    0.38
   8  -6  -3    1.91    0.23
  -8   6   3    3.17    0.45
  -8   6   3    2.59    0.27
   7  -6  -3   11.97    0.45
   7  -6  -3   12.40    0.61
   7  -6  -3   11.67    0.60
  -7   6   3   10.97    0.62
   6  -6  -3   89.10    2.50
   6  -6  -3   88.53    2.44
   6  -6  -3   86.69    2.33
  -6   6   3   88.58    2.49
   5  -6  -3   47.85    1.34
   5  -6  -3   48.50    1.41
   5  -6  -3   43.82    1.25
  -5   6   3   44.64    1.41
   4  -6  -3   -0.05    0.23
   4  -6  -3    0.01    0.15
   4  -6  -3    0.11    0.09
  -4   6   3   -0.05    0.22
  -4   6   3    0.04    0.13
   3  -6  -3    0.82    0.12
   3  -6  -3    0.86    0.23
  -3   6   3    1.18    0.19
   2  -6  -3   16.10    0.64
   2  -6  -3   16.02    0.53
  -2   6   3   17.07    0.59
   1  -6  -3   44.05    1.33
   1  -6  -3   42.16    1.22
  -1   6   3   42.75    1.28
   0  -6  -3    0.47    0.29
   0  -6  -3    0.72    0.17
   0   6   3    1.06    0.25
   0   6   3    0.86    0.08
  -1  -6  -3  113.29    2.99
   1   6   3  108.82    3.07
   1   6   3  112.74    2.90
  -2  -6  -3   38.61    1.17
   2   6   3   38.77    1.28
   2   6   3   38.46    1.08
  -3  -6  -3   -0.09    0.24
   3   6   3   -0.08    0.35
   3   6   3    0.05    0.19
  -4  -6  -3   -0.04    0.29
   4   6   3    0.28    0.24
   4   6   3   -0.18    0.42
   5   6   3    3.52    0.49
   5   6   3    2.86    0.55
  10  -7  -3    8.56    0.82
  10  -7  -3    7.61    0.72
  10  -7  -3    6.82    0.54
 -10   7   3    8.78    0.81
   9  -7  -3    0.28    0.42
   9  -7  -3    0.36    0.39
   9  -7  -3    0.12    0.23
  -9   7   3    0.28    0.42
   8  -7  -3    1.50    0.22
   8  -7  -3    1.45    0.41
   8  -7  -3    2.23    0.42
  -8   7   3    1.11    0.39
   7  -7  -3   28.09    1.00
   7  -7  -3   29.19    0.85
   7  -7  -3   28.30    1.06
  -7   7   3   28.36    1.04
   6  -7  -3   28.60    0.98
   6  -7  -3   29.17    1.06
   6  -7  -3   30.85    0.86
  -6   7   3   30.02    1.06
   5  -7  -3   21.62    0.63
   5  -7  -3   22.17    0.84
  -5   7   3   20.29    0.81
   4  -7  -3  140.43    3.71
   4  -7  -3  146.24    3.88
  -4   7   3  142.98    3.77
   3  -7  -3   91.19    2.42
   3  -7  -3   91.21    2.56
  -3   7   3   92.29    2.49
   2  -7  -3   27.06    0.95
   2  -7  -3   27.15    0.83
  -2   7   3   28.22    0.90
   1  -7  -3    6.15    0.47
   1  -7  -3    6.97    0.35
  -1   7   3    6.49    0.44
   0  -7  -3    3.23    0.31
   0   7   3    3.01    0.41
  -1  -7  -3   10.03    0.48
   1   7   3   10.13    0.59
   1   7   3   10.43    0.32
  -2  -7  -3    0.80    0.23
   2   7   3    0.63    0.37
   2   7   3    0.97    0.17
  -3  -7  -3   14.18    0.68
   3   7   3   14.61    0.81
   3   7   3   14.77    0.55
  -4  -7  -3   34.89    1.17
   4   7   3   31.83    1.04
   4   7   3   33.03    1.30
  10  -8  -3   12.33    0.63
  10  -8  -3   13.04    0.94
  10  -8  -3   13.60    0.93
 -10   8   3   12.29    0.94
   9  -8  -3   26.48    1.12
   9  -8  -3   27.24    1.11
   9  -8  -3   27.68    0.89
  -9   8   3   25.41    1.11
   8  -8  -3   23.03    1.02
   8  -8  -3   23.18    0.76
   8  -8  -3   23.50    0.96
  -8   8   3   25.01    1.05
   7  -8  -3    1.88    0.20
   7  -8  -3    2.27    0.43
  -7   8   3    1.82    0.38
   6  -8  -3    0.94    0.34
   6  -8  -3    1.25    0.17
  -6   8   3    1.40    0.38
   5  -8  -3    0.14    0.13
   5  -8  -3    0.04    0.31
  -5   8   3    0.12    0.27
   4  -8  -3    2.25    0.24
   4  -8  -3    2.31    0.36
  -4   8   3    2.65    0.28
   3  -8  -3    1.95    0.21
   3  -8  -3    2.65    0.38
  -3   8   3    2.52    0.33
   2  -8  -3   26.91    0.85
   2  -8  -3   27.77    1.01
  -2   8   3   28.07    0.94
   1  -8  -3   72.34    2.02
  -1   8   3   75.74    2.14
   0  -8  -3    5.75    0.37
   0   8   3    4.73    0.45
  -1  -8  -3    2.93    0.30
   1   8   3    2.61    0.43
  -2  -8  -3    4.69    0.45
   2   8   3    5.76    0.63
  -3  -8  -3    6.43    0.58
   3   8   3    6.05    0.34
   3   8   3    6.59    0.75
   9  -9  -3    3.59    0.40
   9  -9  -3    4.04    0.62
  -9   9   3    3.60    0.57
   8  -9  -3    0.07    0.44
   8  -9  -3    0.28    0.19
  -8   9   3   -0.32    0.43
   7  -9  -3   28.62    0.87
   7  -9  -3   28.82    1.15
  -7   9   3   29.47    1.17
   6  -9  -3   49.72    1.60
   6  -9  -3   49.16    1.35
  -6   9   3   48.24    1.61
   5  -9  -3    7.01    0.33
   5  -9  -3    5.86    0.52
   4  -9  -3    4.17    0.30
   4  -9  -3    4.17    0.52
   3  -9  -3    0.43    0.36
   3  -9  -3    0.39    0.19
  -3   9   3    0.16    0.27
   2  -9  -3    6.93    0.38
  -2   9   3    6.37    0.51
   1  -9  -3    3.53    0.34
  -1   9   3    4.17    0.50
   0  -9  -3    4.34    0.38
   0   9   3    4.27    0.55
  -1  -9  -3   49.00    1.48
   1   9   3   51.09    1.67
  -2  -9  -3   25.07    0.94
   2   9   3   25.52    1.16
   9 -10  -3    5.00    0.42
   9 -10  -3    5.13    0.71
  -9  10   3    4.44    0.65
   8 -10  -3    0.27    0.46
   8 -10  -3    0.56    0.23
  -8  10   3    0.68    0.53
   7 -10  -3    5.67    0.72
   7 -10  -3    5.78    0.38
  -7  10   3    5.90    0.71
   6 -10  -3    2.20    0.24
   6 -10  -3    2.24    0.49
   5 -10  -3   19.84    0.93
   5 -10  -3   19.98    0.66
   4 -10  -3   55.94    1.77
   4 -10  -3   53.90    1.53
   3 -10  -3   19.27    0.68
  -3  10   3   20.16    0.82
   2 -10  -3    2.37    0.27
  -2  10   3    2.50    0.41
   1 -10  -3   11.04    0.52
  -1  10   3   11.40    0.72
   0 -10  -3    1.29    0.29
   0  10   3    1.57    0.44
  -1 -10  -3    2.56    0.35
   1  10   3    2.13    0.63
   8 -11  -3    4.98    0.72
   8 -11  -3    4.14    0.43
  -8  11   3    3.79    0.69
   7 -11  -3    1.26    0.53
   7 -11  -3    1.80    0.26
   6 -11  -3    3.23    0.58
   6 -11  -3    3.14    0.29
   5 -11  -3   -0.35    0.44
   5 -11  -3    0.22    0.23
   4 -11  -3    4.70    0.39
   3 -11  -3    0.17    0.23
  -3  11   3    0.15    0.37
   2 -11  -3   21.92    0.77
  -2  11   3   21.70    0.99
   1 -11  -3   15.88    0.65
  -1  11   3   14.18    0.90
   7 -12  -3   14.41    0.68
   7 -12  -3   14.24    1.03
   6 -12  -3   26.42    0.90
   6 -12  -3   30.07    1.31
   5 -12  -3    1.28    0.29
   4 -12  -3   21.56    0.75
   3 -12  -3    4.18    0.41
  -3  12   3    3.68    0.57
  -1  13  -4   20.11    1.04
   1 -13   4   22.11    1.08
   1 -13   4   20.69    0.68
  -2  13  -4    1.54    0.49
  -2  13  -4    0.86    0.77
   2 -13   4    1.08    0.49
   2 -13   4    1.26    0.21
  -3  13  -4    0.25    0.65
   3 -13   4    0.38    0.20
   3 -13   4    0.81    0.52
   3 -13   4    0.61    0.67
  -4  13  -4    3.19    0.78
   4 -13   4    3.43    0.35
   4 -13   4    3.90    0.75
  -5  13  -4   12.02    1.14
   5 -13   4   13.58    0.49
   5 -13   4   11.59    1.07
   1  12  -4    4.76    0.64
  -1 -12   4    4.73    0.40
  -1 -12   4    6.14    0.76
   0  12  -4    5.88    0.95
   0  12  -4    5.78    0.66
   0 -12   4    5.53    0.69
  -1  12  -4    4.12    0.77
  -1  12  -4    4.81    0.57
   1 -12   4    3.47    0.51
   1 -12   4    4.04    0.29
  -2  12  -4   47.81    1.87
  -2  12  -4   50.97    1.62
   2 -12   4   48.31    1.62
   2 -12   4   50.43    1.35
  -3  12  -4   34.54    1.55
   3 -12   4   38.52    1.33
   3 -12   4   37.77    1.05
  -4  12  -4    5.09    0.74
   4 -12   4    4.91    0.65
   4 -12   4    4.35    0.34
  -5  12  -4    4.56    0.73
  -5  12  -4    5.79    0.70
   5 -12   4    5.34    0.34
   5 -12   4    5.23    0.73
  -6  12  -4    0.03    0.48
   6 -12   4    0.39    0.60
   6 -12   4   -0.02    0.19
  -7  12  -4    2.19    0.59
   7 -12   4    1.55    0.66
   2  11  -4   24.20    1.07
   2  11  -4   25.52    1.43
  -2 -11   4   22.49    1.02
  -2 -11   4   23.70    0.80
   1  11  -4   -0.06    0.65
   1  11  -4    0.64    0.42
  -1 -11   4   -0.05    0.41
  -1 -11   4    0.06    0.18
   0  11  -4    3.65    0.71
   0  11  -4    3.30    0.46
   0 -11   4    4.49    0.53
  -1  11  -4    7.67    0.91
  -1  11  -4    5.65    0.57
   1 -11   4    7.23    0.60
   1 -11   4    6.99    0.31
  -2  11  -4    8.72    0.60
  -2  11  -4    8.31    0.87
   2 -11   4    8.63    0.61
   2 -11   4    8.96    0.34
  -3  11  -4   11.90    0.91
   3 -11   4   12.50    0.69
   3 -11   4   12.70    0.44
  -4  11  -4   15.08    1.00
  -4  11  -4   16.65    0.77
   4 -11   4   15.52    0.96
   4 -11   4   16.98    0.58
  -5  11  -4   60.33    1.79
  -5  11  -4   54.84    1.98
   5 -11   4   53.99    1.94
   5 -11   4   57.67    1.57
  -6  11  -4   20.84    0.96
   6 -11   4   19.76    0.68
   6 -11   4   21.12    1.14
  -7  11  -4    1.02    0.52
   7 -11   4    0.51    0.56
   7 -11   4    0.69    0.23
   4  10  -4    4.55    0.61
  -4 -10   4    3.72    0.60
  -4 -10   4    4.05    0.39
   3  10  -4    4.13    0.84
   3  10  -4    4.01    0.55
  -3 -10   4    4.50    0.56
  -3 -10   4    4.36    0.40
   2  10  -4   -0.20    0.59
   2  10  -4    0.17    0.36
  -2 -10   4    0.07    0.34
  -2 -10   4    0.12    0.18
   1  10  -4   26.77    1.03
   1  10  -4   26.92    1.30
  -1 -10   4   27.91    1.01
  -1 -10   4   26.55    0.81
   0  10  -4   85.33    2.45
   0  10  -4   85.55    2.69
   0 -10   4   85.10    2.45
  -1  10  -4   26.79    1.20
  -1  10  -4   26.88    1.00
   1 -10   4   29.90    1.02
   1 -10   4   26.84    0.78
  -2  10  -4   18.78    1.03
  -2  10  -4   19.44    0.78
   2 -10   4   19.23    0.57
   2 -10   4   18.50    0.76
  -3  10  -4   13.55    0.65
  -3  10  -4   12.52    0.81
   3 -10   4   13.29    0.46
   3 -10   4   14.07    0.66
  -4  10  -4    0.11    0.30
  -4  10  -4   -0.10    0.40
   4 -10   4   -0.04    0.18
   4 -10   4    0.10    0.33
   4 -10   4    0.38    0.40
  -5  10  -4    0.29    0.34
  -5  10  -4    0.34    0.47
   5 -10   4    0.41    0.47
   5 -10   4    0.07    0.17
  -6  10  -4    0.61    0.40
   6 -10   4    0.42    0.46
   6 -10   4    0.86    0.21
  -7  10  -4   32.50    1.26
   7 -10   4   33.85    1.42
   7 -10   4   30.88    0.99
  -8  10  -4   17.15    1.01
   8 -10   4   18.58    0.73
   8 -10   4   19.06    1.23
   5   9  -4   17.33    0.95
   5   9  -4   14.27    1.31
  -5  -9   4   17.64    0.77
  -5  -9   4   18.60    1.00
   4   9  -4    0.62    0.66
   4   9  -4    0.27    0.36
  -4  -9   4    0.22    0.25
  -4  -9   4    0.11    0.43
   3   9  -4   10.39    0.87
   3   9  -4   11.05    0.63
  -3  -9   4   10.52    0.48
  -3  -9   4   11.45    0.65
   2   9  -4    9.73    0.89
   2   9  -4   11.47    0.60
  -2  -9   4   11.29    0.64
  -2  -9   4   10.91    0.44
   1   9  -4    5.47    0.48
   1   9  -4    5.59    0.73
  -1  -9   4    5.43    0.29
  -1  -9   4    4.65    0.49
   0   9  -4   -0.27    0.45
   0   9  -4    0.16    0.27
   0  -9   4    0.47    0.30
  -1   9  -4    8.40    0.50
  -1   9  -4    7.28    0.73
   1  -9   4    8.38    0.48
   1  -9   4    8.10    0.30
  -2   9  -4   30.62    0.98
   2  -9   4   31.50    1.04
   2  -9   4   30.62    0.85
  -3   9  -4   13.85    0.63
  -3   9  -4   12.99    0.82
   3  -9   4   15.29    0.50
   3  -9   4   15.16    0.64
  -4   9  -4    0.17    0.27
  -4   9  -4    0.19    0.42
   4  -9   4    0.32    0.38
   4  -9   4    0.25    0.29
   4  -9   4    0.13    0.17
  -5   9  -4   20.77    0.98
  -5   9  -4   22.29    0.87
   5  -9   4   21.77    0.70
   5  -9   4   20.89    0.98
  -6   9  -4    4.11    0.53
   6  -9   4    4.42    0.60
   6  -9   4    4.19    0.33
  -7   9  -4    3.67    0.51
   7  -9   4    2.68    0.61
   7  -9   4    2.36    0.27
  -8   9  -4    0.17    0.41
   8  -9   4   -0.51    0.54
   8  -9   4    0.16    0.27
   6   8  -4    1.75    0.54
   6   8  -4    1.73    0.78
  -6  -8   4    1.67    0.55
  -6  -8   4    1.29    0.36
   5   8  -4    1.62    0.63
   5   8  -4    1.63    0.44
   5   8  -4    1.20    0.28
  -5  -8   4    1.60    0.31
  -5  -8   4    1.07    0.47
   4   8  -4    3.09    0.28
   4   8  -4    3.15    0.43
   4   8  -4    2.55    0.59
  -4  -8   4    3.32    0.46
  -4  -8   4    2.47    0.28
   3   8  -4   50.83    1.63
   3   8  -4   56.04    1.87
  -3  -8   4   53.93    1.52
  -3  -8   4   56.68    1.68
   2   8  -4   45.43    1.39
   2   8  -4   42.19    1.54
  -2  -8   4   44.51    1.39
  -2  -8   4   44.67    1.24
   1   8  -4   12.19    0.56
   1   8  -4   10.69    0.75
  -1  -8   4   10.45    0.53
  -1  -8   4   10.53    0.38
   0   8  -4   55.36    1.59
   0   8  -4   53.65    1.76
   0  -8   4   52.15    1.59
  -1   8  -4   13.74    0.81
  -1   8  -4   14.55    0.57
  -1   8  -4   15.26    0.60
   1  -8   4   14.69    0.44
   1  -8   4   15.41    0.62
  -2   8  -4    7.82    0.42
  -2   8  -4    7.72    0.64
   2  -8   4    8.38    0.30
   2  -8   4    7.84    0.45
  -3   8  -4    2.16    0.29
  -3   8  -4    1.26    0.40
   3  -8   4    1.82    0.19
   3  -8   4    1.70    0.28
  -4   8  -4   53.97    1.58
  -4   8  -4   50.28    1.69
   4  -8   4   51.29    1.68
   4  -8   4   53.50    1.46
   4  -8   4   52.88    1.56
  -5   8  -4   68.38    2.18
  -5   8  -4   73.68    2.08
   5  -8   4   71.76    1.93
   5  -8   4   68.60    2.18
  -6   8  -4    2.44    0.41
   6  -8   4    1.62    0.22
   6  -8   4    2.21    0.47
  -7   8  -4    6.14    0.61
   7  -8   4    6.90    0.77
   7  -8   4    7.36    0.43
  -8   8  -4   19.96    0.96
   8  -8   4   20.72    1.09
   8  -8   4   20.95    0.79
   9  -8   4    4.07    0.49
   6   7  -4    0.99    0.43
   6   7  -4    0.86    0.30
   6   7  -4    1.44    0.67
  -6  -7   4    0.69    0.31
  -6  -7   4    1.26    0.48
   5   7  -4   38.25    1.52
   5   7  -4   39.62    1.30
   5   7  -4   38.11    1.16
  -5  -7   4   37.73    1.18
  -5  -7   4   39.30    1.32
   4   7  -4    6.82    0.65
   4   7  -4    7.82    0.39
   4   7  -4    8.14    0.54
  -4  -7   4    7.17    0.41
  -4  -7   4    7.02    0.55
   3   7  -4    0.28    0.24
   3   7  -4    0.17    0.40
   3   7  -4    0.14    0.18
  -3  -7   4    0.54    0.29
  -3  -7   4    0.19    0.16
   2   7  -4    7.31    0.44
   2   7  -4    6.46    0.26
   2   7  -4    6.44    0.55
  -2  -7   4    6.33    0.29
  -2  -7   4    6.04    0.40
   1   7  -4   70.61    2.02
   1   7  -4   71.37    2.15
  -1  -7   4   72.27    1.89
   0   7  -4   73.60    2.22
   0   7  -4   79.97    2.11
   0  -7   4   75.95    1.97
   0  -7   4   70.83    2.08
  -1   7  -4    0.36    0.33
  -1   7  -4    0.22    0.15
  -1   7  -4    0.20    0.19
   1  -7   4    0.31    0.09
   1  -7   4    0.43    0.20
  -2   7  -4   96.62    2.62
  -2   7  -4   99.19    2.79
   2  -7   4   96.06    2.53
   2  -7   4   96.00    2.63
  -3   7  -4   64.43    1.92
  -3   7  -4   64.20    1.79
   3  -7   4   60.94    1.76
   3  -7   4   59.84    1.89
   3  -7   4   62.79    1.70
  -4   7  -4    3.67    0.50
  -4   7  -4    4.78    0.36
   4  -7   4    4.35    0.52
   4  -7   4    4.26    0.38
   4  -7   4    3.86    0.30
  -5   7  -4    0.60    0.25
   5  -7   4    0.59    0.18
   5  -7   4    0.98    0.40
  -6   7  -4    1.53    0.35
   6  -7   4    1.05    0.39
   6  -7   4    0.92    0.20
  -7   7  -4   16.25    0.49
  -7   7  -4   14.32    0.76
   7  -7   4   16.43    0.64
   7  -7   4   16.53    0.94
  -8   7  -4    4.86    0.60
  -8   7  -4    3.96    0.31
   8  -7   4    4.66    0.46
   8  -7   4    3.98    0.63
  -9   7  -4    2.00    0.68
  -9   7  -4    2.23    0.29
   9  -7   4    2.01    0.39
   7   6  -4    0.28    0.33
   7   6  -4    0.69    0.71
   6   6  -4   12.89    0.68
   6   6  -4   12.13    0.97
   6   6  -4   13.62    0.59
  -6  -6   4   13.07    0.73
  -6  -6   4   12.12    0.61
   5   6  -4   24.25    0.79
   5   6  -4   23.47    1.05
   5   6  -4   23.38    0.88
  -5  -6   4   23.48    0.80
  -5  -6   4   24.64    0.91
   4   6  -4    3.88    0.52
   4   6  -4    4.67    0.32
   4   6  -4    4.72    0.41
  -4  -6   4    4.56    0.44
  -4  -6   4    5.05    0.32
   3   6  -4   42.30    1.18
   3   6  -4   40.49    1.27
   3   6  -4   43.65    1.40
  -3  -6   4   42.83    1.18
  -3  -6   4   41.84    1.28
   2   6  -4   62.39    1.67
   2   6  -4   59.74    1.87
   2   6  -4   63.02    1.77
  -2  -6   4   62.09    1.67
  -2  -6   4   64.41    1.78
   1   6  -4   11.39    0.57
   1   6  -4   10.54    0.46
  -1  -6   4   10.77    0.46
   0   6  -4    0.96    0.29
   0   6  -4    1.08    0.14
   0   6  -4    0.96    0.20
   0  -6   4    0.82    0.20
   0  -6   4    0.82    0.10
  -1   6  -4   54.80    1.65
  -1   6  -4   55.72    1.48
   1  -6   4   53.66    1.51
   1  -6   4   48.98    1.48
   1  -6   4   53.02    1.41
  -2   6  -4   87.11    2.32
  -2   6  -4   86.91    2.45
   2  -6   4   82.56    2.32
   2  -6   4   84.72    2.25
  -3   6  -4   21.31    0.85
  -3   6  -4   23.52    0.76
   3  -6   4   21.69    0.86
   3  -6   4   21.66    0.75
   3  -6   4   22.71    0.70
  -4   6  -4   17.64    0.68
  -4   6  -4   17.48    0.77
  -4   6  -4   19.03    0.50
   4  -6   4   17.68    0.77
   4  -6   4   18.02    0.60
   4  -6   4   17.84    0.69
  -5   6  -4   35.63    0.96
  -5   6  -4   34.14    1.14
   5  -6   4   34.80    1.24
   5  -6   4   36.02    1.04
  -6   6  -4   23.49    0.71
  -6   6  -4   25.22    0.94
   6  -6   4   23.72    0.99
   6  -6   4   24.00    0.79
  -7   6  -4    0.27    0.31
  -7   6  -4    0.19    0.17
   7  -6   4    0.22    0.24
   7  -6   4   -0.03    0.43
  -8   6  -4    2.94    0.54
  -8   6  -4    1.94    0.27
   8  -6   4    2.34    0.34
   8  -6   4    1.75    0.56
  -9   6  -4    3.65    0.64
   9  -6   4    1.98    0.77
   9  -6   4    3.10    0.44
   8   5  -4   10.56    1.03
   8   5  -4   10.62    0.79
   7   5  -4   11.16    0.97
   7   5  -4   12.73    0.63
   6   5  -4    1.08    0.45
   6   5  -4    0.85    0.32
   6   5  -4    1.28    0.25
  -6  -5   4    1.34    0.35
  -6  -5   4    0.71    0.25
   5   5  -4    9.87    0.53
   5   5  -4    9.86    0.43
   5   5  -4   10.17    0.70
  -5  -5   4    8.92    0.44
  -5  -5   4    8.23    0.52
   4   5  -4   13.89    0.72
   4   5  -4   13.64    0.50
   4   5  -4   13.79    0.57
  -4  -5   4   13.29    0.58
  -4  -5   4   14.01    0.50
   3   5  -4  163.31    4.43
   3   5  -4  167.31    4.36
   3   5  -4  169.66    4.54
  -3  -5   4  164.82    4.36
  -3  -5   4  174.32    4.44
   2   5  -4   16.97    0.68
   2   5  -4   16.52    0.60
   2   5  -4   16.62    0.53
  -2  -5   4   16.76    0.60
  -2  -5   4   17.17    0.52
   1   5  -4   89.47    2.55
   1   5  -4   93.28    2.39
   1   5  -4   91.22    2.36
   1   5  -4   95.91    2.38
   1   5  -4   90.02    2.46
  -1  -5   4   87.18    2.46
  -1  -5   4   91.09    2.38
   0   5  -4  251.54    6.65
   0   5  -4  256.26    6.52
   0   5  -4  259.62    6.45
   0   5  -4  253.95    6.45
   0  -5   4  248.18    6.56
   0  -5   4  246.43    6.48
   0  -5   4  252.35    6.51
  -1   5  -4   78.99    2.09
  -1   5  -4   75.60    2.22
   1  -5   4   76.26    2.03
   1  -5   4   74.59    2.10
   1  -5   4   81.35    2.07
  -2   5  -4    3.15    0.33
  -2   5  -4    3.29    0.13
  -2   5  -4    3.19    0.26
  -2   5  -4    3.79    0.13
   2  -5   4    2.68    0.21
   2  -5   4    2.49    0.26
  -3   5  -4    0.66    0.25
  -3   5  -4    1.02    0.12
  -3   5  -4    0.90    0.21
  -3   5  -4    0.84    0.09
   3  -5   4    0.68    0.15
   3  -5   4    0.77    0.21
   3  -5   4    0.70    0.27
  -4   5  -4   90.27    2.34
  -4   5  -4   88.12    2.49
  -4   5  -4   91.33    2.57
   4  -5   4   91.09    2.50
   4  -5   4   89.64    2.56
   4  -5   4   87.78    2.40
  -5   5  -4   19.68    0.59
  -5   5  -4   18.94    0.74
   5  -5   4   18.60    0.80
   5  -5   4   19.81    0.66
  -6   5  -4    2.92    0.26
  -6   5  -4    2.85    0.40
   6  -5   4    2.75    0.47
   6  -5   4    2.61    0.27
  -7   5  -4   36.73    1.27
  -7   5  -4   35.28    1.06
   7  -5   4   35.13    1.13
   7  -5   4   34.87    1.33
  -8   5  -4   26.05    0.88
  -8   5  -4   27.45    1.12
   8  -5   4   24.94    1.23
   8  -5   4   25.90    0.95
  -9   5  -4    2.13    0.61
   9  -5   4    1.14    0.69
   8   4  -4   11.80    0.67
   8   4  -4   10.27    1.02
   7   4  -4    3.46    0.60
   7   4  -4    3.25    0.35
   6   4  -4   15.95    0.90
   6   4  -4   15.63    0.84
   6   4  -4   14.56    0.59
  -6  -4   4   14.67    0.60
  -6  -4   4   14.80    0.66
   5   4  -4   95.44    2.57
   5   4  -4   97.30    2.63
   5   4  -4   95.71    2.76
  -5  -4   4   95.69    2.63
  -5  -4   4   96.64    2.58
   4   4  -4   84.78    2.31
   4   4  -4   81.07    2.40
   4   4  -4   85.10    2.25
  -4  -4   4   85.56    2.26
  -4  -4   4   85.16    2.31
   3   4  -4    4.53    0.30
   3   4  -4    4.86    0.40
   3   4  -4    4.56    0.25
  -3  -4   4    4.93    0.24
   2   4  -4   13.11    0.47
   2   4  -4   14.05    0.39
   2   4  -4   13.19    0.54
   2   4  -4   12.92    0.43
   2   4  -4   12.55    0.41
  -2  -4   4   13.13    0.41
  -2  -4   4   12.94    0.47
   1   4  -4   82.13    2.29
   1   4  -4   78.94    2.22
   1   4  -4   84.67    2.17
   1   4  -4   83.20    2.18
   1   4  -4   85.79    2.15
  -1  -4   4   81.55    2.16
  -1  -4   4   81.63    2.22
   0   4  -4   55.52    1.50
   0   4  -4   54.48    1.63
   0   4  -4   57.20    1.54
   0   4  -4   58.15    1.48
   0  -4   4   56.18    1.56
   0  -4   4   58.19    1.50
  -1   4  -4    5.25    0.36
  -1   4  -4    5.95    0.28
  -1   4  -4    6.21    0.21
  -1   4  -4    6.13    0.21
   1  -4   4    5.18    0.29
   1  -4   4    5.58    0.24
  -2   4  -4  255.14    6.53
  -2   4  -4  245.88    6.36
  -2   4  -4  247.09    6.46
  -2   4  -4  250.94    6.38
   2  -4   4  249.53    6.46
   2  -4   4  241.16    6.41
  -3   4  -4   26.79    0.83
  -3   4  -4   22.69    0.85
  -3   4  -4   25.11    0.70
   3  -4   4   25.72    0.87
   3  -4   4   24.98    0.76
   3  -4   4   24.30    0.84
  -4   4  -4    9.57    0.36
  -4   4  -4    9.73    0.47
   4  -4   4    9.87    0.40
   4  -4   4    9.47    0.51
   4  -4   4    9.44    0.51
  -5   4  -4   13.55    0.60
  -5   4  -4   14.25    0.48
   5  -4   4   12.45    0.52
   5  -4   4   14.27    0.65
   5  -4   4   13.58    0.69
  -6   4  -4   17.11    0.74
  -6   4  -4   16.58    0.58
   6  -4   4   15.76    0.62
   6  -4   4   14.84    0.82
  -7   4  -4    9.94    0.49
  -7   4  -4   11.14    0.63
   7  -4   4    9.68    0.78
   7  -4   4   10.66    0.56
  -8   4  -4    0.68    0.44
  -8   4  -4    1.10    0.31
   8  -4   4    0.78    0.53
  -9   4  -4    6.76    0.89
   9  -4   4    5.04    0.81
   9   3  -4    7.25    0.68
   8   3  -4    1.93    0.37
   8   3  -4    2.08    0.60
   7   3  -4    3.32    0.34
   7   3  -4    2.97    0.52
   6   3  -4   11.08    0.68
   6   3  -4   10.09    0.48
   5   3  -4   18.37    0.66
   5   3  -4   19.42    0.78
   5   3  -4   19.52    0.64
  -5  -3   4   19.49    0.67
  -5  -3   4   18.60    0.63
   4   3  -4   22.77    0.70
   4   3  -4   23.93    0.74
   4   3  -4   22.38    0.82
  -4  -3   4   23.59    0.74
   3   3  -4   96.76    2.62
   3   3  -4   91.21    2.66
   3   3  -4  101.92    2.74
   3   3  -4  102.49    2.63
  -3  -3   4  101.45    2.62
  -3  -3   4  103.28    2.67
  -3  -3   4  103.05    2.63
   2   3  -4  168.19    4.46
   2   3  -4  175.68    4.49
   2   3  -4  173.05    4.54
   2   3  -4  170.14    4.45
  -2  -3   4  175.12    4.49
  -2  -3   4  173.68    4.45
  -2  -3   4  169.30    4.44
   1   3  -4   33.19    0.92
   1   3  -4   33.00    0.91
   1   3  -4   32.12    0.99
  -1  -3   4   31.86    0.94
  -1  -3   4   32.16    0.88
   0   3  -4    2.53    0.23
   0   3  -4    2.09    0.17
   0   3  -4    3.71    0.21
   0  -3   4    2.29    0.15
   0  -3   4    2.24    0.21
  -1   3  -4   54.26    1.42
  -1   3  -4   53.34    1.53
  -1   3  -4   52.12    1.48
   1  -3   4   52.73    1.49
   1  -3   4   52.62    1.44
  -2   3  -4  196.78    5.22
  -2   3  -4  187.15    5.13
  -2   3  -4  209.15    5.26
   2  -3   4  201.49    5.24
   2  -3   4  194.18    5.18
   2  -3   4  208.65    5.26
  -3   3  -4    0.19    0.16
  -3   3  -4    0.24    0.10
   3  -3   4    0.43    0.19
   3  -3   4    0.24    0.12
   3  -3   4    0.64    0.24
  -4   3  -4   71.21    2.08
  -4   3  -4   74.11    1.98
   4  -3   4   75.07    2.10
   4  -3   4   77.47    2.01
   4  -3   4   71.25    2.10
  -5   3  -4  206.14    5.40
  -5   3  -4  208.35    5.51
   5  -3   4  218.28    5.50
   5  -3   4  205.34    5.42
   5  -3   4  199.02    5.54
  -6   3  -4   33.97    1.04
  -6   3  -4   33.38    1.17
   6  -3   4   36.56    1.09
   6  -3   4   34.18    1.25
  -7   3  -4   -0.13    0.32
  -7   3  -4   -0.01    0.25
   7  -3   4   -0.08    0.37
  -8   3  -4    0.33    0.41
  -8   3  -4   -0.01    0.30
   8  -3   4    0.00    0.48
   9   2  -4    4.38    0.70
   8   2  -4   24.58    1.17
   8   2  -4   25.99    0.90
   7   2  -4   26.08    1.09
   7   2  -4   26.73    0.87
   6   2  -4    5.81    0.36
   6   2  -4    6.32    0.54
   5   2  -4    0.63    0.17
   5   2  -4    0.52    0.15
   5   2  -4    0.45    0.28
  -5  -2   4    0.56    0.17
  -5  -2   4    0.42    0.17
  -5  -2   4    0.59    0.17
   4   2  -4    3.40    0.24
   4   2  -4    2.78    0.29
   4   2  -4    2.97    0.20
   4   2  -4    3.27    0.24
   4   2  -4    2.95    0.22
  -4  -2   4    3.32    0.23
  -4  -2   4    3.04    0.22
  -4  -2   4    3.28    0.24
   3   2  -4   58.84    1.58
   3   2  -4   56.35    1.63
   3   2  -4   54.41    1.55
   3   2  -4   59.49    1.56
  -3  -2   4   60.35    1.56
  -3  -2   4   56.84    1.58
  -3  -2   4   58.60    1.55
   2   2  -4   30.81    0.91
   2   2  -4   28.94    0.89
   2   2  -4   31.45    0.85
   2   2  -4   29.06    0.84
  -2  -2   4   29.41    0.84
  -2  -2   4   30.52    0.83
  -2  -2   4   30.43    0.87
   1   2  -4  368.48    9.29
   1   2  -4  349.05    9.34
   1   2  -4  359.63    9.29
   1   2  -4  352.95    9.34
  -1  -2   4  362.61    9.27
  -1  -2   4  371.72    9.32
  -1  -2   4  371.61    9.28
   0   2  -4  308.44    8.11
   0   2  -4  318.94    8.16
   0   2  -4  326.03    8.16
   0  -2   4  309.80    8.10
   0  -2   4  305.53    8.14
   0  -2   4  324.21    8.11
  -1   2  -4   53.31    1.51
  -1   2  -4   52.50    1.44
  -1   2  -4   54.75    1.51
  -1   2  -4   53.83    1.45
   1  -2   4   51.29    1.51
   1  -2   4   54.59    1.47
   1  -2   4   54.36    1.47
  -2   2  -4    5.36    0.26
  -2   2  -4    4.78    0.31
  -2   2  -4    5.11    0.24
  -2   2  -4    5.21    0.29
   2  -2   4    4.89    0.27
   2  -2   4    5.12    0.36
   2  -2   4    5.03    0.32
   2  -2   4    4.85    0.27
  -3   2  -4    0.38    0.19
  -3   2  -4    0.07    0.11
   3  -2   4    0.00    0.12
   3  -2   4    0.21    0.22
   3  -2   4    0.07    0.20
   3  -2   4   -0.01    0.13
  -4   2  -4   28.78    0.86
  -4   2  -4   29.52    0.97
   4  -2   4   28.98    0.97
   4  -2   4   29.03    0.97
   4  -2   4   29.17    0.89
  -5   2  -4    1.58    0.32
  -5   2  -4    1.53    0.22
   5  -2   4    1.68    0.31
   5  -2   4    1.32    0.37
   5  -2   4    1.25    0.20
  -6   2  -4   19.84    0.71
  -6   2  -4   19.80    0.83
   6  -2   4   19.07    0.89
  -7   2  -4   19.07    0.90
  -7   2  -4   20.51    0.78
   7  -2   4   19.57    1.00
  -8   2  -4    7.75    0.59
   8  -2   4    7.09    0.91
   9   1  -4    1.32    0.61
   8   1  -4   11.82    0.82
   7   1  -4    3.54    0.35
   7   1  -4    2.71    0.42
  -7  -1   4    3.49    0.36
   6   1  -4   68.91    1.85
   6   1  -4   65.99    1.98
  -6  -1   4   67.17    1.86
   5   1  -4  109.63    3.04
   5   1  -4  114.15    2.94
   5   1  -4  114.82    2.95
   5   1  -4  110.80    2.93
  -5  -1   4  107.90    2.93
  -5  -1   4  109.26    2.93
  -5  -1   4  111.37    2.94
   4   1  -4   26.76    0.78
   4   1  -4   25.95    0.85
   4   1  -4   27.93    0.80
   4   1  -4   26.42    0.77
  -4  -1   4   26.90    0.78
  -4  -1   4   25.15    0.78
  -4  -1   4   27.91    0.78
   3   1  -4    9.36    0.38
   3   1  -4    9.83    0.33
   3   1  -4    8.88    0.36
   3   1  -4    8.59    0.31
  -3  -1   4    8.70    0.34
  -3  -1   4    8.18    0.32
  -3  -1   4    9.31    0.32
   2   1  -4    2.42    0.16
   2   1  -4    2.38    0.17
   2   1  -4    2.25    0.19
   2   1  -4    2.55    0.22
  -2  -1   4    2.32    0.16
  -2  -1   4    2.32    0.16
  -2  -1   4    2.27    0.18
   1   1  -4   35.50    1.06
   1   1  -4   35.00    0.99
   1   1  -4   35.48    0.99
   1   1  -4   36.13    1.01
  -1  -1   4   35.65    1.03
  -1  -1   4   36.47    0.99
   0   1  -4    5.05    0.26
   0   1  -4    5.14    0.29
   0   1  -4    4.79    0.25
   0   1  -4    4.55    0.24
   0  -1   4    5.13    0.29
   0  -1   4    5.56    0.24
   0  -1   4    4.80    0.25
  -1   1  -4    7.12    0.37
  -1   1  -4    8.44    0.32
  -1   1  -4    7.92    0.33
  -1   1  -4    8.90    0.33
   1  -1   4    8.70    0.34
   1  -1   4    8.47    0.32
   1  -1   4    7.04    0.39
   1  -1   4    7.52    0.33
  -2   1  -4  149.86    3.73
  -2   1  -4  138.28    3.80
  -2   1  -4  141.77    3.73
   2  -1   4  147.10    3.83
   2  -1   4  144.07    3.77
   2  -1   4  137.88    3.75
   2  -1   4  141.46    3.74
  -3   1  -4  105.44    2.83
  -3   1  -4  105.54    2.75
  -3   1  -4  106.33    2.74
   3  -1   4  103.71    2.75
   3  -1   4  103.60    2.83
   3  -1   4  101.07    2.80
   3  -1   4   98.98    2.75
  -4   1  -4    0.57    0.25
  -4   1  -4    0.25    0.15
   4  -1   4    0.51    0.24
   4  -1   4    0.37    0.16
   4  -1   4    0.54    0.18
   4  -1   4    0.67    0.28
  -5   1  -4    1.32    0.31
  -5   1  -4    1.36    0.24
   5  -1   4    1.14    0.35
   5  -1   4    0.91    0.30
  -6   1  -4    0.28    0.34
  -6   1  -4    0.06    0.26
   6  -1   4   -0.03    0.37
  -7   1  -4    5.16    0.52
   7  -1   4    4.23    0.61
  -8   1  -4    0.14    0.39
 -10   0   4    6.43    0.71
   9   0  -4    2.27    0.56
  -9   0   4    1.89    0.35
   8   0  -4    0.24    0.36
  -8   0   4    0.39    0.26
   7   0  -4    0.23    0.34
  -7   0   4    0.11    0.21
   6   0  -4    5.06    0.41
   6   0  -4    4.51    0.31
   6   0  -4    4.37    0.29
   6   0  -4    4.94    0.34
  -6   0   4    4.79    0.34
  -6   0   4    4.87    0.32
   5   0  -4    0.90    0.14
   5   0  -4    0.58    0.22
   5   0  -4    1.17    0.19
   5   0  -4    0.64    0.14
  -5   0   4    1.13    0.16
  -5   0   4    0.64    0.14
  -5   0   4    0.93    0.18
  -5   0   4    1.09    0.16
   4   0  -4   46.45    1.27
   4   0  -4   45.17    1.27
   4   0  -4   44.41    1.32
   4   0  -4   47.80    1.31
  -4   0   4   49.15    1.27
  -4   0   4   46.44    1.27
  -4   0   4   45.37    1.27
   3   0  -4  229.24    5.93
   3   0  -4  224.07    5.97
   3   0  -4  229.47    5.93
   3   0  -4  234.38    5.97
  -3   0   4  230.05    5.95
  -3   0   4  227.54    5.94
  -3   0   4  237.82    5.93
   2   0  -4   70.24    1.88
   2   0  -4   69.15    1.94
   2   0  -4   72.69    1.90
   2   0  -4   70.74    1.88
  -2   0   4   71.76    1.93
  -2   0   4   71.61    1.89
  -2   0   4   71.26    1.88
   1   0  -4   32.30    0.90
   1   0  -4   32.18    0.89
   1   0  -4   31.66    0.88
   1   0  -4   30.52    0.96
  -1   0   4   31.07    0.89
  -1   0   4   31.69    0.90
  -1   0   4   31.80    0.96
   0   0  -4   34.06    1.06
   0   0  -4   34.69    0.96
   0   0  -4   34.90    0.98
   0   0   4   34.45    1.05
   0   0   4   34.67    0.98
   0   0   4   33.95    0.98
  -1   0  -4   12.10    0.50
  -1   0  -4   12.60    0.44
  -1   0  -4   12.92    0.44
   1   0   4   13.05    0.43
   1   0   4   11.74    0.50
  -2   0  -4   53.69    1.48
  -2   0  -4   52.62    1.57
  -2   0  -4   54.42    1.48
   2   0   4   51.02    1.55
   2   0   4   56.15    1.48
   2   0   4   54.03    1.48
   2   0   4   53.72    1.50
  -3   0  -4    6.08    0.40
  -3   0  -4    6.27    0.33
  -3   0  -4    6.41    0.33
   3   0   4    6.08    0.32
   3   0   4    5.88    0.32
   3   0   4    5.45    0.39
   3   0   4    6.25    0.40
  -4   0  -4   92.55    2.55
  -4   0  -4   95.05    2.63
   4   0   4   93.44    2.63
   4   0   4   95.54    2.55
   4   0   4   95.47    2.62
  -5   0  -4   49.26    1.49
  -5   0  -4   46.94    1.40
   5   0   4   48.28    1.47
   5   0   4   48.29    1.40
   5   0   4   44.77    1.52
  -6   0  -4    1.50    0.48
  -6   0  -4    1.21    0.33
   6   0   4    1.49    0.48
  10  -1  -4    0.04    0.54
 -10   1   4    0.03    0.38
   9  -1  -4    7.77    0.75
  -9   1   4    8.60    0.56
   8  -1  -4   85.54    2.55
  -8   1   4   86.84    2.38
   7  -1  -4   34.74    1.08
   7  -1  -4   33.58    1.18
   7  -1  -4   34.05    1.04
  -7   1   4   35.19    1.05
  -7   1   4   34.24    1.08
   6  -1  -4    3.49    0.36
   6  -1  -4    3.78    0.26
   6  -1  -4    3.20    0.33
  -6   1   4    3.23    0.28
  -6   1   4    3.24    0.32
   5  -1  -4   11.92    0.43
   5  -1  -4   13.30    0.53
   5  -1  -4   13.46    0.50
  -5   1   4   12.80    0.49
  -5   1   4   12.21    0.57
  -5   1   4   12.37    0.44
   4  -1  -4    1.49    0.17
   4  -1  -4    1.40    0.18
   4  -1  -4    1.63    0.17
   4  -1  -4    1.71    0.21
  -4   1   4    1.52    0.17
  -4   1   4    1.68    0.19
  -4   1   4    1.61    0.21
   3  -1  -4   13.35    0.45
   3  -1  -4   13.94    0.49
   3  -1  -4   13.58    0.43
   3  -1  -4   13.44    0.43
  -3   1   4   14.18    0.44
  -3   1   4   13.08    0.44
  -3   1   4   14.73    0.49
   2  -1  -4    0.59    0.10
   2  -1  -4    0.60    0.10
   2  -1  -4    0.63    0.11
   2  -1  -4    0.68    0.16
  -2   1   4    0.42    0.15
  -2   1   4    0.58    0.12
  -2   1   4    0.69    0.11
   1  -1  -4  168.29    4.26
   1  -1  -4  162.06    4.26
   1  -1  -4  158.40    4.33
   1  -1  -4  168.54    4.22
  -1   1   4  167.43    4.26
  -1   1   4  159.85    4.32
  -1   1   4  163.06    4.26
   0  -1  -4   93.79    2.54
   0  -1  -4   97.04    2.55
   0  -1  -4   99.08    2.64
   0   1   4   94.45    2.53
   0   1   4   93.30    2.59
   0   1   4   96.26    2.53
   0   1   4   96.15    2.48
  -1  -1  -4   12.93    0.48
  -1  -1  -4   13.03    0.56
  -1  -1  -4   13.73    0.49
   1   1   4   14.56    0.47
   1   1   4   13.98    0.47
   1   1   4   14.13    0.54
   1   1   4   15.14    0.46
  -2  -1  -4    7.00    0.41
  -2  -1  -4    7.24    0.35
  -2  -1  -4    7.95    0.35
   2   1   4    7.89    0.34
   2   1   4    7.34    0.33
   2   1   4    7.91    0.42
   2   1   4    8.12    0.36
  -3  -1  -4    6.69    0.36
  -3  -1  -4    6.42    0.43
  -3  -1  -4    6.52    0.37
   3   1   4    6.49    0.42
   3   1   4    7.47    0.41
   3   1   4    6.54    0.35
  -4  -1  -4    9.89    0.57
   4   1   4   10.17    0.55
   4   1   4    9.32    0.45
   4   1   4    9.58    0.54
  -5  -1  -4    5.73    0.55
   5   1   4    5.96    0.44
   5   1   4    5.51    0.51
   6   1   4    6.29    0.55
  10  -2  -4    4.03    0.67
 -10   2   4    3.85    0.45
   9  -2  -4    0.44    0.46
  -9   2   4    0.48    0.30
   8  -2  -4    0.49    0.34
   8  -2  -4   -0.07    0.21
   8  -2  -4   -0.02    0.30
  -8   2   4    0.08    0.23
  -8   2   4   -0.03    0.31
   7  -2  -4   30.28    0.94
   7  -2  -4   29.76    1.01
   7  -2  -4   31.32    1.07
  -7   2   4   30.46    0.94
  -7   2   4   32.54    1.02
   6  -2  -4   88.43    2.51
   6  -2  -4   92.02    2.50
   6  -2  -4   89.08    2.43
  -6   2   4   91.16    2.43
  -6   2   4   94.50    2.51
   5  -2  -4   89.61    2.43
   5  -2  -4   91.93    2.43
   5  -2  -4   90.42    2.36
  -5   2   4   86.94    2.37
  -5   2   4   86.99    2.43
   4  -2  -4    1.46    0.20
   4  -2  -4    1.43    0.16
   4  -2  -4    1.38    0.14
   4  -2  -4    1.49    0.18
  -4   2   4    1.62    0.18
  -4   2   4    1.49    0.20
   3  -2  -4   85.10    2.26
   3  -2  -4   82.92    2.18
   3  -2  -4   82.40    2.18
   3  -2  -4   86.78    2.19
  -3   2   4   79.92    2.20
  -3   2   4   80.67    2.22
   2  -2  -4    0.16    0.11
   2  -2  -4    0.35    0.08
   2  -2  -4    0.16    0.14
   2  -2  -4    0.37    0.10
  -2   2   4    0.32    0.11
  -2   2   4    0.12    0.13
   1  -2  -4    1.00    0.19
   1  -2  -4    1.30    0.17
   1  -2  -4    0.89    0.14
  -1   2   4    1.14    0.19
  -1   2   4    0.63    0.11
   0  -2  -4    5.68    0.38
   0  -2  -4    5.42    0.29
   0  -2  -4    6.08    0.31
   0   2   4    4.86    0.21
   0   2   4    6.38    0.33
   0   2   4    5.85    0.25
  -1  -2  -4   56.55    1.55
  -1  -2  -4   55.20    1.54
  -1  -2  -4   56.63    1.65
   1   2   4   55.44    1.49
   1   2   4   55.33    1.51
   1   2   4   54.44    1.59
  -2  -2  -4  139.65    3.55
  -2  -2  -4  135.75    3.65
   2   2   4  131.71    3.61
   2   2   4  131.84    3.52
   2   2   4  132.02    3.54
  -3  -2  -4   28.92    0.89
  -3  -2  -4   27.12    0.97
   3   2   4   28.93    0.87
   3   2   4   28.46    0.97
  -4  -2  -4    2.18    0.36
   4   2   4    2.37    0.28
   4   2   4    2.85    0.40
   5   2   4    3.36    0.44
   5   2   4    3.83    0.44
   6   2   4    6.51    0.54
   7   2   4   -0.30    0.41
  10  -3  -4   13.36    0.96
 -10   3   4   13.66    0.69
   9  -3  -4    0.20    0.26
   9  -3  -4    0.37    0.38
   9  -3  -4    0.09    0.41
  -9   3   4    0.20    0.26
  -9   3   4    0.47    0.44
   8  -3  -4    5.63    0.40
   8  -3  -4    6.62    0.58
   8  -3  -4    6.10    0.51
  -8   3   4    5.54    0.50
  -8   3   4    7.20    0.40
   7  -3  -4    5.90    0.44
   7  -3  -4    6.08    0.35
   7  -3  -4    6.10    0.45
  -7   3   4    6.22    0.46
  -7   3   4    6.40    0.36
   6  -3  -4    1.20    0.16
   6  -3  -4    1.24    0.26
   6  -3  -4    1.42    0.24
  -6   3   4    1.77    0.19
  -6   3   4    1.36    0.25
   5  -3  -4   10.92    0.38
   5  -3  -4    9.89    0.43
   5  -3  -4   10.76    0.48
  -5   3   4    9.73    0.38
  -5   3   4   10.44    0.48
   4  -3  -4  173.06    4.41
   4  -3  -4  167.94    4.37
   4  -3  -4  166.01    4.46
  -4   3   4  170.76    4.37
  -4   3   4  163.92    4.38
  -4   3   4  171.42    4.35
   3  -3  -4  173.61    4.32
   3  -3  -4  167.65    4.32
   3  -3  -4  164.57    4.41
  -3   3   4  170.29    4.30
  -3   3   4  168.30    4.35
  -3   3   4  157.51    4.33
   2  -3  -4    2.35    0.25
   2  -3  -4    2.47    0.12
   2  -3  -4    2.97    0.19
  -2   3   4    2.42    0.17
  -2   3   4    3.02    0.23
  -2   3   4    2.47    0.16
   1  -3  -4    4.73    0.32
   1  -3  -4    5.10    0.28
  -1   3   4    5.02    0.22
  -1   3   4    5.06    0.31
  -1   3   4    5.46    0.26
   0  -3  -4   59.03    1.72
   0  -3  -4   59.05    1.62
   0   3   4   57.61    1.57
   0   3   4   58.08    1.66
  -1  -3  -4    1.25    0.29
  -1  -3  -4    0.96    0.18
   1   3   4    1.27    0.24
   1   3   4    1.12    0.15
  -2  -3  -4    2.89    0.30
  -2  -3  -4    2.46    0.35
   2   3   4    3.08    0.25
   2   3   4    3.32    0.34
  -3  -3  -4   14.00    0.69
  -3  -3  -4   15.69    0.61
   3   3   4   14.75    0.55
   3   3   4   15.76    0.69
   4   3   4   41.11    1.24
   4   3   4   41.73    1.36
   5   3   4   16.69    0.69
   5   3   4   17.84    0.83
   6   3   4    0.22    0.66
   6   3   4    0.46    0.35
  10  -4  -4    1.58    0.56
 -10   4   4    2.24    0.36
   9  -4  -4   29.28    0.96
   9  -4  -4   28.89    1.10
   9  -4  -4   27.87    1.14
  -9   4   4   28.64    0.95
  -9   4   4   28.98    1.11
   8  -4  -4   76.37    2.24
   8  -4  -4   75.69    2.24
   8  -4  -4   77.16    2.12
  -8   4   4   74.71    2.10
  -8   4   4   80.39    2.25
   7  -4  -4   30.69    0.93
   7  -4  -4   31.17    1.03
   7  -4  -4   31.56    1.04
  -7   4   4   30.55    1.06
  -7   4   4   30.43    0.93
   6  -4  -4   71.83    1.93
   6  -4  -4   71.23    2.04
   6  -4  -4   70.76    2.00
  -6   4   4   71.28    1.93
  -6   4   4   71.67    2.05
   5  -4  -4   75.62    2.06
   5  -4  -4   73.21    2.01
   5  -4  -4   77.20    2.13
  -5   4   4   75.78    2.01
   4  -4  -4   16.67    0.52
   4  -4  -4   16.80    0.55
   4  -4  -4   16.62    0.62
  -4   4   4   17.84    0.54
  -4   4   4   17.62    0.53
  -4   4   4   17.05    0.49
   3  -4  -4    2.04    0.25
   3  -4  -4    1.94    0.16
   3  -4  -4    2.17    0.17
  -3   4   4    1.97    0.12
  -3   4   4    2.13    0.15
  -3   4   4    2.19    0.21
   2  -4  -4   37.55    1.19
   2  -4  -4   38.44    1.10
  -2   4   4   40.50    1.05
  -2   4   4   39.00    1.05
  -2   4   4   40.06    1.15
   1  -4  -4  290.12    7.59
   1  -4  -4  278.27    7.49
  -1   4   4  286.88    7.43
  -1   4   4  294.76    7.44
  -1   4   4  299.68    7.54
   0  -4  -4   52.61    1.60
   0  -4  -4   53.59    1.48
   0   4   4   54.04    1.54
   0   4   4   51.04    1.41
  -1  -4  -4   19.62    0.81
  -1  -4  -4   21.01    0.71
   1   4   4   22.50    0.65
   1   4   4   20.31    0.76
  -2  -4  -4   63.84    1.91
  -2  -4  -4   63.64    1.80
   2   4   4   65.12    1.89
  -3  -4  -4   30.32    0.98
   3   4   4   31.10    1.08
   3   4   4   30.13    0.94
  -4  -4  -4    0.61    0.32
   4   4   4    0.39    0.36
   4   4   4    0.24    0.23
   5   4   4   -0.01    0.42
   5   4   4    0.08    0.30
   6   4   4    8.13    0.83
   6   4   4    9.44    0.91
  10  -5  -4   15.61    0.89
  10  -5  -4   16.61    0.96
  10  -5  -4   15.06    0.70
 -10   5   4   14.76    0.90
 -10   5   4   13.51    0.66
   9  -5  -4    6.12    0.63
   9  -5  -4    5.16    0.44
   9  -5  -4    6.24    0.62
  -9   5   4    5.83    0.43
  -9   5   4    5.42    0.62
   8  -5  -4    0.21    0.34
   8  -5  -4    0.28    0.34
   8  -5  -4   -0.09    0.19
  -8   5   4    0.30    0.34
  -8   5   4    0.20    0.20
   7  -5  -4   25.82    0.78
   7  -5  -4   25.05    0.89
   7  -5  -4   24.57    0.93
  -7   5   4   23.79    0.76
  -7   5   4   24.37    0.91
   6  -5  -4   79.30    2.25
   6  -5  -4   78.85    2.18
   6  -5  -4   77.26    2.10
  -6   5   4   77.40    2.25
  -6   5   4   78.85    2.08
   5  -5  -4   17.61    0.56
   5  -5  -4   19.03    0.71
   5  -5  -4   17.42    0.62
  -5   5   4   17.13    0.51
  -5   5   4   17.57    0.49
  -5   5   4   19.24    0.73
   4  -5  -4   13.83    0.58
   4  -5  -4   14.76    0.47
   4  -5  -4   14.87    0.49
  -4   5   4   14.26    0.49
   3  -5  -4   64.94    1.77
   3  -5  -4   65.13    1.88
  -3   5   4   67.90    1.82
   2  -5  -4   32.52    0.97
   2  -5  -4   33.54    1.08
  -2   5   4   32.98    0.87
  -2   5   4   33.35    1.02
  -2   5   4   33.87    0.87
   1  -5  -4    2.68    0.33
   1  -5  -4    2.41    0.26
  -1   5   4    2.45    0.32
  -1   5   4    2.73    0.20
   0  -5  -4   37.42    1.28
   0  -5  -4   39.69    1.16
   0   5   4   39.39    1.21
   0   5   4   40.21    1.07
  -1  -5  -4    6.51    0.52
  -1  -5  -4    6.81    0.40
   1   5   4    7.22    0.46
   1   5   4    6.68    0.30
  -2  -5  -4   16.62    0.66
   2   5   4   17.87    0.59
   2   5   4   17.26    0.76
  -3  -5  -4    0.39    0.24
   3   5   4    0.50    0.21
   3   5   4    0.46    0.36
  -4  -5  -4    8.11    0.60
   4   5   4    8.23    0.49
   4   5   4    7.53    0.69
   5   5   4   12.10    0.66
   5   5   4   13.11    0.86
  10  -6  -4    3.15    0.52
  10  -6  -4    2.76    0.57
  10  -6  -4    3.59    0.39
 -10   6   4    2.43    0.32
 -10   6   4    4.24    0.61
   9  -6  -4    0.31    0.42
   9  -6  -4    0.31    0.24
   9  -6  -4    0.43    0.42
  -9   6   4    0.60    0.22
  -9   6   4    0.35    0.43
   8  -6  -4   29.63    1.08
   8  -6  -4   29.16    0.91
   8  -6  -4   30.46    1.07
  -8   6   4   28.39    0.85
  -8   6   4   28.18    1.10
   7  -6  -4   20.73    0.79
   7  -6  -4   20.15    0.67
   7  -6  -4   19.71    0.86
  -7   6   4   20.56    0.84
   6  -6  -4    3.12    0.40
   6  -6  -4    3.99    0.27
   6  -6  -4    3.16    0.36
  -6   6   4    3.67    0.41
   5  -6  -4    3.20    0.23
   5  -6  -4    3.30    0.41
   4  -6  -4   70.50    2.01
   4  -6  -4   69.29    1.86
  -4   6   4   68.55    1.89
   3  -6  -4   60.60    1.66
   3  -6  -4   62.17    1.80
  -3   6   4   60.41    1.71
   2  -6  -4    0.04    0.17
   2  -6  -4    0.15    0.25
  -2   6   4    0.07    0.20
   1  -6  -4   88.05    2.44
   1  -6  -4   91.30    2.58
  -1   6   4   91.79    2.51
   0  -6  -4   27.26    1.03
   0  -6  -4   27.11    0.88
   0   6   4   28.96    0.98
   0   6   4   27.64    0.76
  -1  -6  -4    3.29    0.30
   1   6   4    2.16    0.37
   1   6   4    2.34    0.22
  -2  -6  -4    1.09    0.27
   2   6   4    1.04    0.19
   2   6   4    1.08    0.36
  -3  -6  -4   15.69    0.70
   3   6   4   15.78    0.61
   3   6   4   17.88    0.87
  -4  -6  -4   16.28    0.84
   4   6   4   18.09    0.72
   4   6   4   19.27    0.92
  10  -7  -4    1.38    0.57
  10  -7  -4    0.28    0.51
  10  -7  -4    0.73    0.29
 -10   7   4    0.67    0.53
   9  -7  -4    8.48    0.49
   9  -7  -4    9.09    0.76
   9  -7  -4    8.84    0.69
  -9   7   4    9.04    0.75
   8  -7  -4   33.33    1.16
   8  -7  -4   31.66    1.00
   8  -7  -4   33.75    1.23
  -8   7   4   32.13    1.21
   7  -7  -4    3.54    0.47
   7  -7  -4    3.71    0.30
  -7   7   4    3.73    0.49
   6  -7  -4   81.74    2.41
   6  -7  -4   82.09    2.21
  -6   7   4   83.85    2.41
   5  -7  -4   31.69    0.91
   5  -7  -4   31.05    1.09
   4  -7  -4    2.69    0.26
   4  -7  -4    3.12    0.39
  -4   7   4    2.52    0.31
   3  -7  -4    4.33    0.31
   3  -7  -4    3.82    0.45
  -3   7   4    3.70    0.36
   2  -7  -4   26.25    0.86
   2  -7  -4   28.31    1.01
  -2   7   4   26.99    0.92
   1  -7  -4   85.21    2.33
   1  -7  -4   89.72    2.51
  -1   7   4   82.11    2.42
   0  -7  -4    8.47    0.46
   0   7   4    8.12    0.57
  -1  -7  -4   17.26    0.69
   1   7   4   17.85    0.82
   1   7   4   16.80    0.52
  -2  -7  -4   19.27    0.79
   2   7   4   21.63    0.66
   2   7   4   20.41    0.95
  -3  -7  -4   13.15    0.71
   3   7   4   13.30    0.87
   3   7   4   13.08    0.56
  10  -8  -4   11.09    0.62
  10  -8  -4   10.63    0.93
 -10   8   4   12.81    0.99
   9  -8  -4    0.96    0.51
   9  -8  -4    0.86    0.24
  -9   8   4    0.99    0.55
   8  -8  -4    0.33    0.42
   8  -8  -4   -0.10    0.20
  -8   8   4   -0.07    0.39
   7  -8  -4    4.38    0.61
   7  -8  -4    4.74    0.34
  -7   8   4    4.92    0.59
   6  -8  -4   34.37    1.22
   6  -8  -4   34.94    1.01
   5  -8  -4   21.73    0.90
   5  -8  -4   23.13    0.71
   4  -8  -4    1.78    0.21
   4  -8  -4    1.45    0.37
  -4   8   4    1.69    0.28
   3  -8  -4   69.39    2.04
   3  -8  -4   64.25    1.87
  -3   8   4   68.86    1.94
   2  -8  -4   21.17    0.73
   2  -8  -4   21.31    0.94
  -2   8   4   20.95    0.82
   1  -8  -4    2.35    0.28
  -1   8   4    2.16    0.35
   0  -8  -4    3.08    0.32
   0   8   4    1.97    0.38
  -1  -8  -4   16.41    0.70
   1   8   4   16.91    0.87
  -2  -8  -4    8.75    0.59
   2   8   4    9.82    0.74
   9  -9  -4   15.57    1.00
   9  -9  -4   16.69    0.69
   8  -9  -4   23.36    0.78
   8  -9  -4   21.63    1.10
  -8   9   4   23.07    1.09
   7  -9  -4   10.68    0.78
   7  -9  -4   11.01    0.48
   6  -9  -4    0.43    0.40
   6  -9  -4    0.27    0.20
   5  -9  -4    2.56    0.45
   5  -9  -4    2.44    0.25
   4  -9  -4   33.99    1.02
   4  -9  -4   32.51    1.24
   3  -9  -4   11.26    0.74
   3  -9  -4    9.45    0.49
  -3   9   4   11.39    0.60
   2  -9  -4    8.74    0.46
  -2   9   4    7.73    0.57
   1  -9  -4   37.67    1.17
  -1   9   4   38.14    1.30
   0  -9  -4   20.78    0.79
   0   9   4   20.48    0.97
  -1  -9  -4    0.13    0.29
   1   9   4    0.40    0.47
   8 -10  -4    5.13    0.69
   8 -10  -4    4.76    0.43
   7 -10  -4    2.84    0.30
   7 -10  -4    2.44    0.51
   6 -10  -4   54.07    1.53
   6 -10  -4   53.02    1.81
   5 -10  -4   14.09    0.80
   5 -10  -4   14.35    0.58
   4 -10  -4    0.19    0.44
   4 -10  -4    0.18    0.25
   3 -10  -4    0.44    0.26
  -3  10   4    0.96    0.39
   2 -10  -4    1.46    0.27
  -2  10   4    1.70    0.44
   1 -10  -4   24.51    0.88
  -1  10   4   26.14    1.09
   0 -10  -4   -0.07    0.30
   0  10   4    0.13    0.43
   7 -11  -4    0.95    0.29
   7 -11  -4    1.37    0.56
   6 -11  -4    4.62    0.67
   6 -11  -4    4.08    0.43
   5 -11  -4    3.68    0.35
   5 -11  -4    3.60    0.63
   4 -11  -4   18.85    0.72
   3 -11  -4   32.28    1.07
  -3  11   4   35.16    1.29
   2 -11  -4    1.51    0.31
  -2  11   4    1.68    0.51
  -1  13  -5    3.11    0.92
  -1  13  -5    2.89    0.58
   1 -13   5    3.12    0.36
   1 -13   5    2.72    0.54
  -2  13  -5    7.64    0.99
   2 -13   5    6.69    0.78
   2 -13   5    6.85    0.42
  -3  13  -5   11.05    1.15
   3 -13   5   11.84    0.91
   3 -13   5   12.25    0.53
  -4  13  -5    0.78    0.76
   4 -13   5    1.19    0.28
   4 -13   5    1.36    0.72
  -5  13  -5   14.24    1.24
   5 -13   5   16.84    0.61
   5 -13   5   13.47    1.16
   1  12  -5   -0.35    0.80
   1  12  -5   -0.24    0.46
  -1 -12   5   -0.11    0.24
  -1 -12   5    0.56    0.52
   0  12  -5   31.85    1.27
   0  12  -5   33.55    1.69
   0 -12   5   33.93    1.00
   0 -12   5   33.92    1.31
  -1  12  -5   20.45    1.30
  -1  12  -5   18.53    0.95
   1 -12   5   20.20    0.66
   1 -12   5   21.21    0.98
  -2  12  -5    1.97    0.67
   2 -12   5    2.16    0.23
   2 -12   5    2.33    0.52
  -3  12  -5    0.11    0.55
   3 -12   5    0.10    0.21
   3 -12   5    0.13    0.43
  -4  12  -5   -0.29    0.59
   4 -12   5   -0.14    0.57
   4 -12   5    0.15    0.24
  -5  12  -5    4.04    0.55
  -5  12  -5    3.72    0.77
   5 -12   5    3.58    0.71
   5 -12   5    3.36    0.37
  -6  12  -5    0.70    0.50
   6 -12   5    1.00    0.26
   6 -12   5    2.09    0.75
   3  11  -5    5.16    1.02
   2  11  -5    0.00    0.45
   2  11  -5    0.64    0.74
  -2 -11   5    0.04    0.22
  -2 -11   5    0.03    0.45
   1  11  -5    0.14    0.42
   1  11  -5    0.16    0.70
  -1 -11   5    0.12    0.42
  -1 -11   5    0.51    0.21
   0  11  -5   11.61    1.10
   0  11  -5   13.89    0.76
   0 -11   5   13.55    0.77
   0 -11   5   12.86    0.49
  -1  11  -5    3.51    0.48
  -1  11  -5    3.94    0.72
   1 -11   5    4.59    0.29
   1 -11   5    4.21    0.57
  -2  11  -5    8.31    0.89
   2 -11   5    7.63    0.62
   2 -11   5    7.45    0.36
  -3  11  -5   61.84    2.15
   3 -11   5   62.96    1.92
   3 -11   5   63.69    1.73
  -4  11  -5   18.61    1.07
  -4  11  -5   21.63    0.89
   4 -11   5   21.19    0.71
   4 -11   5   19.05    1.03
  -5  11  -5    4.35    0.52
  -5  11  -5    3.04    0.62
   5 -11   5    3.34    0.36
   5 -11   5    2.65    0.62
  -6  11  -5    0.63    0.46
   6 -11   5    0.88    0.25
   6 -11   5    0.99    0.55
  -7  11  -5    5.56    0.68
   7 -11   5    5.89    0.85
   7 -11   5    6.22    0.46
   4  10  -5    1.90    0.84
   4  10  -5    1.62    0.53
  -4 -10   5    1.76    0.54
   3  10  -5    9.99    0.99
   3  10  -5    9.70    0.74
  -3 -10   5    8.96    0.75
   2  10  -5   53.58    1.72
   2  10  -5   54.17    2.01
  -2 -10   5   54.04    1.73
   1  10  -5   18.67    1.07
   1  10  -5   19.81    0.88
  -1 -10   5   20.87    0.88
  -1 -10   5   19.77    0.65
   0  10  -5    4.12    0.66
   0  10  -5    3.67    0.44
   0 -10   5    3.84    0.28
   0 -10   5    4.27    0.47
  -1  10  -5    4.04    0.61
   1 -10   5    4.07    0.27
   1 -10   5    4.12    0.51
  -2  10  -5   17.20    0.98
   2 -10   5   18.55    0.59
   2 -10   5   18.41    0.80
  -3  10  -5   21.89    0.85
  -3  10  -5   20.41    1.08
   3 -10   5   21.67    0.71
   3 -10   5   23.06    0.88
  -4  10  -5    1.65    0.49
  -4  10  -5    1.49    0.37
   4 -10   5    1.62    0.24
   4 -10   5    1.07    0.46
   4 -10   5    1.12    0.40
  -5  10  -5   45.50    1.71
  -5  10  -5   48.59    1.54
   5 -10   5   48.81    1.39
   5 -10   5   49.11    1.72
  -6  10  -5   31.58    1.23
   6 -10   5   33.19    1.42
   6 -10   5   33.17    1.02
  -7  10  -5    4.14    0.55
   7 -10   5    4.50    0.75
   7 -10   5    4.79    0.43
   5   9  -5    0.15    0.28
   5   9  -5   -0.16    0.73
   5   9  -5    0.31    0.49
  -5  -9   5   -0.10    0.52
   4   9  -5    2.73    0.46
   4   9  -5    2.91    0.75
  -4  -9   5    3.74    0.35
  -4  -9   5    3.60    0.54
   3   9  -5    1.91    0.41
   3   9  -5    1.42    0.62
  -3  -9   5    1.61    0.43
   2   9  -5    5.68    0.72
   2   9  -5    6.11    0.54
  -2  -9   5    6.28    0.54
   1   9  -5    0.87    0.30
   1   9  -5    0.87    0.52
  -1  -9   5    1.12    0.18
  -1  -9   5    1.34    0.32
   0   9  -5   54.59    1.84
   0   9  -5   51.07    1.59
   0  -9   5   54.82    1.63
   0  -9   5   52.16    1.44
  -1   9  -5   79.78    2.54
   1  -9   5   83.85    2.36
   1  -9   5   84.66    2.19
  -2   9  -5   30.91    0.99
  -2   9  -5   30.43    1.27
   2  -9   5   30.20    0.89
   2  -9   5   32.05    1.06
  -3   9  -5    0.26    0.25
  -3   9  -5    0.44    0.39
   3  -9   5    0.64    0.19
   3  -9   5    0.60    0.31
  -4   9  -5    7.17    0.48
  -4   9  -5    6.86    0.65
   4  -9   5    6.91    0.41
   4  -9   5    7.41    0.54
   4  -9   5    6.25    0.63
  -5   9  -5    1.37    0.34
  -5   9  -5    1.60    0.47
   5  -9   5    1.34    0.46
   5  -9   5    1.43    0.23
  -6   9  -5    1.25    0.41
   6  -9   5    0.95    0.24
   6  -9   5    0.97    0.49
  -7   9  -5   13.47    0.84
   7  -9   5   14.29    1.02
   7  -9   5   14.07    0.62
  -8   9  -5   18.87    1.04
   8  -9   5   18.18    1.24
   8  -9   5   19.12    0.80
   6   8  -5    9.99    0.81
   6   8  -5   11.59    1.16
  -6  -8   5   10.09    0.85
   5   8  -5   28.50    1.13
   5   8  -5   27.99    0.95
   5   8  -5   28.00    1.40
  -5  -8   5   30.53    1.16
  -5  -8   5   29.27    0.98
   4   8  -5   28.06    1.08
   4   8  -5   28.29    0.88
   4   8  -5   28.65    1.25
  -4  -8   5   27.85    0.92
  -4  -8   5   30.34    1.10
   3   8  -5    0.77    0.30
   3   8  -5    0.97    0.46
   3   8  -5    0.87    0.18
  -3  -8   5    1.22    0.36
   2   8  -5    5.63    0.69
   2   8  -5    5.87    0.48
  -2  -8   5    4.93    0.47
  -2  -8   5    5.03    0.31
   1   8  -5    1.27    0.27
   1   8  -5    1.72    0.47
  -1  -8   5    1.61    0.17
  -1  -8   5    1.15    0.28
   0   8  -5    9.22    0.50
   0   8  -5    9.04    0.65
   0  -8   5    8.30    0.33
   0  -8   5    8.24    0.48
  -1   8  -5    5.02    0.34
  -1   8  -5    5.02    0.62
   1  -8   5    5.21    0.26
   1  -8   5    4.63    0.39
  -2   8  -5   64.25    2.04
  -2   8  -5   66.67    1.84
   2  -8   5   64.69    1.87
   2  -8   5   64.47    1.75
  -3   8  -5  148.00    4.09
  -3   8  -5  139.37    3.91
   3  -8   5  148.35    3.93
   3  -8   5  146.86    3.83
  -4   8  -5    7.70    0.63
  -4   8  -5    9.02    0.54
   4  -8   5    8.67    0.58
   4  -8   5    9.50    0.65
   4  -8   5    8.37    0.43
  -5   8  -5   11.17    0.63
  -5   8  -5   11.42    0.75
   5  -8   5   10.79    0.74
   5  -8   5   11.23    0.49
  -6   8  -5    8.61    0.63
   6  -8   5    8.59    0.79
   6  -8   5    8.32    0.47
  -7   8  -5    1.08    0.43
   7  -8   5    1.05    0.27
   7  -8   5    0.79    0.57
  -8   8  -5   -0.14    0.44
   8  -8   5    0.00    0.57
   8  -8   5    0.19    0.34
   6   7  -5    0.30    0.56
   6   7  -5   -0.02    0.29
   6   7  -5    0.83    0.41
  -6  -7   5   -0.03    0.44
   5   7  -5    2.28    0.41
   5   7  -5    1.68    0.28
   5   7  -5    2.33    0.52
  -5  -7   5    2.18    0.43
  -5  -7   5    2.03    0.29
   4   7  -5    0.07    0.27
   4   7  -5    0.02    0.21
   4   7  -5   -0.13    0.38
  -4  -7   5   -0.01    0.19
  -4  -7   5    0.05    0.31
   3   7  -5   71.15    1.92
   3   7  -5   73.56    2.23
   3   7  -5   71.34    2.06
  -3  -7   5   69.17    2.06
   2   7  -5   59.20    1.71
   2   7  -5   56.56    1.56
   2   7  -5   59.68    1.86
  -2  -7   5   58.67    1.71
  -2  -7   5   56.99    1.58
   1   7  -5   33.07    1.05
   1   7  -5   32.43    1.19
  -1  -7   5   34.03    1.07
  -1  -7   5   32.15    0.93
   0   7  -5   11.87    0.69
   0  -7   5   11.40    0.54
   0  -7   5   10.48    0.38
  -1   7  -5   34.51    1.03
  -1   7  -5   34.71    1.26
   1  -7   5   34.50    1.09
   1  -7   5   34.55    0.96
  -2   7  -5    0.50    0.31
  -2   7  -5    0.80    0.21
   2  -7   5    0.66    0.22
   2  -7   5    0.78    0.16
  -3   7  -5    4.51    0.38
  -3   7  -5    5.38    0.51
   3  -7   5    4.07    0.39
   3  -7   5    4.06    0.32
   3  -7   5    3.80    0.48
  -4   7  -5   13.44    0.62
  -4   7  -5   13.13    0.71
   4  -7   5   13.31    0.65
   4  -7   5   12.50    0.69
   4  -7   5   12.43    0.52
  -5   7  -5   60.86    1.89
   5  -7   5   66.87    2.02
   5  -7   5   62.14    1.77
  -6   7  -5   53.14    1.41
  -6   7  -5   51.10    1.67
   6  -7   5   55.68    1.81
   6  -7   5   53.19    1.54
  -7   7  -5    1.47    0.45
  -7   7  -5    1.40    0.20
   7  -7   5    0.73    0.55
   7  -7   5    0.84    0.27
  -8   7  -5   11.95    0.52
  -8   7  -5   13.53    0.90
   8  -7   5   12.58    0.96
   8  -7   5   12.94    0.70
   7   6  -5   33.27    1.13
   7   6  -5   31.74    1.54
   6   6  -5    4.03    0.43
   6   6  -5    3.34    0.65
   6   6  -5    4.00    0.52
  -6  -6   5    4.21    0.55
   5   6  -5   16.52    0.64
   5   6  -5   17.24    0.93
   5   6  -5   16.47    0.73
  -5  -6   5   17.56    0.76
   4   6  -5   18.60    0.62
   4   6  -5   18.15    0.85
   4   6  -5   16.93    0.69
  -4  -6   5   16.73    0.72
   3   6  -5    6.94    0.58
   3   6  -5    6.40    0.44
   3   6  -5    6.43    0.35
  -3  -6   5    7.05    0.43
  -3  -6   5    6.00    0.32
   2   6  -5    5.31    0.53
   2   6  -5    5.58    0.30
   2   6  -5    5.26    0.36
  -2  -6   5    5.96    0.28
  -2  -6   5    5.88    0.37
   1   6  -5    7.10    0.28
   1   6  -5    6.95    0.49
   1   6  -5    7.03    0.24
   1   6  -5    7.39    0.39
  -1  -6   5    6.86    0.28
  -1  -6   5    7.21    0.41
   0   6  -5  125.52    3.28
   0   6  -5  124.26    3.46
   0  -6   5  126.06    3.34
   0  -6   5  122.24    3.24
  -1   6  -5   50.51    1.61
  -1   6  -5   50.88    1.45
   1  -6   5   51.26    1.38
   1  -6   5   51.07    1.48
  -2   6  -5    3.12    0.28
  -2   6  -5    3.65    0.43
   2  -6   5    2.33    0.31
   2  -6   5    3.35    0.26
  -3   6  -5   22.88    0.83
  -3   6  -5   24.79    0.66
  -3   6  -5   25.30    0.67
  -3   6  -5   26.18    0.98
   3  -6   5   24.40    0.78
   3  -6   5   24.87    0.97
   3  -6   5   23.51    0.85
  -4   6  -5   47.71    1.47
  -4   6  -5   46.83    1.28
  -4   6  -5   49.46    1.58
   4  -6   5   48.42    1.49
   4  -6   5   47.76    1.38
   4  -6   5   49.13    1.58
  -5   6  -5    1.85    0.17
  -5   6  -5    1.31    0.29
   5  -6   5    1.21    0.42
   5  -6   5    1.55    0.23
  -6   6  -5    0.34    0.16
  -6   6  -5    0.10    0.30
   6  -6   5    0.24    0.38
   6  -6   5    0.30    0.23
  -7   6  -5   19.57    0.66
  -7   6  -5   19.22    0.93
   7  -6   5   19.31    1.04
   7  -6   5   18.83    0.75
  -8   6  -5   24.25    0.84
  -8   6  -5   24.29    1.08
   8  -6   5   25.71    0.96
   8  -6   5   23.49    1.28
   8   5  -5    2.50    0.75
   8   5  -5    2.08    0.40
   7   5  -5    4.71    0.48
   7   5  -5    4.57    0.71
   6   5  -5   20.11    1.02
   6   5  -5   21.26    0.75
   6   5  -5   20.75    0.84
  -6  -5   5   20.23    0.83
   5   5  -5   28.06    1.12
   5   5  -5   26.72    0.88
   5   5  -5   28.40    0.95
  -5  -5   5   27.91    0.96
   4   5  -5    1.98    0.23
   4   5  -5    1.78    0.36
   4   5  -5    1.77    0.28
  -4  -5   5    1.80    0.21
  -4  -5   5    1.89    0.29
   3   5  -5    5.48    0.30
   3   5  -5    5.85    0.38
   3   5  -5    5.47    0.44
  -3  -5   5    5.29    0.29
  -3  -5   5    5.15    0.38
   2   5  -5   38.75    1.08
   2   5  -5   37.88    1.23
   2   5  -5   36.03    1.14
  -2  -5   5   39.49    1.07
  -2  -5   5   39.75    1.16
   1   5  -5    0.99    0.11
   1   5  -5    0.41    0.23
   1   5  -5    0.62    0.14
   1   5  -5    0.48    0.13
  -1  -5   5    0.62    0.11
  -1  -5   5    0.76    0.20
   0   5  -5    0.33    0.24
   0   5  -5    0.10    0.08
   0   5  -5    0.16    0.14
   0   5  -5    0.21    0.09
   0  -5   5    0.12    0.10
   0  -5   5    0.22    0.17
  -1   5  -5    2.20    0.14
  -1   5  -5    2.42    0.25
  -1   5  -5    2.57    0.14
  -1   5  -5    1.94    0.31
   1  -5   5    1.89    0.24
   1  -5   5    2.12    0.19
  -2   5  -5   46.93    1.39
  -2   5  -5   47.88    1.48
  -2   5  -5   48.31    1.26
  -2   5  -5   47.49    1.27
   2  -5   5   48.50    1.34
   2  -5   5   45.48    1.39
  -3   5  -5   77.25    2.12
  -3   5  -5   73.92    1.98
  -3   5  -5   71.29    2.17
   3  -5   5   73.34    2.18
   3  -5   5   77.71    2.06
   3  -5   5   76.74    2.14
  -4   5  -5   21.69    0.64
  -4   5  -5   21.77    0.80
  -4   5  -5   21.09    0.86
   4  -5   5   21.49    0.72
   4  -5   5   21.53    0.86
   4  -5   5   20.83    0.84
  -5   5  -5   37.52    1.05
  -5   5  -5   36.07    1.21
   5  -5   5   36.15    1.12
   5  -5   5   38.06    1.31
   5  -5   5   35.84    1.55
  -6   5  -5   11.09    0.66
  -6   5  -5   11.03    0.46
   6  -5   5   10.45    0.54
   6  -5   5   10.47    0.75
  -7   5  -5    1.00    0.25
  -7   5  -5    1.23    0.44
   7  -5   5    0.72    0.52
   7  -5   5    1.25    0.33
  -8   5  -5    0.22    0.43
  -8   5  -5    0.43    0.31
   8  -5   5   -0.05    0.62
   8   4  -5   12.84    1.04
   8   4  -5   11.69    0.68
   7   4  -5   19.13    1.03
   7   4  -5   19.40    0.75
   6   4  -5    8.19    0.46
   6   4  -5    7.47    0.68
  -6  -4   5    8.46    0.52
  -6  -4   5    8.37    0.50
   5   4  -5    8.13    0.56
   5   4  -5    9.03    0.47
   5   4  -5    8.31    0.41
  -5  -4   5    7.40    0.45
  -5  -4   5    8.49    0.41
   4   4  -5    8.39    0.43
   4   4  -5    9.00    0.39
   4   4  -5    8.78    0.55
  -4  -4   5    8.46    0.38
  -4  -4   5    8.72    0.44
   3   4  -5  126.88    3.39
   3   4  -5  132.57    3.45
   3   4  -5  125.15    3.51
  -3  -4   5  128.68    3.44
  -3  -4   5  132.65    3.38
   2   4  -5  162.62    4.43
   2   4  -5  170.39    4.31
   2   4  -5  164.48    4.31
  -2  -4   5  168.31    4.30
  -2  -4   5  163.04    4.36
   1   4  -5    0.04    0.18
   1   4  -5    0.16    0.12
   1   4  -5    0.19    0.12
   1   4  -5    0.11    0.09
  -1  -4   5    0.14    0.14
  -1  -4   5    0.22    0.10
   0   4  -5   76.21    2.05
   0   4  -5   79.32    1.98
   0   4  -5   74.16    2.00
   0   4  -5   73.22    2.13
   0  -4   5   73.96    2.07
   0  -4   5   75.10    2.00
  -1   4  -5   96.35    2.68
  -1   4  -5   98.30    2.61
  -1   4  -5   98.82    2.52
  -1   4  -5   94.99    2.52
   1  -4   5   93.28    2.61
   1  -4   5   95.10    2.55
  -2   4  -5    1.56    0.16
  -2   4  -5    1.86    0.25
  -2   4  -5    1.23    0.25
   2  -4   5    1.72    0.28
   2  -4   5    1.72    0.25
   2  -4   5    1.92    0.20
  -3   4  -5    0.72    0.22
  -3   4  -5    0.53    0.23
  -3   4  -5    0.58    0.13
   3  -4   5    0.58    0.17
   3  -4   5    0.64    0.25
   3  -4   5    1.00    0.27
  -4   4  -5   35.26    1.00
  -4   4  -5   35.77    1.14
   4  -4   5   33.48    1.16
   4  -4   5   35.21    1.19
   4  -4   5   34.31    1.06
  -5   4  -5   59.55    1.77
  -5   4  -5   57.95    1.62
   5  -4   5   58.14    1.82
   5  -4   5   55.86    1.66
   5  -4   5   61.04    1.78
  -6   4  -5   19.37    0.67
  -6   4  -5   17.89    0.81
   6  -4   5   18.11    0.92
   6  -4   5   18.59    0.72
  -7   4  -5    2.40    0.31
  -7   4  -5    2.50    0.47
   7  -4   5    1.98    0.55
  -8   4  -5   21.15    0.85
  -8   4  -5   21.22    1.07
   8  -4   5   19.96    1.17
   9   3  -5    5.27    0.62
   8   3  -5   34.37    1.13
   8   3  -5   32.99    1.35
   7   3  -5   20.90    0.96
   7   3  -5   22.05    0.78
   6   3  -5    1.31    0.35
   6   3  -5    1.41    0.23
   5   3  -5   69.62    2.09
   5   3  -5   72.22    1.97
   5   3  -5   69.04    1.94
  -5  -3   5   73.42    1.95
  -5  -3   5   70.85    1.98
   4   3  -5   38.28    1.10
   4   3  -5   37.90    1.22
  -4  -3   5   40.02    1.15
  -4  -3   5   39.14    1.10
   3   3  -5   16.25    0.53
   3   3  -5   16.03    0.57
   3   3  -5   15.27    0.61
  -3  -3   5   15.89    0.56
  -3  -3   5   16.54    0.53
  -3  -3   5   16.64    0.51
   2   3  -5   27.79    0.80
   2   3  -5   26.07    0.84
   2   3  -5   26.58    0.88
  -2  -3   5   27.65    0.79
  -2  -3   5   28.09    0.84
  -2  -3   5   28.45    0.79
   1   3  -5   17.24    0.56
   1   3  -5   16.87    0.63
   1   3  -5   17.25    0.59
  -1  -3   5   18.13    0.59
  -1  -3   5   17.87    0.55
  -1  -3   5   17.25    0.53
   0   3  -5   79.21    2.18
   0   3  -5   83.96    2.24
   0   3  -5   79.05    2.26
   0  -3   5   84.51    2.19
   0  -3   5   80.13    2.23
   0  -3   5   83.54    2.17
  -1   3  -5   19.25    0.62
  -1   3  -5   19.73    0.72
  -1   3  -5   21.57    0.71
   1  -3   5   21.50    0.68
   1  -3   5   20.32    0.71
   1  -3   5   21.08    0.66
  -2   3  -5   12.89    0.53
  -2   3  -5   13.72    0.53
  -2   3  -5   12.80    0.44
   2  -3   5   11.39    0.55
   2  -3   5   12.64    0.51
   2  -3   5   12.30    0.47
   2  -3   5   12.75    0.55
  -3   3  -5   73.00    2.14
  -3   3  -5   77.90    2.04
   3  -3   5   77.86    2.16
   3  -3   5   75.10    2.07
   3  -3   5   75.47    2.18
  -4   3  -5   35.05    1.02
  -4   3  -5   32.77    1.13
   4  -3   5   35.96    1.06
   4  -3   5   34.50    1.15
   4  -3   5   35.99    1.17
  -5   3  -5    0.72    0.20
  -5   3  -5    0.78    0.33
   5  -3   5    0.60    0.34
   5  -3   5    0.83    0.24
   5  -3   5    0.33    0.33
  -6   3  -5    0.63    0.37
  -6   3  -5    0.49    0.25
   6  -3   5   -0.03    0.37
  -7   3  -5   34.37    1.12
  -7   3  -5   34.91    1.29
   7  -3   5   33.16    1.35
  -8   3  -5   17.97    0.99
  -8   3  -5   17.13    0.81
   8  -3   5   17.10    1.12
   9   2  -5    9.99    0.96
   8   2  -5    6.84    0.54
   8   2  -5    6.22    0.74
   7   2  -5    6.89    0.65
   7   2  -5    7.55    0.47
   6   2  -5   26.69    0.82
   6   2  -5   24.72    0.96
   5   2  -5   57.44    1.60
   5   2  -5   57.99    1.73
  -5  -2   5   57.48    1.62
  -5  -2   5   58.68    1.61
  -5  -2   5   57.72    1.60
   4   2  -5   28.59    0.97
   4   2  -5   31.00    0.92
   4   2  -5   29.51    0.87
   4   2  -5   30.86    0.97
  -4  -2   5   30.55    0.87
  -4  -2   5   30.80    0.91
  -4  -2   5   28.91    0.88
   3   2  -5   48.97    1.40
   3   2  -5   47.18    1.38
   3   2  -5   47.05    1.33
   3   2  -5   49.33    1.34
  -3  -2   5   50.19    1.33
  -3  -2   5   48.23    1.32
  -3  -2   5   47.49    1.36
   2   2  -5  138.75    3.86
   2   2  -5  149.63    3.82
   2   2  -5  144.85    3.88
   2   2  -5  148.30    3.81
  -2  -2   5  148.77    3.85
  -2  -2   5  141.35    3.79
  -2  -2   5  151.01    3.81
   1   2  -5   94.94    2.48
   1   2  -5   90.19    2.51
   1   2  -5   90.56    2.47
   1   2  -5   93.88    2.54
  -1  -2   5   94.25    2.51
  -1  -2   5   93.74    2.47
  -1  -2   5   94.30    2.46
   0   2  -5    1.85    0.19
   0   2  -5    2.03    0.24
   0   2  -5    2.25    0.24
   0   2  -5    1.95    0.25
   0  -2   5    1.77    0.20
   0  -2   5    1.94    0.20
   0  -2   5    2.13    0.23
  -1   2  -5   45.75    1.32
  -1   2  -5   49.04    1.41
  -1   2  -5   49.60    1.38
  -1   2  -5   47.83    1.32
   1  -2   5   45.74    1.33
   1  -2   5   46.85    1.34
  -2   2  -5   92.73    2.46
  -2   2  -5   92.14    2.52
  -2   2  -5   93.68    2.56
  -2   2  -5   93.00    2.46
   2  -2   5   91.38    2.48
   2  -2   5   87.55    2.48
   2  -2   5   92.93    2.57
   2  -2   5   93.46    2.52
  -3   2  -5   44.86    1.41
  -3   2  -5   45.57    1.30
   3  -2   5   44.80    1.42
   3  -2   5   47.05    1.33
   3  -2   5   48.95    1.35
   3  -2   5   45.19    1.38
  -4   2  -5    3.57    0.43
  -4   2  -5    3.16    0.30
   4  -2   5    2.04    0.34
   4  -2   5    2.80    0.28
   4  -2   5    2.14    0.33
  -5   2  -5   45.20    1.48
  -5   2  -5   45.35    1.34
   5  -2   5   45.04    1.49
   5  -2   5   46.90    1.45
  -6   2  -5   22.18    0.95
  -6   2  -5   20.52    0.80
   6  -2   5   23.60    1.00
  -7   2  -5    4.29    0.54
  -7   2  -5    4.71    0.52
   7  -2   5    4.49    0.64
  -8   2  -5    2.55    0.46
   9   1  -5    0.98    0.59
   8   1  -5   43.47    1.55
   7   1  -5   59.83    1.68
   7   1  -5   56.75    1.82
  -7  -1   5   59.52    1.69
   6   1  -5   26.75    0.95
   6   1  -5   26.67    0.82
  -6  -1   5   25.12    0.83
   5   1  -5    3.74    0.29
   5   1  -5    3.62    0.26
   5   1  -5    4.05    0.33
   5   1  -5    4.10    0.39
  -5  -1   5    3.88    0.29
  -5  -1   5    3.50    0.28
  -5  -1   5    3.40    0.28
   4   1  -5   46.00    1.27
   4   1  -5   44.77    1.23
   4   1  -5   40.63    1.28
   4   1  -5   43.05    1.22
  -4  -1   5   44.33    1.23
  -4  -1   5   44.72    1.22
  -4  -1   5   42.93    1.24
   3   1  -5  202.88    5.14
   3   1  -5  197.65    5.13
   3   1  -5  200.45    5.19
   3   1  -5  196.47    5.18
  -3  -1   5  194.79    5.16
  -3  -1   5  195.39    5.13
  -3  -1   5  199.36    5.12
   2   1  -5    1.48    0.20
   2   1  -5    1.60    0.18
   2   1  -5    1.45    0.21
  -2  -1   5    1.84    0.17
  -2  -1   5    1.67    0.19
  -2  -1   5    1.61    0.22
   1   1  -5  117.69    3.12
   1   1  -5  118.63    3.13
   1   1  -5  119.61    3.12
   1   1  -5  119.80    3.21
  -1  -1   5  118.49    3.11
  -1  -1   5  116.80    3.17
  -1  -1   5  117.94    3.12
   0   1  -5  249.23    6.52
   0   1  -5  252.43    6.45
   0   1  -5  241.05    6.43
   0   1  -5  263.43    6.44
   0  -1   5  246.07    6.44
   0  -1   5  248.14    6.43
   0  -1   5  237.96    6.50
  -1   1  -5  123.72    3.45
  -1   1  -5  125.47    3.36
  -1   1  -5  127.47    3.36
  -1   1  -5  129.23    3.37
   1  -1   5  126.26    3.37
   1  -1   5  128.80    3.36
   1  -1   5  125.37    3.36
   1  -1   5  131.58    3.46
  -2   1  -5    0.04    0.14
  -2   1  -5    0.10    0.15
  -2   1  -5    0.53    0.21
   2  -1   5    0.18    0.21
   2  -1   5    0.21    0.14
   2  -1   5    0.20    0.14
   2  -1   5    0.46    0.20
  -3   1  -5    0.11    0.21
  -3   1  -5    0.13    0.16
   3  -1   5    0.01    0.18
   3  -1   5   -0.02    0.24
   3  -1   5    0.33    0.19
   3  -1   5    0.18    0.23
  -4   1  -5    9.09    0.56
  -4   1  -5    9.35    0.45
   4  -1   5    7.88    0.53
   4  -1   5    8.46    0.55
  -5   1  -5   22.68    0.93
  -5   1  -5   23.99    0.83
   5  -1   5   23.58    0.94
   5  -1   5   23.30    0.94
  -6   1  -5    4.83    0.60
  -6   1  -5    5.08    0.50
   6  -1   5    4.93    0.66
  -7   1  -5    8.47    0.63
  10   0  -5    0.86    0.70
 -10   0   5    0.83    0.44
   9   0  -5    4.71    0.66
  -9   0   5    4.56    0.45
   8   0  -5    6.09    0.66
  -8   0   5    5.96    0.49
   7   0  -5    3.01    0.43
  -7   0   5    1.95    0.27
   6   0  -5    5.48    0.38
   6   0  -5    5.52    0.36
   6   0  -5    5.48    0.34
   6   0  -5    6.40    0.48
  -6   0   5    5.98    0.35
   5   0  -5  139.76    3.61
   5   0  -5  138.07    3.65
   5   0  -5  138.63    3.60
   5   0  -5  133.30    3.68
  -5   0   5  138.14    3.61
  -5   0   5  134.98    3.60
   4   0  -5   86.11    2.44
   4   0  -5   91.33    2.40
   4   0  -5   90.43    2.39
   4   0  -5   91.98    2.45
  -4   0   5   90.39    2.40
  -4   0   5   90.71    2.42
  -4   0   5   91.55    2.41
   3   0  -5    4.88    0.25
   3   0  -5    5.12    0.26
   3   0  -5    5.70    0.33
   3   0  -5    5.33    0.28
  -3   0   5    5.48    0.31
  -3   0   5    4.79    0.26
  -3   0   5    5.85    0.27
   2   0  -5    0.05    0.11
   2   0  -5    0.03    0.12
   2   0  -5    0.17    0.17
   2   0  -5    0.31    0.13
  -2   0   5    0.16    0.10
  -2   0   5    0.14    0.11
  -2   0   5    0.24    0.16
   1   0  -5    0.32    0.13
   1   0  -5    0.53    0.20
   1   0  -5    0.34    0.15
   1   0  -5    0.47    0.14
  -1   0   5    0.25    0.13
  -1   0   5    0.47    0.13
  -1   0   5    0.50    0.20
   0   0  -5  139.10    3.58
   0   0  -5  137.20    3.61
   0   0  -5  135.14    3.70
   0   0   5  137.26    3.61
   0   0   5  136.35    3.60
  -1   0  -5    2.48    0.31
  -1   0  -5    2.67    0.25
  -1   0  -5    2.94    0.26
   1   0   5    2.80    0.24
   1   0   5    2.60    0.33
   1   0   5    2.32    0.24
   1   0   5    2.49    0.24
  -2   0  -5   78.34    2.09
  -2   0  -5   75.19    2.19
  -2   0  -5   75.12    2.08
   2   0   5   73.43    2.17
   2   0   5   76.12    2.08
   2   0   5   79.28    2.09
   2   0   5   76.10    2.08
  -3   0  -5   62.83    1.88
  -3   0  -5   62.35    1.76
   3   0   5   64.35    1.76
   3   0   5   63.15    1.86
   3   0   5   62.21    1.80
  -4   0  -5   23.93    0.95
  -4   0  -5   24.37    0.84
   4   0   5   26.31    0.94
   4   0   5   23.67    0.92
   4   0   5   25.83    0.85
  -5   0  -5    0.59    0.37
  -5   0  -5    0.32    0.26
   5   0   5    0.34    0.36
  10  -1  -5   17.74    1.03
 -10   1   5   16.55    0.84
   9  -1  -5   10.54    0.76
  -9   1   5   11.21    0.63
   8  -1  -5    3.10    0.48
  -8   1   5    2.87    0.33
   7  -1  -5   -0.07    0.19
   7  -1  -5    0.25    0.29
   7  -1  -5   -0.11    0.26
  -7   1   5    0.26    0.20
   6  -1  -5   21.37    0.76
   6  -1  -5   21.05    0.70
   6  -1  -5   21.88    0.80
  -6   1   5   21.18    0.70
   5  -1  -5   26.75    0.85
   5  -1  -5   25.85    0.78
   5  -1  -5   27.16    0.79
   5  -1  -5   25.41    0.85
  -5   1   5   25.53    0.85
  -5   1   5   26.23    0.80
   4  -1  -5    0.39    0.16
   4  -1  -5    0.65    0.13
   4  -1  -5    1.12    0.21
   4  -1  -5    0.90    0.15
  -4   1   5    0.76    0.15
  -4   1   5    0.85    0.15
  -4   1   5    1.35    0.21
   3  -1  -5  122.40    3.15
   3  -1  -5  120.71    3.15
   3  -1  -5  117.40    3.21
   3  -1  -5  119.91    3.14
  -3   1   5  117.33    3.15
  -3   1   5  120.43    3.21
  -3   1   5  120.97    3.15
   2  -1  -5  263.33    6.53
   2  -1  -5  252.68    6.56
   2  -1  -5  247.98    6.64
   2  -1  -5  258.76    6.56
  -2   1   5  243.73    6.57
  -2   1   5  258.57    6.64
  -2   1   5  252.16    6.56
   1  -1  -5   70.52    2.03
   1  -1  -5   72.33    1.94
   1  -1  -5   73.60    1.89
   1  -1  -5   71.77    1.94
  -1   1   5   73.32    1.93
  -1   1   5   71.05    1.93
  -1   1   5   66.82    2.00
   0  -1  -5    9.68    0.40
   0  -1  -5    8.97    0.40
   0  -1  -5    8.58    0.47
   0   1   5    9.55    0.33
   0   1   5    9.56    0.46
   0   1   5    9.56    0.39
   0   1   5    8.72    0.37
  -1  -1  -5    4.74    0.31
  -1  -1  -5    3.42    0.39
  -1  -1  -5    4.59    0.32
   1   1   5    4.10    0.26
   1   1   5    4.64    0.29
   1   1   5    4.08    0.28
   1   1   5    3.62    0.33
  -2  -1  -5   10.33    0.46
  -2  -1  -5   10.48    0.46
  -2  -1  -5   10.34    0.57
   2   1   5   10.50    0.45
   2   1   5    9.56    0.43
   2   1   5   10.46    0.55
  -3  -1  -5    3.44    0.35
  -3  -1  -5    3.35    0.44
  -3  -1  -5    4.46    0.52
   3   1   5    4.51    0.34
   3   1   5    3.57    0.44
  -4  -1  -5   28.44    1.06
   4   1   5   27.89    1.04
   4   1   5   28.23    0.93
  -5  -1  -5   69.95    2.15
   5   1   5   72.00    2.13
   5   1   5   69.51    2.01
  10  -2  -5    0.69    0.52
 -10   2   5    0.64    0.35
   9  -2  -5    5.92    0.61
  -9   2   5    4.24    0.47
   8  -2  -5   33.09    1.20
   8  -2  -5   34.43    1.16
  -8   2   5   32.68    1.07
  -8   2   5   36.44    1.18
   7  -2  -5   29.69    0.91
   7  -2  -5   29.03    0.99
   7  -2  -5   28.58    1.01
  -7   2   5   29.09    0.91
  -7   2   5   28.43    1.01
   6  -2  -5    3.85    0.29
   6  -2  -5    3.16    0.33
   6  -2  -5    4.32    0.37
  -6   2   5    3.32    0.30
   5  -2  -5   -0.05    0.18
   5  -2  -5    0.15    0.14
   5  -2  -5    0.03    0.17
  -5   2   5   -0.03    0.13
   4  -2  -5    1.49    0.22
   4  -2  -5    1.10    0.24
   4  -2  -5    1.61    0.17
   4  -2  -5    1.93    0.22
  -4   2   5    1.67    0.17
  -4   2   5    1.35    0.22
   3  -2  -5   47.53    1.29
   3  -2  -5   44.87    1.36
   3  -2  -5   47.09    1.29
   3  -2  -5   46.55    1.27
  -3   2   5   47.88    1.30
  -3   2   5   45.34    1.34
   2  -2  -5    3.74    0.25
   2  -2  -5    3.18    0.29
   2  -2  -5    3.09    0.26
   2  -2  -5    3.67    0.18
  -2   2   5    2.85    0.23
  -2   2   5    3.37    0.30
   1  -2  -5   58.93    1.72
   1  -2  -5   58.82    1.63
   1  -2  -5   58.88    1.62
  -1   2   5   58.69    1.68
  -1   2   5   56.10    1.59
   0  -2  -5  142.42    3.63
   0  -2  -5  139.67    3.62
   0  -2  -5  135.10    3.73
   0   2   5  130.97    3.59
   0   2   5  135.87    3.68
  -1  -2  -5   50.46    1.40
  -1  -2  -5   50.20    1.52
   1   2   5   46.58    1.36
   1   2   5   48.00    1.47
  -2  -2  -5    5.62    0.38
  -2  -2  -5    5.44    0.48
   2   2   5    6.09    0.35
   2   2   5    6.41    0.48
  -3  -2  -5    4.06    0.39
  -3  -2  -5    3.95    0.53
   3   2   5    4.56    0.36
   3   2   5    4.67    0.49
  -4  -2  -5    4.14    0.55
   4   2   5    4.30    0.53
   4   2   5    4.81    0.43
   5   2   5    3.64    0.52
   6   2   5    1.13    0.38
  10  -3  -5    3.34    0.64
 -10   3   5    3.77    0.42
   9  -3  -5    0.77    0.27
   9  -3  -5    1.34    0.42
   9  -3  -5    0.44    0.45
  -9   3   5    0.51    0.41
  -9   3   5    0.50    0.29
   8  -3  -5   10.94    0.66
   8  -3  -5   11.20    0.63
   8  -3  -5    9.12    0.48
  -8   3   5   10.84    0.53
  -8   3   5   10.88    0.63
   7  -3  -5    0.53    0.29
   7  -3  -5    0.35    0.20
   7  -3  -5    0.34    0.29
  -7   3   5    0.27    0.19
  -7   3   5    0.20    0.25
   6  -3  -5   17.39    0.61
   6  -3  -5   17.94    0.67
   6  -3  -5   18.06    0.71
  -6   3   5   18.28    0.62
   5  -3  -5  115.06    3.11
   5  -3  -5  117.15    3.18
   5  -3  -5  118.58    3.07
  -5   3   5  115.55    3.08
   4  -3  -5   60.08    1.63
   4  -3  -5   59.42    1.72
   4  -3  -5   62.84    1.64
  -4   3   5   58.56    1.64
  -4   3   5   58.61    1.65
   3  -3  -5    4.68    0.22
   3  -3  -5    4.51    0.36
   3  -3  -5    4.59    0.26
  -3   3   5    4.08    0.26
  -3   3   5    5.33    0.32
   2  -3  -5    1.56    0.25
   2  -3  -5    2.05    0.23
  -2   3   5    1.68    0.17
  -2   3   5    2.10    0.28
   1  -3  -5    0.59    0.16
   1  -3  -5    0.77    0.27
  -1   3   5    0.70    0.14
  -1   3   5    0.97    0.24
   0  -3  -5    5.84    0.47
   0  -3  -5    6.69    0.37
   0   3   5    6.31    0.30
   0   3   5    6.30    0.42
  -1  -3  -5    0.18    0.19
  -1  -3  -5    0.50    0.30
   1   3   5    0.00    0.23
   1   3   5    0.32    0.16
  -2  -3  -5  120.83    3.35
  -2  -3  -5  132.44    3.49
   2   3   5  127.44    3.31
   2   3   5  118.20    3.42
  -3  -3  -5   52.86    1.67
  -3  -3  -5   50.36    1.54
   3   3   5   53.36    1.64
   3   3   5   51.52    1.50
   4   3   5    5.87    0.61
   5   3   5    8.08    0.70
   5   3   5    6.77    0.54
   6   3   5    0.71    0.41
  10  -4  -5   11.34    0.89
 -10   4   5   13.21    0.67
   9  -4  -5   11.51    0.74
   9  -4  -5   10.21    0.75
   9  -4  -5   10.79    0.55
  -9   4   5   12.10    0.74
  -9   4   5   11.31    0.55
   8  -4  -5    0.70    0.36
   8  -4  -5    0.38    0.34
   8  -4  -5    0.46    0.22
  -8   4   5    0.30    0.22
  -8   4   5    0.39    0.33
   7  -4  -5    0.12    0.29
   7  -4  -5    0.09    0.19
   7  -4  -5    0.14    0.31
  -7   4   5    0.08    0.31
  -7   4   5    0.27    0.19
   6  -4  -5    1.59    0.32
   6  -4  -5    1.10    0.25
   6  -4  -5    0.85    0.17
  -6   4   5    1.19    0.20
   5  -4  -5    0.87    0.24
   5  -4  -5    1.07    0.21
   5  -4  -5    1.05    0.16
  -5   4   5    0.92    0.17
   4  -4  -5   21.24    0.67
   4  -4  -5   21.92    0.80
  -4   4   5   22.08    0.70
  -4   4   5   22.15    0.67
   3  -4  -5  114.55    2.98
   3  -4  -5  113.96    3.10
  -3   4   5  114.46    3.03
  -3   4   5  109.00    2.95
   2  -4  -5  111.94    3.09
   2  -4  -5  110.05    2.97
  -2   4   5  114.73    3.03
  -2   4   5  110.30    2.92
   1  -4  -5    1.08    0.30
   1  -4  -5    0.80    0.19
  -1   4   5    0.81    0.14
  -1   4   5    0.90    0.25
   0  -4  -5   33.90    1.22
   0  -4  -5   36.55    1.10
   0   4   5   37.19    1.03
   0   4   5   37.42    1.18
  -1  -4  -5    2.79    0.41
  -1  -4  -5    3.22    0.36
   1   4   5    3.63    0.44
   1   4   5    2.98    0.27
  -2  -4  -5   24.43    0.98
  -2  -4  -5   21.24    0.82
   2   4   5   22.62    0.89
   2   4   5   23.25    0.75
  -3  -4  -5    0.56    0.29
   3   4   5    0.37    0.23
   3   4   5    0.70    0.41
   4   4   5   22.15    1.00
   4   4   5   22.64    0.83
   5   4   5   32.99    1.13
   5   4   5   31.45    1.30
  10  -5  -5    0.23    0.50
  10  -5  -5   -0.17    0.48
  10  -5  -5   -0.03    0.27
 -10   5   5   -0.31    0.28
 -10   5   5    0.47    0.52
   9  -5  -5   15.66    0.85
   9  -5  -5   16.22    0.67
   9  -5  -5   16.53    0.85
  -9   5   5   16.62    0.88
  -9   5   5   15.73    0.65
   8  -5  -5   62.65    1.80
   8  -5  -5   64.86    1.98
   8  -5  -5   66.78    1.93
  -8   5   5   62.95    1.78
   7  -5  -5   15.27    0.56
   7  -5  -5   14.50    0.67
   7  -5  -5   13.57    0.67
  -7   5   5   14.03    0.53
  -7   5   5   13.52    0.68
   6  -5  -5    0.04    0.22
   6  -5  -5    0.17    0.16
   6  -5  -5   -0.06    0.27
  -6   5   5    0.04    0.16
   5  -5  -5   15.19    0.51
   5  -5  -5   13.28    0.63
  -5   5   5   15.14    0.48
   4  -5  -5    4.72    0.43
   4  -5  -5    4.41    0.28
  -4   5   5    3.67    0.31
  -4   5   5    3.99    0.19
  -4   5   5    4.71    0.23
   3  -5  -5    4.35    0.43
   3  -5  -5    4.04    0.29
  -3   5   5    4.37    0.20
  -3   5   5    3.80    0.32
  -3   5   5    4.21    0.19
   2  -5  -5    0.24    0.18
   2  -5  -5    0.19    0.29
  -2   5   5    0.32    0.10
  -2   5   5    0.04    0.21
   1  -5  -5   25.61    0.99
   1  -5  -5   25.69    0.84
  -1   5   5   26.21    0.91
  -1   5   5   25.70    0.74
   0  -5  -5   85.04    2.50
   0  -5  -5   82.75    2.34
   0   5   5   86.57    2.43
   0   5   5   85.81    2.25
  -1  -5  -5   49.43    1.61
  -1  -5  -5   48.22    1.46
   1   5   5   49.85    1.56
  -2  -5  -5    0.17    0.25
   2   5   5    0.03    0.31
   2   5   5    0.00    0.18
  -3  -5  -5   11.59    0.64
   3   5   5   11.63    0.76
   3   5   5   12.12    0.55
   4   5   5    1.16    0.33
   4   5   5    0.73    0.47
  10  -6  -5   10.28    0.87
  10  -6  -5    9.59    0.84
  10  -6  -5    9.95    0.64
 -10   6   5    9.74    0.87
 -10   6   5    9.81    0.55
   9  -6  -5    1.48    0.45
   9  -6  -5    0.35    0.40
   9  -6  -5    0.89    0.28
  -9   6   5    0.80    0.47
  -9   6   5    0.54    0.25
   8  -6  -5    2.98    0.52
   8  -6  -5    2.76    0.48
   8  -6  -5    3.41    0.37
  -8   6   5    2.95    0.30
  -8   6   5    2.12    0.42
   7  -6  -5    9.42    0.44
   7  -6  -5    9.57    0.64
   6  -6  -5   32.57    1.14
   6  -6  -5   33.29    0.98
   5  -6  -5   65.70    1.96
   5  -6  -5   66.42    1.80
   4  -6  -5   11.44    0.62
   4  -6  -5   11.17    0.45
  -4   6   5   10.97    0.49
   3  -6  -5   19.46    0.66
   3  -6  -5   18.87    0.78
  -3   6   5   19.48    0.71
   2  -6  -5   16.89    0.75
   2  -6  -5   16.54    0.62
  -2   6   5   16.98    0.69
   1  -6  -5   14.11    0.57
   1  -6  -5   14.27    0.75
  -1   6   5   12.87    0.41
  -1   6   5   14.14    0.66
   0  -6  -5    1.84    0.45
   0  -6  -5    1.48    0.27
   0   6   5    1.82    0.17
   0   6   5    1.54    0.34
  -1  -6  -5   18.56    0.75
   1   6   5   20.25    0.63
   1   6   5   19.43    0.83
  -2  -6  -5   57.31    1.69
   2   6   5   53.04    1.78
   2   6   5   58.02    1.58
  -3  -6  -5   14.52    0.73
   3   6   5   14.30    0.60
   3   6   5   13.76    0.82
  10  -7  -5   17.62    1.08
  10  -7  -5   17.62    0.80
   9  -7  -5    0.07    0.28
   9  -7  -5    0.05    0.49
  -9   7   5    0.23    0.46
   8  -7  -5   12.03    0.54
   8  -7  -5   11.45    0.71
  -8   7   5   10.60    0.72
   7  -7  -5   24.79    1.03
   7  -7  -5   25.68    0.82
   6  -7  -5    0.27    0.18
   6  -7  -5   -0.38    0.33
   5  -7  -5    1.53    0.21
   5  -7  -5    1.28    0.38
   4  -7  -5   25.99    1.03
   4  -7  -5   25.75    0.84
  -4   7   5   28.12    0.90
   3  -7  -5   52.38    1.63
   3  -7  -5   49.77    1.45
  -3   7   5   48.90    1.50
   2  -7  -5   14.10    0.77
   2  -7  -5   15.24    0.60
  -2   7   5   14.80    0.68
   1  -7  -5    6.51    0.44
   1  -7  -5    6.61    0.65
  -1   7   5    6.43    0.54
   0  -7  -5   23.55    0.87
   0   7   5   24.98    0.99
  -1  -7  -5    2.91    0.37
   1   7   5    1.87    0.41
   1   7   5    2.49    0.26
  -2  -7  -5    0.31    0.32
   2   7   5    0.06    0.21
   2   7   5   -0.13    0.48
  -3  -7  -5    0.86    0.40
   3   7   5    0.22    0.91
   3   7   5    0.19    0.28
   9  -8  -5   10.83    0.59
   9  -8  -5   10.49    0.87
  -9   8   5   11.00    0.83
   8  -8  -5   44.95    1.35
   8  -8  -5   46.36    1.62
   7  -8  -5    7.93    0.69
   7  -8  -5    7.47    0.42
   6  -8  -5    8.46    0.67
   6  -8  -5    8.77    0.43
   5  -8  -5   32.17    1.20
   5  -8  -5   34.09    1.02
   4  -8  -5   28.40    1.11
   4  -8  -5   27.16    0.90
  -4   8   5   27.78    1.22
   3  -8  -5    0.37    0.39
   3  -8  -5    0.38    0.22
  -3   8   5    0.38    0.31
   2  -8  -5    0.27    0.24
   2  -8  -5    0.67    0.44
  -2   8   5    0.81    0.36
   1  -8  -5   32.01    1.04
  -1   8   5   31.62    1.18
   0  -8  -5   21.45    0.85
   0   8   5   24.49    1.03
  -1  -8  -5    3.07    0.40
   1   8   5    2.78    0.55
  -2  -8  -5   18.60    0.85
   9  -9  -5    5.08    0.50
   9  -9  -5    3.67    0.60
   8  -9  -5    0.97    0.26
   8  -9  -5    0.93    0.53
   7  -9  -5   10.39    0.52
   7  -9  -5    9.71    0.73
   6  -9  -5   16.22    0.90
   6  -9  -5   14.47    0.61
   5  -9  -5   14.91    0.61
   5  -9  -5   13.63    0.84
   4  -9  -5    1.05    0.42
   4  -9  -5    0.89    0.26
   3  -9  -5   28.53    0.97
   3  -9  -5   30.47    1.23
  -3   9   5   28.71    1.07
   2  -9  -5    8.29    0.51
  -2   9   5    9.33    0.66
   1  -9  -5    1.23    0.31
  -1   9   5    0.62    0.43
   0  -9  -5    0.02    0.32
   0   9   5    0.15    0.50
   8 -10  -5   16.96    0.73
   8 -10  -5   16.41    1.07
   7 -10  -5   16.03    0.94
   7 -10  -5   15.50    0.68
   6 -10  -5   -0.19    0.49
   6 -10  -5    0.41    0.27
   5 -10  -5    1.00    0.55
   5 -10  -5    0.87    0.30
   4 -10  -5    8.37    0.53
   4 -10  -5    8.38    0.81
   3 -10  -5   33.18    1.10
  -3  10   5   33.94    1.24
   2 -10  -5    3.43    0.38
  -2  10   5    1.70    0.48
   1 -10  -5    6.12    0.55
  -1  10   5    7.63    0.79
   7 -11  -5    1.72    0.68
   6 -11  -5   13.33    1.04
   6 -11  -5   11.46    0.65
   5 -11  -5   21.31    0.85
   5 -11  -5   22.32    1.21
   4 -11  -5    2.30    0.37
  -3  11   5    0.92    0.51
  -1  13  -6   19.36    1.49
   1 -13   6   19.44    1.51
  -2  13  -6    4.16    0.93
   2 -13   6    4.69    0.64
   2 -13   6    5.24    0.44
  -3  13  -6   15.81    1.19
   3 -13   6   17.91    1.01
   3 -13   6   15.46    0.68
  -4  13  -6   17.14    1.50
   4 -13   6   18.79    1.40
   4 -13   6   20.08    0.80
   1  12  -6   15.12    1.39
   1  12  -6   14.33    1.01
  -1 -12   6   13.68    0.60
  -1 -12   6   15.31    0.88
   0  12  -6    1.08    0.83
   0 -12   6    1.19    0.53
   0 -12   6    0.98    0.25
  -1  12  -6   -0.02    0.73
   1 -12   6   -0.25    0.22
   1 -12   6   -0.50    0.43
  -2  12  -6    5.99    0.87
   2 -12   6    6.11    0.71
   2 -12   6    6.62    0.42
  -3  12  -6   26.37    1.43
   3 -12   6   27.59    0.93
   3 -12   6   30.36    1.18
  -4  12  -6   19.57    1.27
   4 -12   6   18.50    1.19
   4 -12   6   19.31    0.74
  -5  12  -6    0.06    0.48
  -5  12  -6   -0.27    0.68
   5 -12   6    0.14    0.28
   5 -12   6   -0.37    0.65
  -6  12  -6   13.15    0.93
   3  11  -6    1.76    0.88
   2  11  -6   24.96    1.47
   2  11  -6   27.21    1.16
  -2 -11   6   26.21    0.88
  -2 -11   6   25.56    1.14
   1  11  -6    7.11    0.90
   1  11  -6    6.82    0.62
  -1 -11   6    7.84    0.72
  -1 -11   6    8.57    0.43
   0  11  -6    2.11    0.71
   0 -11   6    1.68    0.23
   0 -11   6    1.66    0.47
  -1  11  -6   36.28    1.59
   1 -11   6   36.70    1.32
   1 -11   6   36.55    1.07
  -2  11  -6   39.17    1.66
   2 -11   6   42.34    1.20
   2 -11   6   41.62    1.39
  -3  11  -6    3.13    0.69
   3 -11   6    3.24    0.50
   3 -11   6    3.25    0.38
  -4  11  -6    0.28    0.38
  -4  11  -6    0.40    0.60
   4 -11   6    0.22    0.26
   4 -11   6    0.84    0.58
  -5  11  -6   12.25    0.76
  -5  11  -6   11.21    1.04
   5 -11   6   12.33    1.01
   5 -11   6   11.05    0.57
  -6  11  -6   13.31    0.85
   6 -11   6   11.24    0.59
   4  10  -6   28.74    1.21
   4  10  -6   28.70    1.61
  -4 -10   6   28.33    1.23
  -4 -10   6   27.38    0.99
   3  10  -6   13.41    1.17
   3  10  -6   12.99    0.81
  -3 -10   6   10.71    0.80
  -3 -10   6   11.52    0.56
   2  10  -6   -0.16    0.60
   2  10  -6    0.45    0.42
  -2 -10   6    0.22    0.21
  -2 -10   6    0.17    0.39
   1  10  -6    0.13    0.36
   1  10  -6    0.05    0.57
  -1 -10   6    0.09    0.38
  -1 -10   6   -0.02    0.18
   0  10  -6   19.05    1.11
   0 -10   6   19.43    0.83
   0 -10   6   17.89    0.62
  -1  10  -6   30.45    1.35
   1 -10   6   32.63    0.95
   1 -10   6   32.88    1.17
  -2  10  -6    0.44    0.51
   2 -10   6    0.32    0.34
   2 -10   6    0.58    0.19
  -3  10  -6   40.54    1.33
  -3  10  -6   41.51    1.59
   3 -10   6   42.49    1.39
   3 -10   6   40.77    1.22
  -4  10  -6   16.48    0.80
  -4  10  -6   19.07    1.07
   4 -10   6   18.18    0.86
   4 -10   6   18.47    1.04
   4 -10   6   17.76    0.68
  -5  10  -6    6.08    0.62
  -5  10  -6    7.01    0.88
   5 -10   6    7.92    0.88
   5 -10   6    7.28    0.48
  -6  10  -6   -0.14    0.43
   6 -10   6   -0.39    0.51
   6 -10   6   -0.04    0.26
  -7  10  -6    1.31    0.50
   7 -10   6    1.08    0.71
   7 -10   6    1.07    0.32
   5   9  -6    9.37    0.80
   5   9  -6    7.98    0.51
   5   9  -6    8.15    1.03
  -5  -9   6    7.78    0.80
  -5  -9   6    8.76    0.63
   4   9  -6   17.61    0.88
   4   9  -6   15.31    1.07
  -4  -9   6   16.04    0.69
  -4  -9   6   16.75    0.89
   3   9  -6    1.29    0.37
   3   9  -6    2.17    0.65
  -3  -9   6    1.93    0.43
  -3  -9   6    1.77    0.26
   2   9  -6   29.61    1.29
   2   9  -6   31.97    1.12
  -2  -9   6   29.84    0.92
  -2  -9   6   29.06    1.08
   1   9  -6   59.44    2.02
  -1  -9   6   58.90    1.63
  -1  -9   6   60.11    1.82
   0   9  -6    1.93    0.49
   0  -9   6    2.26    0.21
   0  -9   6    2.20    0.40
  -1   9  -6    0.22    0.46
   1  -9   6    0.15    0.15
   1  -9   6    0.03    0.32
  -2   9  -6    2.89    0.41
  -2   9  -6    2.96    0.56
   2  -9   6    3.74    0.44
   2  -9   6    3.40    0.31
  -3   9  -6   17.86    0.75
  -3   9  -6   17.91    0.97
   3  -9   6   19.80    0.83
   3  -9   6   17.14    0.66
  -4   9  -6    9.15    0.74
  -4   9  -6    8.94    0.60
   4  -9   6   10.99    0.68
   4  -9   6    9.83    0.50
   4  -9   6    8.75    0.72
  -5   9  -6    6.47    0.72
  -5   9  -6    4.74    0.55
   5  -9   6    4.46    0.41
   5  -9   6    5.99    0.71
  -6   9  -6   41.57    1.48
   6  -9   6   42.54    1.33
   6  -9   6   47.50    1.70
  -7   9  -6   17.76    1.00
   7  -9   6   18.95    1.19
   7  -9   6   18.36    0.78
   6   8  -6   11.82    1.18
   6   8  -6   12.89    0.87
  -6  -8   6   12.20    0.73
  -6  -8   6   13.01    0.89
   5   8  -6    6.46    0.50
   5   8  -6    7.59    0.97
   5   8  -6    6.89    0.66
  -5  -8   6    6.45    0.68
  -5  -8   6    6.82    0.53
   4   8  -6   -0.24    0.30
   4   8  -6    0.33    0.54
   4   8  -6    0.04    0.24
  -4  -8   6   -0.19    0.35
  -4  -8   6   -0.03    0.23
   3   8  -6    0.21    0.33
   3   8  -6    0.55    0.45
   3   8  -6    0.27    0.20
  -3  -8   6    0.47    0.20
  -3  -8   6    0.17    0.30
   2   8  -6   22.69    0.89
   2   8  -6   22.02    1.08
  -2  -8   6   22.28    0.72
  -2  -8   6   22.96    0.89
   1   8  -6    2.12    0.49
  -1  -8   6    1.94    0.19
  -1  -8   6    2.62    0.39
   0   8  -6   40.61    1.43
   0  -8   6   38.32    1.11
   0  -8   6   39.65    1.27
  -1   8  -6   46.14    1.62
  -1   8  -6   48.23    1.38
   1  -8   6   47.11    1.31
   1  -8   6   45.01    1.44
  -2   8  -6   13.20    0.81
  -2   8  -6   14.19    0.61
   2  -8   6   13.88    0.66
   2  -8   6   14.55    0.54
  -3   8  -6    1.23    0.30
  -3   8  -6    1.31    0.42
   3  -8   6    1.26    0.24
   3  -8   6    0.81    0.39
   3  -8   6    0.88    0.32
  -4   8  -6    0.11    0.26
  -4   8  -6    0.02    0.41
   4  -8   6    0.12    0.41
   4  -8   6    0.18    0.35
   4  -8   6    0.28    0.22
  -5   8  -6   19.24    0.96
  -5   8  -6   17.26    0.79
   5  -8   6   17.43    0.69
   5  -8   6   18.79    0.95
  -6   8  -6    2.05    0.42
   6  -8   6    2.06    0.32
   6  -8   6    2.33    0.61
  -7   8  -6    0.62    0.42
   7  -8   6    0.32    0.55
   7  -8   6    0.21    0.30
   8  -8   6    5.69    0.66
   6   7  -6   -0.01    0.29
   6   7  -6   -0.09    0.41
   6   7  -6    0.12    0.58
  -6  -7   6    0.08    0.32
  -6  -7   6    0.01    0.44
   5   7  -6   20.53    1.07
   5   7  -6   22.08    0.92
   5   7  -6   23.32    0.82
  -5  -7   6   22.20    0.94
  -5  -7   6   22.89    0.82
   4   7  -6   61.21    2.04
   4   7  -6   64.11    1.87
   4   7  -6   62.89    1.74
  -4  -7   6   61.45    1.74
  -4  -7   6   60.21    1.86
   3   7  -6   26.58    0.95
   3   7  -6   27.50    1.15
   3   7  -6   27.47    0.85
  -3  -7   6   26.64    0.84
  -3  -7   6   27.32    0.98
   2   7  -6   13.80    0.51
   2   7  -6   15.28    0.82
  -2  -7   6   14.50    0.63
  -2  -7   6   14.79    0.51
   1   7  -6   -0.05    0.32
   1   7  -6    0.08    0.10
  -1  -7   6    0.23    0.13
  -1  -7   6    0.11    0.23
   0   7  -6   11.04    0.52
   0   7  -6   10.60    0.65
   0  -7   6   11.81    0.42
   0  -7   6   12.41    0.54
  -1   7  -6   43.26    1.50
  -1   7  -6   45.65    1.33
   1  -7   6   45.18    1.26
   1  -7   6   45.41    1.38
  -2   7  -6    4.83    0.39
  -2   7  -6    5.20    0.58
   2  -7   6    5.28    0.34
   2  -7   6    4.33    0.43
  -3   7  -6   84.61    2.53
  -3   7  -6   81.17    2.40
   3  -7   6   85.95    2.34
   3  -7   6   88.67    2.44
   3  -7   6   86.12    2.54
  -4   7  -6   58.87    1.91
  -4   7  -6   56.35    1.78
   4  -7   6   58.32    1.69
   4  -7   6   60.59    1.91
   4  -7   6   61.91    1.83
  -5   7  -6    1.78    0.19
  -5   7  -6    1.57    0.38
   5  -7   6    2.09    0.50
   5  -7   6    2.01    0.29
  -6   7  -6    0.95    0.17
  -6   7  -6    0.98    0.37
   6  -7   6    1.89    0.56
   6  -7   6    0.95    0.29
  -7   7  -6    0.21    0.20
  -7   7  -6   -0.07    0.39
   7  -7   6    0.05    0.30
   7  -7   6   -0.13    0.58
  -8   7  -6    8.99    0.49
   8  -7   6    8.45    0.94
   8  -7   6    8.97    0.73
   7   6  -6    0.00    0.34
   7   6  -6    0.07    0.58
   6   6  -6    2.82    0.62
   6   6  -6    4.15    0.55
   6   6  -6    3.50    0.36
  -6  -6   6    3.56    0.37
  -6  -6   6    3.52    0.47
   5   6  -6    4.96    0.40
   5   6  -6    5.15    0.69
   5   6  -6    4.49    0.51
  -5  -6   6    4.27    0.41
  -5  -6   6    4.83    0.53
   4   6  -6    2.05    0.26
   4   6  -6    1.72    0.44
   4   6  -6    0.98    0.31
  -4  -6   6    1.56    0.23
  -4  -6   6    1.05    0.31
   3   6  -6    5.99    0.57
   3   6  -6    5.23    0.35
  -3  -6   6    5.67    0.45
  -3  -6   6    5.59    0.33
   2   6  -6  149.30    4.12
   2   6  -6  150.65    3.92
  -2  -6   6  151.06    4.01
  -2  -6   6  146.60    3.90
   1   6  -6   82.72    2.42
   1   6  -6   81.77    2.19
  -1  -6   6   81.93    2.30
  -1  -6   6   83.34    2.19
   0   6  -6    0.59    0.19
   0   6  -6    1.22    0.33
   0   6  -6    0.73    0.12
   0  -6   6    0.62    0.14
   0  -6   6    0.60    0.22
  -1   6  -6   15.86    0.61
  -1   6  -6   17.10    0.47
  -1   6  -6   14.57    0.73
   1  -6   6   16.19    0.55
   1  -6   6   15.92    0.65
  -2   6  -6    0.72    0.25
  -2   6  -6    0.97    0.11
  -2   6  -6    0.81    0.32
   2  -6   6    0.81    0.20
   2  -6   6    0.67    0.25
  -3   6  -6    6.19    0.57
  -3   6  -6    5.26    0.24
  -3   6  -6    5.96    0.46
   3  -6   6    5.39    0.39
   3  -6   6    5.98    0.58
   3  -6   6    6.40    0.49
  -4   6  -6    2.31    0.34
  -4   6  -6    2.29    0.21
  -4   6  -6    1.78    0.43
   4  -6   6    2.18    0.42
   4  -6   6    2.35    0.41
   4  -6   6    1.59    0.26
  -5   6  -6   25.97    0.78
  -5   6  -6   26.92    1.02
   5  -6   6   25.09    0.89
   5  -6   6   25.42    1.06
  -6   6  -6   40.42    1.44
  -6   6  -6   41.76    1.19
   6  -6   6   40.32    1.48
   6  -6   6   42.38    1.30
  -7   6  -6    8.28    0.77
  -7   6  -6    9.10    0.48
   7  -6   6    8.28    0.60
   7  -6   6    9.02    0.89
  -8   6  -6    0.59    0.58
   8  -6   6    0.46    0.70
   8   5  -6    5.69    0.64
   8   5  -6    5.03    0.88
   7   5  -6   29.76    1.03
   7   5  -6   29.24    1.29
   6   5  -6   29.91    1.24
   6   5  -6   28.99    1.23
   6   5  -6   29.92    0.97
  -6  -5   6   28.38    0.99
  -6  -5   6   29.63    1.05
   5   5  -6    7.25    0.44
   5   5  -6    7.17    0.65
   5   5  -6    7.05    0.49
  -5  -5   6    6.14    0.41
  -5  -5   6    6.25    0.48
   4   5  -6    3.76    0.47
   4   5  -6    3.22    0.32
  -4  -5   6    3.48    0.39
  -4  -5   6    3.62    0.31
   3   5  -6   10.69    0.45
   3   5  -6   10.88    0.63
  -3  -5   6   10.86    0.42
  -3  -5   6    9.67    0.48
   2   5  -6    0.06    0.29
   2   5  -6    0.24    0.16
  -2  -5   6    0.05    0.20
  -2  -5   6    0.20    0.12
   1   5  -6    2.81    0.37
   1   5  -6    2.01    0.21
   1   5  -6    2.31    0.25
  -1  -5   6    2.37    0.27
  -1  -5   6    2.29    0.21
   0   5  -6   83.25    2.43
   0   5  -6   85.55    2.26
   0   5  -6   86.99    2.33
   0  -5   6   83.59    2.26
   0  -5   6   85.52    2.36
  -1   5  -6  106.38    2.77
  -1   5  -6  107.73    2.88
  -1   5  -6  103.73    2.95
   1  -5   6  104.29    2.81
   1  -5   6  105.17    2.89
  -2   5  -6   52.00    1.48
  -2   5  -6   48.63    1.33
  -2   5  -6   46.37    1.51
   2  -5   6   49.37    1.41
   2  -5   6   47.42    1.48
  -3   5  -6   11.33    0.63
  -3   5  -6   10.07    0.38
  -3   5  -6   10.65    0.56
   3  -5   6   10.49    0.49
   3  -5   6   10.51    0.60
   3  -5   6   10.08    0.62
  -4   5  -6   11.16    0.44
  -4   5  -6   12.67    0.64
   4  -5   6   11.50    0.68
   4  -5   6   11.93    0.68
   4  -5   6   10.76    0.52
  -5   5  -6    0.31    0.32
  -5   5  -6    0.08    0.18
   5  -5   6   -0.16    0.40
   5  -5   6    0.15    0.47
   5  -5   6    0.05    0.24
  -6   5  -6    0.58    0.42
  -6   5  -6    0.17    0.22
   6  -5   6    0.21    0.27
   6  -5   6    0.04    0.46
  -7   5  -6    8.52    0.51
  -7   5  -6    8.88    0.77
   7  -5   6    8.08    0.89
   7  -5   6    7.44    0.63
  -8   5  -6   10.13    0.93
   8  -5   6   10.70    1.08
   8   4  -6    1.56    0.38
   8   4  -6    1.17    0.56
   7   4  -6    0.09    0.27
   7   4  -6    0.46    0.44
   6   4  -6    7.05    0.61
   6   4  -6    8.15    0.47
  -6  -4   6    7.39    0.80
   5   4  -6   61.99    1.94
   5   4  -6   64.44    1.79
  -5  -4   6   65.22    1.85
  -5  -4   6   63.83    1.78
   4   4  -6  133.23    3.66
   4   4  -6  130.81    3.51
  -4  -4   6  134.93    3.50
  -4  -4   6  132.26    3.57
   3   4  -6    5.29    0.32
   3   4  -6    4.54    0.40
  -3  -4   6    5.03    0.37
  -3  -4   6    5.50    0.29
   2   4  -6   48.33    1.41
   2   4  -6   48.36    1.51
   2   4  -6   52.00    1.44
  -2  -4   6   50.60    1.39
  -2  -4   6   52.66    1.47
   1   4  -6   36.86    1.22
   1   4  -6   39.37    1.13
   1   4  -6   40.40    1.17
  -1  -4   6   40.15    1.10
  -1  -4   6   39.00    1.18
   0   4  -6    4.74    0.33
   0   4  -6    3.60    0.35
   0   4  -6    4.05    0.26
   0  -4   6    3.77    0.33
   0  -4   6    4.47    0.25
  -1   4  -6    4.04    0.31
  -1   4  -6    3.82    0.40
  -1   4  -6    3.59    0.24
   1  -4   6    3.39    0.36
   1  -4   6    4.41    0.29
  -2   4  -6   91.27    2.53
  -2   4  -6   86.84    2.40
  -2   4  -6   91.40    2.55
   2  -4   6   92.49    2.56
   2  -4   6   87.55    2.54
   2  -4   6   91.71    2.45
  -3   4  -6  163.75    4.49
  -3   4  -6  161.56    4.35
  -3   4  -6  175.22    4.52
   3  -4   6  163.74    4.51
   3  -4   6  168.32    4.51
   3  -4   6  166.91    4.40
  -4   4  -6    5.25    0.34
  -4   4  -6    6.28    0.52
   4  -4   6    5.49    0.55
   4  -4   6    5.69    0.41
   4  -4   6    5.45    0.49
  -5   4  -6   12.06    0.72
  -5   4  -6   12.12    0.52
   5  -4   6   12.41    0.73
   5  -4   6   12.05    0.70
   5  -4   6   12.14    0.58
  -6   4  -6   12.81    0.79
  -6   4  -6   11.87    0.57
   6  -4   6   13.75    0.85
   6  -4   6   12.44    0.65
  -7   4  -6    1.66    0.50
  -7   4  -6    2.03    0.36
   7  -4   6    2.01    0.55
   9   3  -6   11.03    0.76
   8   3  -6    2.84    0.38
   8   3  -6    2.46    0.55
   7   3  -6    8.60    0.50
   7   3  -6    8.41    0.67
   6   3  -6    9.27    0.62
   6   3  -6    9.94    0.49
   5   3  -6    0.18    0.19
   5   3  -6    0.04    0.31
  -5  -3   6    0.20    0.17
  -5  -3   6   -0.09    0.22
   4   3  -6    5.20    0.32
   4   3  -6    5.95    0.47
  -4  -3   6    6.37    0.39
  -4  -3   6    6.10    0.33
   3   3  -6   66.01    1.91
   3   3  -6   65.57    1.87
   3   3  -6   64.67    1.82
  -3  -3   6   69.30    1.87
  -3  -3   6   67.90    1.80
   2   3  -6  104.59    2.92
   2   3  -6  110.87    3.01
   2   3  -6  109.06    2.99
  -2  -3   6  113.51    2.98
  -2  -3   6  110.88    2.92
  -2  -3   6  112.65    2.90
   1   3  -6   87.57    2.49
   1   3  -6   91.84    2.49
   1   3  -6   88.06    2.42
  -1  -3   6   93.84    2.42
  -1  -3   6   90.33    2.40
  -1  -3   6   89.79    2.47
   0   3  -6   14.24    0.60
   0   3  -6   13.00    0.49
   0   3  -6   14.13    0.57
   0  -3   6   14.04    0.58
   0  -3   6   14.80    0.53
   0  -3   6   13.97    0.50
  -1   3  -6   92.26    2.59
  -1   3  -6   91.26    2.50
  -1   3  -6   98.51    2.62
   1  -3   6   93.91    2.53
   1  -3   6   91.76    2.61
   1  -3   6   94.48    2.56
  -2   3  -6   30.94    1.02
  -2   3  -6   30.57    1.00
  -2   3  -6   28.72    0.89
   2  -3   6   27.00    1.01
   2  -3   6   32.12    1.01
   2  -3   6   30.34    0.93
  -3   3  -6    0.09    0.17
  -3   3  -6    0.24    0.25
   3  -3   6   -0.07    0.22
   3  -3   6   -0.08    0.31
   3  -3   6    0.09    0.19
  -4   3  -6    1.57    0.37
  -4   3  -6    1.76    0.24
   4  -3   6    2.47    0.43
   4  -3   6    1.11    0.24
   4  -3   6    1.29    0.37
  -5   3  -6   24.98    0.84
  -5   3  -6   23.60    0.97
   5  -3   6   22.51    0.86
   5  -3   6   25.26    1.01
   5  -3   6   25.09    1.02
  -6   3  -6   36.54    1.38
  -6   3  -6   38.62    1.20
   6  -3   6   38.83    1.42
  -7   3  -6    3.73    0.42
  -7   3  -6    4.36    0.63
   7  -3   6    2.93    0.61
   9   2  -6    7.18    0.92
   8   2  -6    9.64    0.82
   8   2  -6   10.32    0.60
   7   2  -6   50.31    1.68
   7   2  -6   51.65    1.50
   6   2  -6   19.77    0.83
   6   2  -6   20.58    0.70
   5   2  -6    5.09    0.43
   5   2  -6    4.73    0.33
  -5  -2   6    5.39    0.34
  -5  -2   6    5.35    0.34
  -5  -2   6    5.86    0.38
   4   2  -6   46.76    1.32
   4   2  -6   46.47    1.39
   4   2  -6   44.00    1.39
  -4  -2   6   46.55    1.32
  -4  -2   6   48.43    1.31
  -4  -2   6   48.07    1.36
   3   2  -6   74.96    2.17
   3   2  -6   81.13    2.10
   3   2  -6   76.04    2.15
   3   2  -6   75.73    2.08
  -3  -2   6   75.92    2.09
  -3  -2   6   78.93    2.08
  -3  -2   6   79.45    2.14
   2   2  -6    1.42    0.21
   2   2  -6    1.76    0.21
   2   2  -6    1.47    0.18
   2   2  -6    1.74    0.28
  -2  -2   6    1.71    0.25
  -2  -2   6    1.80    0.21
  -2  -2   6    1.73    0.18
   1   2  -6    3.48    0.28
   1   2  -6    3.71    0.35
   1   2  -6    3.39    0.31
   1   2  -6    3.14    0.29
  -1  -2   6    3.23    0.29
   0   2  -6  152.65    4.04
   0   2  -6  151.62    3.99
   0   2  -6  155.41    3.99
   0   2  -6  150.68    4.08
   0  -2   6  146.43    3.98
   0  -2   6  156.44    4.08
   0  -2   6  147.92    4.00
  -1   2  -6   80.60    2.31
  -1   2  -6   79.88    2.24
  -1   2  -6   77.74    2.19
   1  -2   6   83.53    2.22
   1  -2   6   79.26    2.30
   1  -2   6   82.70    2.21
   1  -2   6   82.69    2.25
  -2   2  -6    9.66    0.43
  -2   2  -6   10.73    0.49
  -2   2  -6   10.30    0.55
   2  -2   6   10.52    0.47
   2  -2   6   10.99    0.58
   2  -2   6   10.52    0.48
   2  -2   6   10.69    0.51
  -3   2  -6   32.30    0.99
  -3   2  -6   33.72    1.13
   3  -2   6   30.85    1.05
   3  -2   6   32.31    1.13
   3  -2   6   30.15    1.00
  -4   2  -6   29.50    0.94
  -4   2  -6   29.32    1.09
   4  -2   6   26.99    0.95
   4  -2   6   30.96    1.09
   4  -2   6   28.15    1.03
  -5   2  -6    0.21    0.39
  -5   2  -6    0.64    0.26
   5  -2   6    0.31    0.40
   5  -2   6    0.79    0.41
  -6   2  -6    5.48    0.51
  -6   2  -6    5.51    0.69
   6  -2   6    3.71    0.68
  -7   2  -6   10.98    0.70
  -7   2  -6   11.11    0.87
   9   1  -6   11.76    0.87
   8   1  -6    2.80    0.49
  -8  -1   6    2.51    0.44
   7   1  -6    0.47    0.38
  -7  -1   6    0.15    0.25
   6   1  -6   21.66    0.87
   6   1  -6   21.35    0.73
  -6  -1   6   23.06    0.75
   5   1  -6   64.36    1.86
   5   1  -6   64.33    1.76
   5   1  -6   64.25    1.82
  -5  -1   6   62.71    1.78
  -5  -1   6   63.31    1.76
   4   1  -6   51.21    1.51
   4   1  -6   52.17    1.51
   4   1  -6   51.56    1.44
   4   1  -6   54.01    1.45
  -4  -1   6   51.16    1.43
  -4  -1   6   51.32    1.45
  -4  -1   6   50.70    1.47
   3   1  -6    0.58    0.16
   3   1  -6    0.81    0.17
   3   1  -6    0.53    0.19
   3   1  -6    0.65    0.22
  -3  -1   6    0.79    0.21
  -3  -1   6    0.47    0.13
  -3  -1   6    0.53    0.16
   2   1  -6   22.99    0.82
   2   1  -6   23.76    0.73
   2   1  -6   22.46    0.73
   2   1  -6   22.50    0.71
  -2  -1   6   22.22    0.76
   1   1  -6    1.51    0.21
   1   1  -6    1.87    0.30
   1   1  -6    1.63    0.21
   1   1  -6    1.67    0.21
  -1  -1   6    1.39    0.19
  -1  -1   6    1.16    0.18
  -1  -1   6    1.13    0.22
   0   1  -6    5.46    0.33
   0   1  -6    6.01    0.32
   0   1  -6    5.77    0.33
   0   1  -6    5.99    0.41
   0  -1   6    5.65    0.42
   0  -1   6    4.37    0.32
   0  -1   6    6.54    0.34
  -1   1  -6   37.07    1.09
  -1   1  -6   35.92    1.09
  -1   1  -6   35.04    1.19
  -1   1  -6   38.60    1.10
   1  -1   6   35.80    1.09
   1  -1   6   37.37    1.09
   1  -1   6   37.80    1.10
   1  -1   6   35.22    1.18
  -2   1  -6   54.81    1.56
  -2   1  -6   54.25    1.69
   2  -1   6   55.16    1.68
   2  -1   6   56.17    1.57
   2  -1   6   54.38    1.57
   2  -1   6   54.54    1.58
  -3   1  -6   93.48    2.69
  -3   1  -6   96.36    2.57
   3  -1   6   91.36    2.60
   3  -1   6   95.12    2.57
   3  -1   6   93.43    2.68
  -4   1  -6    6.44    0.58
  -4   1  -6    6.28    0.47
   4  -1   6    6.40    0.54
   4  -1   6    6.74    0.58
  -5   1  -6    8.15    0.70
  -5   1  -6    8.45    0.53
   5  -1   6    8.53    0.66
  -6   1  -6   15.06    0.91
  -6   1  -6   16.62    0.78
  -7   1  -6    5.86    0.69
  10   0  -6   27.06    1.53
 -10   0   6   25.13    1.07
   9   0  -6   15.97    1.00
  -9   0   6   18.26    0.80
   8   0  -6    0.03    0.41
  -8   0   6    0.10    0.27
   7   0  -6   35.75    1.23
  -7   0   6   35.39    1.11
   6   0  -6   31.41    1.07
   6   0  -6   33.13    1.05
   6   0  -6   32.73    1.00
  -6   0   6   31.34    0.99
   5   0  -6    0.24    0.16
   5   0  -6    0.02    0.16
   5   0  -6    0.37    0.22
   5   0  -6    0.23    0.24
  -5   0   6    0.15    0.21
  -5   0   6    0.29    0.17
   4   0  -6    2.21    0.28
   4   0  -6    2.08    0.20
   4   0  -6    2.02    0.24
   4   0  -6    2.03    0.27
  -4   0   6    1.98    0.20
  -4   0   6    2.20    0.30
  -4   0   6    2.02    0.21
   3   0  -6  110.55    3.05
   3   0  -6  113.56    2.98
   3   0  -6  113.75    2.96
   3   0  -6  110.84    2.96
  -3   0   6  112.21    2.98
  -3   0   6  111.97    2.96
  -3   0   6  110.65    3.03
   2   0  -6  222.11    5.87
   2   0  -6  229.68    5.99
   2   0  -6  224.03    5.87
   2   0  -6  222.80    5.88
  -2   0   6  234.22    5.87
  -2   0   6  226.81    5.96
  -2   0   6  224.13    5.88
   1   0  -6   63.06    1.70
   1   0  -6   60.49    1.72
   1   0  -6   60.06    1.82
   1   0  -6   61.34    1.72
  -1   0   6   62.26    1.72
  -1   0   6   63.96    1.81
   0   0  -6   38.52    1.14
   0   0  -6   37.84    1.25
   0   0  -6   39.84    1.14
   0   0  -6   38.28    1.09
   0   0   6   37.11    1.13
   0   0   6   38.15    1.10
   0   0   6   37.45    1.12
   0   0   6   40.25    1.24
  -1   0  -6  131.34    3.46
  -1   0  -6  126.59    3.56
  -1   0  -6  133.44    3.45
   1   0   6  131.48    3.42
   1   0   6  129.46    3.45
   1   0   6  124.93    3.43
   1   0   6  128.41    3.55
  -2   0  -6   26.73    0.89
  -2   0  -6   25.18    0.99
  -2   0  -6   26.15    0.86
   2   0   6   26.49    0.85
   2   0   6   26.08    0.86
   2   0   6   26.56    0.96
  -3   0  -6    1.22    0.35
  -3   0  -6    1.36    0.27
   3   0   6    1.26    0.25
   3   0   6    1.43    0.37
  -4   0  -6    4.66    0.59
  -4   0  -6    5.97    0.51
   4   0   6    5.27    0.56
   4   0   6    6.12    0.46
  -5   0  -6   29.67    1.20
   5   0   6   30.19    1.19
  10  -1  -6    4.24    0.73
 -10   1   6    3.91    0.47
   9  -1  -6    0.99    0.47
  -9   1   6    1.31    0.33
   8  -1  -6   11.27    0.73
  -8   1   6   10.31    0.56
   7  -1  -6   38.74    1.29
   7  -1  -6   42.00    1.21
   7  -1  -6   39.71    1.27
  -7   1   6   37.49    1.19
   6  -1  -6    3.74    0.42
   6  -1  -6    4.09    0.40
   6  -1  -6    3.57    0.33
  -6   1   6    4.33    0.35
   5  -1  -6   45.80    1.34
   5  -1  -6   46.21    1.29
   5  -1  -6   45.61    1.37
  -5   1   6   44.27    1.35
  -5   1   6   44.03    1.30
   4  -1  -6   52.88    1.44
   4  -1  -6   52.28    1.45
   4  -1  -6   51.91    1.53
   4  -1  -6   50.65    1.46
  -4   1   6   53.24    1.52
  -4   1   6   50.33    1.46
   3  -1  -6   39.41    1.24
   3  -1  -6   40.97    1.14
   3  -1  -6   41.14    1.15
   3  -1  -6   39.52    1.15
  -3   1   6   40.41    1.24
  -3   1   6   40.06    1.16
   2  -1  -6    2.63    0.26
   2  -1  -6    2.79    0.22
   2  -1  -6    2.75    0.36
   2  -1  -6    2.87    0.27
  -2   1   6    3.06    0.35
  -2   1   6    2.63    0.26
   1  -1  -6   32.21    0.99
   1  -1  -6   32.64    0.90
   1  -1  -6   31.44    0.97
   1  -1  -6   29.39    1.06
  -1   1   6   34.41    0.97
  -1   1   6   31.15    1.06
  -1   1   6   31.77    0.96
   0  -1  -6   64.27    1.74
   0  -1  -6   59.78    1.84
   0   1   6   62.96    1.72
   0   1   6   60.50    1.82
  -1  -1  -6   29.60    0.94
  -1  -1  -6   31.00    1.08
  -1  -1  -6   29.75    0.96
   1   1   6   28.95    0.92
   1   1   6   29.40    1.04
  -2  -1  -6    3.63    0.40
  -2  -1  -6    4.24    0.48
   2   1   6    3.01    0.36
   2   1   6    3.77    0.48
  -3  -1  -6   27.40    1.07
   3   1   6   28.80    0.93
   3   1   6   26.44    1.02
  -4  -1  -6   55.37    1.80
   4   1   6   54.19    1.64
   4   1   6   57.83    1.79
   5   1   6    1.65    0.47
   5   1   6    0.89    0.35
  10  -2  -6    5.92    0.74
 -10   2   6    3.84    0.45
   9  -2  -6   28.26    1.18
  -9   2   6   28.16    1.01
   8  -2  -6    9.95    0.55
   8  -2  -6    9.48    0.61
   8  -2  -6    9.75    0.63
  -8   2   6   11.12    0.56
   7  -2  -6    6.04    0.51
   7  -2  -6    5.92    0.42
   7  -2  -6    5.39    0.48
  -7   2   6    6.49    0.42
   6  -2  -6    9.40    0.43
   6  -2  -6    8.67    0.49
   6  -2  -6    9.19    0.53
  -6   2   6    9.10    0.45
   5  -2  -6   76.79    2.12
   5  -2  -6   78.54    2.15
   5  -2  -6   79.78    2.22
  -5   2   6   77.44    2.13
   4  -2  -6    8.80    0.38
   4  -2  -6    8.81    0.38
   4  -2  -6    8.43    0.48
  -4   2   6    8.66    0.46
  -4   2   6    8.67    0.39
   3  -2  -6   28.27    0.80
   3  -2  -6   27.57    0.84
   3  -2  -6   28.24    0.94
  -3   2   6   25.66    0.84
  -3   2   6   27.83    0.93
   2  -2  -6  140.62    3.92
   2  -2  -6  145.89    3.81
  -2   2   6  142.97    3.80
  -2   2   6  147.56    3.89
   1  -2  -6   23.29    0.88
   1  -2  -6   22.87    0.75
  -1   2   6   22.16    0.72
  -1   2   6   22.18    0.81
   0  -2  -6    2.87    0.39
   0  -2  -6    3.52    0.33
   0   2   6    2.88    0.28
   0   2   6    3.09    0.41
  -1  -2  -6    4.82    0.37
  -1  -2  -6    6.06    0.54
   1   2   6    4.66    0.35
   1   2   6    4.95    0.45
  -2  -2  -6   19.06    0.86
  -2  -2  -6   18.35    0.71
   2   2   6   18.76    0.83
   2   2   6   17.79    0.68
  -3  -2  -6   13.55    0.80
   3   2   6   13.41    0.75
   3   2   6   12.41    0.59
  -4  -2  -6    0.17    0.43
   4   2   6    0.92    0.43
   4   2   6    0.41    0.30
   5   2   6    8.52    0.80
  10  -3  -6   15.11    0.98
 -10   3   6   14.17    0.74
   9  -3  -6    0.27    0.44
   9  -3  -6   -0.06    0.38
   9  -3  -6    0.35    0.42
  -9   3   6    0.10    0.28
   8  -3  -6   45.12    1.34
   8  -3  -6   43.94    1.45
   8  -3  -6   45.75    1.46
  -8   3   6   42.51    1.33
   7  -3  -6  114.23    3.02
   7  -3  -6  105.46    3.04
   7  -3  -6  107.04    2.93
  -7   3   6  108.79    2.94
   6  -3  -6   38.08    1.12
   6  -3  -6   38.38    1.17
   6  -3  -6   36.59    1.22
  -6   3   6   37.96    1.13
   5  -3  -6   12.55    0.58
   5  -3  -6   12.53    0.50
   5  -3  -6   12.42    0.49
  -5   3   6   12.16    0.49
   4  -3  -6    0.13    0.15
   4  -3  -6    0.03    0.25
  -4   3   6    0.32    0.17
  -4   3   6    0.15    0.21
   3  -3  -6   22.75    0.72
   3  -3  -6   22.24    0.82
  -3   3   6   22.23    0.71
  -3   3   6   22.68    0.80
   2  -3  -6   11.83    0.49
   2  -3  -6   10.56    0.59
  -2   3   6   12.74    0.45
  -2   3   6   11.50    0.55
   1  -3  -6    1.44    0.32
   1  -3  -6    1.94    0.24
  -1   3   6    1.84    0.22
  -1   3   6    2.18    0.33
   0  -3  -6   66.77    2.02
   0   3   6   68.08    1.99
   0   3   6   66.32    1.84
  -1  -3  -6   34.04    1.10
  -1  -3  -6   35.75    1.24
   1   3   6   33.44    1.04
   1   3   6   35.09    1.20
  -2  -3  -6    4.51    0.44
  -2  -3  -6    5.53    0.60
   2   3   6    5.33    0.39
   2   3   6    4.69    0.56
  -3  -3  -6    0.54    0.43
   3   3   6    0.85    0.41
   3   3   6    1.18    0.29
   4   3   6    0.12    0.48
   5   3   6    6.96    0.65
   5   3   6    7.43    0.81
  10  -4  -6    0.92    0.54
 -10   4   6    0.69    0.35
   9  -4  -6    1.27    0.31
   9  -4  -6    0.67    0.40
   9  -4  -6    0.32    0.41
  -9   4   6    1.23    0.29
   8  -4  -6    1.96    0.42
   8  -4  -6    2.44    0.43
   8  -4  -6    2.12    0.29
  -8   4   6    2.09    0.29
   7  -4  -6   18.02    0.74
   7  -4  -6   17.73    0.80
   7  -4  -6   17.04    0.65
  -7   4   6   16.98    0.64
   6  -4  -6    0.14    0.36
   6  -4  -6    0.35    0.18
   6  -4  -6    0.25    0.27
  -6   4   6    0.22    0.19
   5  -4  -6   48.55    1.51
   5  -4  -6   49.84    1.38
  -5   4   6   47.65    1.38
   4  -4  -6   65.29    1.93
   4  -4  -6   66.83    1.79
  -4   4   6   63.76    1.77
  -4   4   6   63.77    1.83
   3  -4  -6    8.88    0.55
   3  -4  -6    9.41    0.42
  -3   4   6    8.26    0.36
  -3   4   6    8.42    0.46
   2  -4  -6    7.70    0.42
   2  -4  -6    7.72    0.52
  -2   4   6    7.90    0.48
  -2   4   6    7.48    0.34
   1  -4  -6    0.26    0.30
   1  -4  -6    0.31    0.20
  -1   4   6    0.11    0.15
  -1   4   6    0.42    0.29
   0  -4  -6   50.66    1.47
   0  -4  -6   51.41    1.61
   0   4   6   48.92    1.39
   0   4   6   48.17    1.55
  -1  -4  -6    0.17    0.25
  -1  -4  -6    0.20    0.39
   1   4   6    0.50    0.19
   1   4   6    0.20    0.34
  -2  -4  -6    5.10    0.51
  -2  -4  -6    5.44    0.70
   2   4   6    6.04    0.42
   2   4   6    5.68    0.61
   3   4   6   29.75    1.17
   4   4   6    6.73    0.55
   4   4   6    6.71    0.78
  10  -5  -6   18.55    0.84
  10  -5  -6   18.87    1.02
  10  -5  -6   19.96    1.04
 -10   5   6   16.29    0.76
   9  -5  -6   30.35    1.17
   9  -5  -6   30.23    1.03
   9  -5  -6   30.45    1.21
  -9   5   6   29.30    0.98
   8  -5  -6    2.77    0.46
   8  -5  -6    2.80    0.32
  -8   5   6    2.53    0.29
   7  -5  -6    5.49    0.38
   7  -5  -6    5.20    0.56
  -7   5   6    4.18    0.35
   6  -5  -6    5.55    0.39
   6  -5  -6    6.49    0.50
  -6   5   6    6.06    0.35
   5  -5  -6    7.40    0.52
   5  -5  -6    8.21    0.39
  -5   5   6    7.46    0.34
   4  -5  -6    0.09    0.31
   4  -5  -6    0.05    0.18
  -4   5   6    0.13    0.12
  -4   5   6    0.05    0.22
   3  -5  -6   67.30    1.99
   3  -5  -6   66.66    1.84
  -3   5   6   66.30    1.75
  -3   5   6   62.30    1.88
   2  -5  -6   81.38    2.33
   2  -5  -6   78.25    2.17
  -2   5   6   78.34    2.07
  -2   5   6   73.42    2.22
   1  -5  -6    7.43    0.46
   1  -5  -6    5.95    0.61
  -1   5   6    6.63    0.31
  -1   5   6    6.12    0.52
   0  -5  -6    1.58    0.45
   0  -5  -6    1.27    0.28
   0   5   6    1.30    0.37
   0   5   6    1.29    0.20
  -1  -5  -6    0.55    0.45
  -1  -5  -6    0.13    0.28
   1   5   6    0.41    0.21
   1   5   6    0.29    0.35
  -2  -5  -6    0.22    0.31
   2   5   6    0.06    0.23
   2   5   6    0.21    0.43
   3   5   6    1.41    0.47
   3   5   6    2.01    0.32
   4   5   6   -0.10    0.57
  10  -6  -6    0.54    0.54
  10  -6  -6    1.07    0.37
 -10   6   6    1.35    0.32
   9  -6  -6    1.01    0.49
   9  -6  -6    0.92    0.31
  -9   6   6    0.93    0.28
   8  -6  -6   20.20    0.97
   8  -6  -6   21.02    0.77
  -8   6   6   21.19    0.68
   7  -6  -6   30.22    1.16
   7  -6  -6   30.39    0.96
  -7   6   6   29.84    0.85
   6  -6  -6   16.76    0.62
   6  -6  -6   16.85    0.78
   5  -6  -6    3.06    0.45
   5  -6  -6    2.90    0.33
   4  -6  -6    3.19    0.34
   4  -6  -6    2.95    0.41
  -4   6   6    3.41    0.41
   3  -6  -6    6.73    0.43
   3  -6  -6    6.93    0.60
  -3   6   6    6.91    0.50
   2  -6  -6    3.70    0.50
   2  -6  -6    3.29    0.32
  -2   6   6    2.97    0.41
   1  -6  -6    7.70    0.49
   1  -6  -6    8.44    0.70
  -1   6   6    7.95    0.60
   0  -6  -6   51.10    1.57
   0  -6  -6   54.33    1.80
   0   6   6   51.99    1.45
   0   6   6   53.63    1.70
  -1  -6  -6   31.43    1.06
   1   6   6   30.56    1.19
   1   6   6   29.25    0.91
  -2  -6  -6    1.01    0.37
   2   6   6    1.41    0.51
   2   6   6    0.92    0.26
   3   6   6    1.00    0.32
   3   6   6    1.28    0.58
  10  -7  -6    0.19    0.36
  10  -7  -6    0.21    0.57
   9  -7  -6    1.06    0.51
   9  -7  -6    1.04    0.31
   8  -7  -6    1.78    0.49
   8  -7  -6    1.06    0.28
   7  -7  -6    3.06    0.31
   7  -7  -6    2.43    0.44
   6  -7  -6   12.09    0.53
   6  -7  -6   12.53    0.72
   5  -7  -6  122.16    3.27
   5  -7  -6  122.15    3.47
   4  -7  -6   57.46    1.85
   4  -7  -6   60.85    1.69
  -4   7   6   57.21    1.73
   3  -7  -6    0.59    0.42
   3  -7  -6    0.72    0.26
  -3   7   6    0.90    0.33
   2  -7  -6   12.49    0.58
   2  -7  -6   12.26    0.81
  -2   7   6   11.33    0.67
   1  -7  -6    6.46    0.49
   1  -7  -6    7.17    0.74
  -1   7   6    5.24    0.53
   0  -7  -6    0.63    0.30
   0   7   6    0.85    0.42
   0   7   6    0.74    0.15
  -1  -7  -6    1.81    0.38
   1   7   6    1.76    0.23
   1   7   6    1.95    0.51
  -2  -7  -6   18.12    0.89
   2   7   6   18.10    0.68
   2   7   6   19.52    1.09
   9  -8  -6   10.66    0.62
   9  -8  -6   10.18    0.83
   8  -8  -6    0.34    0.28
   8  -8  -6   -0.17    0.47
   7  -8  -6    6.83    0.75
   7  -8  -6    5.85    0.44
   6  -8  -6    3.92    0.40
   6  -8  -6    4.72    0.59
   5  -8  -6    0.03    0.43
   5  -8  -6    0.26    0.24
   4  -8  -6    6.98    0.69
   4  -8  -6    7.18    0.48
   3  -8  -6   28.45    1.01
   3  -8  -6   31.86    1.26
  -3   8   6   30.76    1.10
   2  -8  -6   30.69    1.05
   2  -8  -6   31.83    1.32
  -2   8   6   31.57    1.17
   1  -8  -6    1.54    0.33
  -1   8   6    1.59    0.48
   0  -8  -6    9.91    0.64
   0   8   6   10.01    0.83
  -1  -8  -6    1.68    0.41
   1   8   6    2.65    1.00
   8  -9  -6   18.38    1.11
   8  -9  -6   19.13    0.77
   7  -9  -6   25.87    1.22
   7  -9  -6   24.60    0.90
   6  -9  -6    2.56    0.54
   6  -9  -6    3.38    0.36
   5  -9  -6    5.17    0.49
   5  -9  -6    5.44    0.68
   4  -9  -6    2.86    0.37
   4  -9  -6    3.18    0.61
   3  -9  -6    0.53    0.54
   3  -9  -6    0.20    0.27
  -3   9   6    0.32    0.40
   2  -9  -6    0.45    0.31
  -2   9   6    0.33    0.46
   1  -9  -6    9.39    0.63
  -1   9   6    8.66    0.74
   7 -10  -6    0.14    0.35
   7 -10  -6   -0.13    0.59
   6 -10  -6    9.84    0.95
   6 -10  -6   11.13    0.63
   5 -10  -6   36.64    1.24
   5 -10  -6   36.12    1.52
   4 -10  -6    3.78    0.41
   4 -10  -6    4.00    0.73
   3 -10  -6    2.40    0.37
  -3  10   6    2.08    0.54
  -2  10   6   15.59    0.98
   1  12  -7    0.80    0.88
   0  12  -7    5.69    0.98
   0 -12   7    6.08    0.78
   0 -12   7    6.52    0.48
   1 -12   7   43.98    1.31
   1 -12   7   44.20    1.59
  -2  12  -7   14.14    1.10
   2 -12   7   17.10    0.69
   2 -12   7   16.91    0.96
  -3  12  -7   -0.06    0.69
   3 -12   7    0.01    0.50
   3 -12   7    0.16    0.29
  -4  12  -7    7.13    0.94
   4 -12   7    6.41    0.88
   4 -12   7    6.90    0.55
  -5  12  -7    4.30    0.83
   2  11  -7    0.55    0.78
  -2 -11   7    0.32    0.52
  -2 -11   7    0.13    0.24
   1  11  -7   11.65    1.15
  -1 -11   7   12.47    0.86
  -1 -11   7   13.24    0.57
   0  11  -7    7.09    0.94
   0 -11   7    6.34    0.71
   0 -11   7    6.89    0.44
  -1  11  -7    1.55    0.70
   1 -11   7    1.25    0.25
   1 -11   7    0.88    0.41
  -2  11  -7    1.08    0.64
   2 -11   7    1.08    0.47
   2 -11   7    0.72    0.25
  -3  11  -7   13.25    0.98
   3 -11   7   15.29    0.85
   3 -11   7   14.17    0.65
  -4  11  -7   49.04    1.60
  -4  11  -7   46.38    1.80
   4 -11   7   43.29    1.75
   4 -11   7   49.59    1.44
  -5  11  -7    9.88    0.79
  -5  11  -7   10.35    1.07
   5 -11   7    9.76    0.59
   5 -11   7   10.93    1.06
  -6  11  -7    5.14    0.67
   4  10  -7    1.89    0.84
  -4 -10   7    1.45    0.35
  -4 -10   7    1.16    0.57
   3  10  -7    2.27    0.70
  -3 -10   7    2.22    0.53
  -3 -10   7    2.08    0.31
   2  10  -7   24.55    1.34
  -2 -10   7   25.68    1.05
  -2 -10   7   24.66    0.83
   1  10  -7   46.73    1.81
  -1 -10   7   45.13    1.32
  -1 -10   7   45.63    1.52
   0  10  -7   17.17    1.12
   0 -10   7   17.40    0.86
   0 -10   7   17.42    0.63
  -1  10  -7   26.13    1.27
   1 -10   7   25.66    0.83
   1 -10   7   25.25    1.03
  -2  10  -7   58.12    2.00
   2 -10   7   59.31    1.84
   2 -10   7   57.43    1.66
  -3  10  -7    6.19    0.56
  -3  10  -7    6.79    0.83
   3 -10   7    6.30    0.47
   3 -10   7    6.56    0.68
  -4  10  -7    0.22    0.35
  -4  10  -7    0.13    0.57
   4 -10   7   -0.30    0.44
   4 -10   7    0.05    0.26
   4 -10   7    0.17    0.54
  -5  10  -7    2.94    0.65
  -5  10  -7    3.67    0.50
   5 -10   7    3.39    0.64
   5 -10   7    4.24    0.48
  -6  10  -7   17.55    0.98
   6 -10   7   14.60    0.72
   6 -10   7   16.62    1.07
   5   9  -7    1.17    0.82
   5   9  -7    1.73    0.35
  -5  -9   7    2.03    0.38
  -5  -9   7    1.81    0.57
   4   9  -7   15.85    1.17
  -4  -9   7   14.12    0.66
  -4  -9   7   14.22    0.86
   3   9  -7   17.11    1.06
  -3  -9   7   17.06    0.84
  -3  -9   7   17.56    0.67
   2   9  -7    5.80    0.72
  -2  -9   7    6.50    0.55
  -2  -9   7    6.17    0.39
   1   9  -7    7.62    0.83
  -1  -9   7    8.29    0.41
  -1  -9   7    7.92    0.62
   0   9  -7    1.83    0.55
   0  -9   7    2.25    0.24
   0  -9   7    1.95    0.41
  -1   9  -7   29.56    1.31
   1  -9   7   30.98    1.13
   1  -9   7   31.46    0.95
  -2   9  -7    6.14    0.51
  -2   9  -7    6.11    0.66
   2  -9   7    6.33    0.58
   2  -9   7    6.80    0.43
  -3   9  -7    0.57    0.31
  -3   9  -7    0.47    0.44
   3  -9   7    0.60    0.40
   3  -9   7    0.51    0.25
   3  -9   7    0.76    0.45
  -4   9  -7   23.70    1.01
  -4   9  -7   25.82    1.17
   4  -9   7   26.08    0.92
   4  -9   7   27.43    1.17
   4  -9   7   29.04    1.12
  -5   9  -7   13.54    0.80
  -5   9  -7   13.43    1.00
   5  -9   7   14.34    1.01
   5  -9   7   12.96    0.64
  -6   9  -7   -0.20    0.45
   6  -9   7    0.02    0.31
   6  -9   7    0.01    0.54
   7  -9   7    0.20    0.35
  -6  -8   7    0.23    0.53
  -6  -8   7   -0.10    0.37
   5   8  -7    8.82    0.58
   5   8  -7   10.33    1.04
  -5  -8   7    9.60    0.59
  -5  -8   7   10.11    0.77
   4   8  -7   21.42    1.10
   4   8  -7   20.78    0.75
  -4  -8   7   20.30    0.93
  -4  -8   7   20.27    0.76
   3   8  -7   17.48    1.00
   3   8  -7   15.45    0.59
  -3  -8   7   16.23    0.80
  -3  -8   7   16.77    0.62
   2   8  -7    8.78    0.72
   2   8  -7    7.68    0.30
  -2  -8   7    7.62    0.41
  -2  -8   7    8.24    0.59
   1   8  -7   36.30    1.37
  -1  -8   7   35.45    1.07
  -1  -8   7   38.41    1.24
   0   8  -7   40.71    1.49
   0  -8   7   42.58    1.20
   0  -8   7   41.32    1.34
  -1   8  -7    1.46    0.48
  -1   8  -7    0.95    0.27
   1  -8   7    1.06    0.20
   1  -8   7    1.35    0.35
  -2   8  -7    2.26    0.51
  -2   8  -7    2.10    0.34
   2  -8   7    2.01    0.26
   2  -8   7    2.14    0.39
  -3   8  -7   18.09    0.77
  -3   8  -7   20.20    0.95
   3  -8   7   20.02    0.87
   3  -8   7   19.70    0.74
   3  -8   7   18.71    0.94
  -4   8  -7   38.28    1.46
  -4   8  -7   35.49    1.30
   4  -8   7   41.15    1.40
   4  -8   7   40.10    1.47
   4  -8   7   40.82    1.23
  -5   8  -7    1.20    0.38
  -5   8  -7    1.51    0.52
   5  -8   7    1.08    0.56
   5  -8   7    1.49    0.31
  -6   8  -7   25.60    1.08
   6  -8   7   23.79    0.94
   6  -8   7   25.58    1.20
  -7   8  -7   23.98    1.18
   7  -8   7   22.19    1.31
   7  -8   7   21.03    0.93
   6   7  -7   22.49    0.90
   6   7  -7   20.78    1.23
  -6  -7   7   24.23    0.91
  -6  -7   7   23.53    1.05
   5   7  -7   14.15    0.98
   5   7  -7   14.67    0.65
  -5  -7   7   14.18    0.64
  -5  -7   7   12.85    0.77
   4   7  -7    0.04    0.24
   4   7  -7    0.21    0.47
  -4  -7   7    0.41    0.38
  -4  -7   7    0.27    0.22
   3   7  -7    5.62    0.41
   3   7  -7    5.32    0.60
  -3  -7   7    5.14    0.35
  -3  -7   7    4.41    0.51
   2   7  -7   20.12    0.66
   2   7  -7   19.19    0.92
  -2  -7   7   19.75    0.67
  -2  -7   7   19.99    0.82
   1   7  -7   18.03    0.60
   1   7  -7   20.05    0.93
  -1  -7   7   20.88    0.80
  -1  -7   7   20.11    0.65
   0   7  -7    0.31    0.24
   0   7  -7    0.15    0.10
   0   7  -7    0.22    0.34
   0  -7   7   -0.08    0.16
   0  -7   7    0.04    0.29
  -1   7  -7   55.41    1.45
  -1   7  -7   56.72    1.82
  -1   7  -7   55.09    1.64
   1  -7   7   57.31    1.57
   1  -7   7   53.89    1.68
  -2   7  -7   93.03    2.42
  -2   7  -7   91.49    2.63
  -2   7  -7   94.07    2.77
   2  -7   7   94.84    2.67
   2  -7   7   95.16    2.56
  -3   7  -7    2.69    0.46
  -3   7  -7    2.55    0.18
  -3   7  -7    2.73    0.40
   3  -7   7    3.72    0.46
   3  -7   7    2.59    0.46
   3  -7   7    2.17    0.29
  -4   7  -7    0.21    0.35
  -4   7  -7    0.33    0.13
  -4   7  -7    0.24    0.39
   4  -7   7    0.19    0.39
   4  -7   7    0.37    0.27
   4  -7   7    0.36    0.41
  -5   7  -7   -0.24    0.32
  -5   7  -7    0.11    0.15
   5  -7   7   -0.21    0.28
   5  -7   7    0.05    0.48
  -6   7  -7   16.63    0.58
  -6   7  -7   16.74    0.88
   6  -7   7   17.11    0.77
   6  -7   7   15.99    1.04
  -7   7  -7    2.68    0.60
  -7   7  -7    2.19    0.29
   7  -7   7    2.31    0.69
   7  -7   7    2.55    0.43
   7   6  -7    3.97    0.77
   7   6  -7    4.02    0.46
   6   6  -7    6.30    0.52
   6   6  -7    6.51    0.83
  -6  -6   7    6.53    0.64
   5   6  -7    0.09    0.27
   5   6  -7    0.39    0.40
  -5  -6   7    0.06    0.35
  -5  -6   7   -0.02    0.23
   4   6  -7   34.73    1.29
   4   6  -7   34.12    1.05
  -4  -6   7   33.20    1.03
  -4  -6   7   31.94    1.13
   3   6  -7   15.32    0.79
   3   6  -7   16.00    0.60
  -3  -6   7   15.65    0.57
  -3  -6   7   14.57    0.66
   2   6  -7   11.71    0.72
   2   6  -7   12.13    0.51
  -2  -6   7   12.07    0.48
  -2  -6   7   12.96    0.58
   1   6  -7    0.79    0.19
   1   6  -7    0.48    0.32
  -1  -6   7    0.70    0.28
  -1  -6   7    0.62    0.17
   0   6  -7   18.87    0.84
   0   6  -7   18.02    0.67
   0   6  -7   17.75    0.58
   0  -6   7   17.05    0.70
   0  -6   7   17.89    0.61
  -1   6  -7   32.68    1.09
  -1   6  -7   33.63    0.95
  -1   6  -7   32.38    1.19
   1  -6   7   33.61    1.02
   1  -6   7   35.50    1.14
  -2   6  -7    5.03    0.50
  -2   6  -7    5.10    0.46
  -2   6  -7    5.50    0.28
   2  -6   7    5.35    0.50
   2  -6   7    4.67    0.40
  -3   6  -7   18.34    0.83
  -3   6  -7   16.94    0.56
  -3   6  -7   16.12    0.74
   3  -6   7   17.98    0.87
   3  -6   7   17.72    0.82
   3  -6   7   17.81    0.69
  -4   6  -7   37.34    1.11
  -4   6  -7   39.47    1.36
  -4   6  -7   39.82    1.42
   4  -6   7   42.65    1.41
   4  -6   7   38.11    1.23
   4  -6   7   39.14    1.43
  -5   6  -7   31.05    0.94
  -5   6  -7   30.89    1.20
   5  -6   7   30.37    1.22
   5  -6   7   31.37    1.06
  -6   6  -7    0.20    0.23
  -6   6  -7    0.12    0.40
   6  -6   7    0.07    0.32
   6  -6   7   -0.46    0.50
  -7   6  -7    0.00    0.27
  -7   6  -7    0.12    0.55
   7  -6   7    0.33    0.64
   7  -6   7    0.13    0.38
   8   5  -7    8.64    0.71
   7   5  -7    0.28    0.32
   7   5  -7    0.35    0.52
   6   5  -7    3.42    0.36
   6   5  -7    3.16    0.58
  -6  -5   7    3.08    0.46
   5   5  -7   15.91    0.63
   5   5  -7   14.94    0.80
  -5  -5   7   16.26    0.74
  -5  -5   7   14.66    0.62
   4   5  -7   24.69    0.83
   4   5  -7   26.35    1.03
  -4  -5   7   24.43    0.90
  -4  -5   7   23.88    0.80
   3   5  -7   -0.12    0.32
   3   5  -7    0.08    0.19
  -3  -5   7   -0.02    0.16
  -3  -5   7    0.10    0.24
   2   5  -7   54.43    1.54
   2   5  -7   55.66    1.70
  -2  -5   7   53.52    1.61
  -2  -5   7   53.33    1.50
   1   5  -7  126.97    3.59
   1   5  -7  129.93    3.45
   1   5  -7  132.05    3.50
  -1  -5   7  136.09    3.44
  -1  -5   7  125.89    3.52
   0   5  -7   46.86    1.50
   0   5  -7   46.92    1.31
   0   5  -7   46.63    1.40
   0  -5   7   45.51    1.42
   0  -5   7   46.01    1.32
  -1   5  -7    1.93    0.21
  -1   5  -7    2.31    0.40
  -1   5  -7    1.81    0.29
   1  -5   7    2.56    0.26
   1  -5   7    2.24    0.35
  -2   5  -7    3.56    0.44
  -2   5  -7    4.83    0.31
  -2   5  -7    4.48    0.50
   2  -5   7    4.24    0.37
   2  -5   7    4.36    0.49
  -3   5  -7    1.57    0.38
  -3   5  -7    2.45    0.24
  -3   5  -7    2.76    0.40
   3  -5   7    1.93    0.41
   3  -5   7    2.09    0.28
   3  -5   7    2.74    0.44
  -4   5  -7   18.20    0.63
  -4   5  -7   19.47    0.86
   4  -5   7   17.69    0.72
   4  -5   7   17.73    0.87
   4  -5   7   15.89    0.82
  -5   5  -7    2.17    0.27
  -5   5  -7    2.72    0.47
   5  -5   7    2.15    0.50
   5  -5   7    3.17    0.59
   5  -5   7    1.72    0.33
  -6   5  -7   31.82    1.29
  -6   5  -7   31.00    1.01
   6  -5   7   31.14    1.29
   6  -5   7   28.95    1.09
  -7   5  -7   25.04    0.93
  -7   5  -7   25.19    1.22
   7  -5   7   24.67    1.27
   8   4  -7    0.21    0.54
   8   4  -7    0.44    0.37
   7   4  -7   27.20    1.22
   7   4  -7   26.91    0.97
   6   4  -7   42.33    1.50
   6   4  -7   41.91    1.28
   5   4  -7   28.84    0.95
   5   4  -7   30.84    1.14
  -5  -4   7   30.20    0.95
  -5  -4   7   28.72    1.02
   4   4  -7    5.14    0.38
   4   4  -7    4.88    0.47
  -4  -4   7    4.71    0.35
  -4  -4   7    4.42    0.41
   3   4  -7    6.78    0.38
   3   4  -7    5.09    0.44
  -3  -4   7    5.75    0.43
  -3  -4   7    5.56    0.33
   2   4  -7   27.41    0.96
   2   4  -7   25.06    0.89
   2   4  -7   26.86    0.85
  -2  -4   7   26.81    0.81
  -2  -4   7   26.53    0.89
   1   4  -7    1.68    0.29
   1   4  -7    2.83    0.34
   1   4  -7    1.87    0.22
  -1  -4   7    2.24    0.31
  -1  -4   7    2.70    0.25
   0   4  -7    7.85    0.46
   0   4  -7    7.32    0.37
   0   4  -7    7.04    0.50
   0  -4   7    7.01    0.44
   0  -4   7    6.87    0.37
  -1   4  -7   82.17    2.25
  -1   4  -7   85.06    2.38
  -1   4  -7   86.22    2.38
   1  -4   7   84.14    2.28
   1  -4   7   77.10    2.36
  -2   4  -7   40.96    1.36
  -2   4  -7   42.74    1.24
  -2   4  -7   41.91    1.37
   2  -4   7   43.99    1.29
   2  -4   7   43.76    1.41
   2  -4   7   43.14    1.37
  -3   4  -7   -0.05    0.19
  -3   4  -7    0.52    0.33
  -3   4  -7    0.09    0.31
   3  -4   7   -0.02    0.35
   3  -4   7    0.14    0.34
   3  -4   7   -0.05    0.21
  -4   4  -7    1.94    0.44
  -4   4  -7    2.17    0.27
   4  -4   7    1.91    0.32
   4  -4   7    1.67    0.43
   4  -4   7    2.23    0.46
  -5   4  -7    7.05    0.62
  -5   4  -7    5.91    0.46
   5  -4   7    6.47    0.67
   5  -4   7    6.57    0.54
   5  -4   7    7.04    0.69
  -6   4  -7    1.08    0.52
  -6   4  -7    1.58    0.34
   6  -4   7    1.35    0.53
  -7   4  -7   -0.03    0.58
  -7   4  -7    0.41    0.36
   7  -4   7    0.08    0.61
   9   3  -7    1.11    0.47
   8   3  -7    0.01    0.35
   8   3  -7    0.33    0.51
   7   3  -7    1.02    0.47
   7   3  -7    1.67    0.33
   6   3  -7    0.09    0.23
   6   3  -7    0.04    0.38
   5   3  -7   24.18    0.81
   5   3  -7   23.56    0.96
  -5  -3   7   25.81    0.81
  -5  -3   7   23.69    0.87
   4   3  -7  108.84    3.01
   4   3  -7  107.87    2.89
  -4  -3   7  108.17    2.88
  -4  -3   7  107.32    2.95
   3   3  -7   43.65    1.24
   3   3  -7   42.47    1.33
   3   3  -7   42.14    1.32
  -3  -3   7   41.62    1.22
  -3  -3   7   43.05    1.29
   2   3  -7    2.84    0.40
   2   3  -7    3.32    0.29
   2   3  -7    3.53    0.37
  -2  -3   7    3.62    0.36
  -2  -3   7    3.25    0.26
   1   3  -7    0.68    0.26
   1   3  -7    0.07    0.21
   1   3  -7    0.03    0.17
  -1  -3   7    0.19    0.16
  -1  -3   7    0.03    0.23
   0   3  -7    0.11    0.24
   0   3  -7    0.23    0.17
   0   3  -7    0.29    0.25
   0  -3   7   -0.04    0.20
   0  -3   7    0.05    0.16
  -1   3  -7   15.41    0.68
  -1   3  -7   13.81    0.62
  -1   3  -7   13.68    0.54
   1  -3   7   14.14    0.57
  -2   3  -7    3.80    0.39
  -2   3  -7    4.13    0.33
  -2   3  -7    4.02    0.42
   2  -3   7    3.78    0.45
   2  -3   7    3.55    0.43
   2  -3   7    3.65    0.37
  -3   3  -7   83.78    2.30
  -3   3  -7   81.34    2.45
   3  -3   7   84.87    2.33
   3  -3   7   84.76    2.46
   3  -3   7   83.67    2.40
  -4   3  -7   89.62    2.46
  -4   3  -7   89.08    2.63
   4  -3   7   92.34    2.63
   4  -3   7   90.34    2.57
   4  -3   7   83.78    2.48
  -5   3  -7   32.15    1.27
  -5   3  -7   33.84    1.10
   5  -3   7   36.24    1.29
   5  -3   7   34.16    1.28
  -6   3  -7    4.37    0.65
  -6   3  -7    3.75    0.42
  -7   3  -7    8.15    0.95
  -7   3  -7    8.93    0.70
   9   2  -7   19.79    1.16
   8   2  -7   13.08    0.82
   7   2  -7    0.07    0.28
   7   2  -7    0.04    0.36
   6   2  -7    5.11    0.42
   6   2  -7    5.38    0.51
   5   2  -7    7.64    0.42
   5   2  -7    6.71    0.52
  -5  -2   7    7.00    0.45
  -5  -2   7    6.19    0.41
   4   2  -7    0.11    0.17
   4   2  -7   -0.02    0.25
   4   2  -7    0.21    0.24
  -4  -2   7    0.24    0.19
  -4  -2   7    0.11    0.23
  -4  -2   7   -0.05    0.17
   3   2  -7    5.50    0.44
   3   2  -7    5.68    0.39
   3   2  -7    5.07    0.34
  -3  -2   7    5.39    0.39
  -3  -2   7    5.32    0.34
   2   2  -7  112.05    3.07
   2   2  -7  115.52    3.13
   2   2  -7  110.11    3.02
  -2  -2   7  115.73    3.10
  -2  -2   7  110.30    3.02
  -2  -2   7  115.60    3.01
   1   2  -7  150.85    4.06
   1   2  -7  145.17    3.98
   1   2  -7  147.12    3.96
  -1  -2   7  147.55    3.95
  -1  -2   7  154.14    4.04
  -1  -2   7  150.67    3.94
   0   2  -7    9.02    0.46
   0   2  -7    8.86    0.51
   0   2  -7    8.63    0.42
   0  -2   7    8.64    0.45
   0  -2   7   10.06    0.45
   0  -2   7    9.78    0.55
  -1   2  -7   31.47    1.07
  -1   2  -7   29.49    0.94
  -1   2  -7   29.11    0.97
   1  -2   7   29.63    0.98
   1  -2   7   30.27    0.97
   1  -2   7   29.74    0.95
   1  -2   7   30.59    1.08
  -2   2  -7    9.33    0.57
  -2   2  -7    9.26    0.47
   2  -2   7    9.82    0.52
   2  -2   7    9.43    0.48
   2  -2   7    9.24    0.58
  -3   2  -7    0.33    0.25
  -3   2  -7    0.29    0.36
   3  -2   7    0.33    0.25
   3  -2   7    0.27    0.33
   3  -2   7    0.96    0.31
  -4   2  -7    0.09    0.27
  -4   2  -7    0.18    0.38
   4  -2   7    0.39    0.42
   4  -2   7    0.05    0.38
  -5   2  -7   17.10    0.93
  -5   2  -7   15.92    0.72
   5  -2   7   16.22    0.89
  -6   2  -7   28.83    1.09
  -6   2  -7   29.79    1.31
   9   1  -7   -0.03    0.49
   8   1  -7    7.28    0.66
  -8  -1   7    7.14    0.73
   7   1  -7   42.66    1.45
  -7  -1   7   44.75    1.35
   6   1  -7   56.09    1.61
   6   1  -7   53.91    1.71
  -6  -1   7   57.89    1.62
   5   1  -7    7.79    0.50
   5   1  -7    7.06    0.40
   5   1  -7    7.58    0.51
  -5  -1   7    6.73    0.41
  -5  -1   7    7.64    0.44
   4   1  -7   12.09    0.50
   4   1  -7   12.42    0.55
   4   1  -7   13.05    0.61
   4   1  -7   13.78    0.54
  -4  -1   7   14.07    0.51
  -4  -1   7   12.53    0.51
  -4  -1   7   12.46    0.56
   3   1  -7   20.80    0.71
   3   1  -7   22.18    0.83
   3   1  -7   21.92    0.73
   3   1  -7   22.50    0.75
  -3  -1   7   21.58    0.70
  -3  -1   7   22.34    0.79
  -3  -1   7   20.04    0.71
   2   1  -7    0.57    0.19
   2   1  -7    0.64    0.20
   2   1  -7    0.64    0.28
   2   1  -7    0.29    0.19
  -2  -1   7    0.60    0.19
  -2  -1   7    0.40    0.21
  -2  -1   7    0.33    0.17
   1   1  -7    4.85    0.35
   1   1  -7    4.84    0.41
   1   1  -7    5.40    0.36
   1   1  -7    4.97    0.35
  -1  -1   7    5.00    0.35
  -1  -1   7    5.68    0.35
  -1  -1   7    4.56    0.44
   0   1  -7   33.60    1.02
   0   1  -7   33.81    1.02
   0   1  -7   34.52    1.14
   0  -1   7   33.08    1.12
   0  -1   7   31.41    1.02
   0  -1   7   32.15    1.02
  -1   1  -7  118.11    3.20
  -1   1  -7  122.13    3.22
  -1   1  -7  116.05    3.34
   1  -1   7  120.15    3.22
   1  -1   7  117.44    3.21
   1  -1   7  123.77    3.34
   1  -1   7  120.08    3.22
  -2   1  -7   41.28    1.39
  -2   1  -7   37.78    1.23
   2  -1   7   42.05    1.36
   2  -1   7   41.57    1.46
  -3   1  -7    0.40    0.29
  -3   1  -7    0.17    0.34
   3  -1   7    0.30    0.38
  -4   1  -7    8.94    0.73
  -4   1  -7    9.94    0.60
   4  -1   7   10.39    0.71
  -5   1  -7    1.23    0.52
  -5   1  -7    0.72    0.33
   5  -1   7    0.51    0.46
  -6   1  -7    2.13    0.52
  -6   1  -7    2.88    0.65
 -10   0   7    0.04    0.44
   9   0  -7    2.31    0.59
  -9   0   7    2.73    0.43
   8   0  -7    1.41    0.46
  -8   0   7    1.61    0.33
   7   0  -7    4.42    0.54
  -7   0   7    4.29    0.44
   6   0  -7    8.48    0.55
   6   0  -7    8.59    0.56
  -6   0   7    8.89    0.47
   5   0  -7   73.79    2.16
   5   0  -7   73.57    2.08
   5   0  -7   76.74    2.13
   5   0  -7   76.57    2.07
  -5   0   7   77.25    2.09
  -5   0   7   74.14    2.13
   4   0  -7  121.98    3.26
   4   0  -7  119.82    3.14
   4   0  -7  117.95    3.15
   4   0  -7  116.31    3.17
  -4   0   7  116.99    3.15
  -4   0   7  114.28    3.21
   3   0  -7   32.82    1.12
   3   0  -7   35.68    1.04
   3   0  -7   32.91    1.02
   3   0  -7   34.98    1.03
  -3   0   7   33.50    1.03
  -3   0   7   34.03    1.11
   2   0  -7   37.77    1.28
   2   0  -7   38.39    1.17
   2   0  -7   39.64    1.16
   2   0  -7   40.51    1.18
  -2   0   7   41.85    1.18
  -2   0   7   39.93    1.27
  -2   0   7   39.66    1.18
   1   0  -7   58.10    1.80
   1   0  -7   60.28    1.70
   1   0  -7   60.52    1.71
   1   0  -7   60.63    1.66
  -1   0   7   60.94    1.69
  -1   0   7   58.76    1.78
  -1   0   7   58.77    1.69
   0   0  -7   12.54    0.54
   0   0  -7   13.29    0.65
   0   0   7   12.72    0.53
   0   0   7   12.23    0.62
  -1   0  -7    5.83    0.44
  -1   0  -7    6.09    0.43
  -1   0  -7    6.69    0.56
   1   0   7    6.94    0.51
   1   0   7    6.48    0.41
  -2   0  -7   11.39    0.56
  -2   0  -7   12.55    0.68
   2   0   7   11.56    0.55
   2   0   7   11.35    0.65
  -3   0  -7   60.68    1.90
  -3   0  -7   58.75    1.91
   3   0   7   64.86    1.79
   3   0   7   59.95    1.89
  -4   0  -7   21.47    1.02
   4   0   7   20.64    0.98
  -5   0  -7    0.30    0.53
   5   0   7   -0.01    0.48
  10  -1  -7   14.10    1.07
 -10   1   7   14.56    0.85
   9  -1  -7   29.43    1.25
  -9   1   7   28.65    1.06
   8  -1  -7   13.00    0.79
  -8   1   7   12.69    0.65
   7  -1  -7    3.83    0.51
   7  -1  -7    3.67    0.50
  -7   1   7    4.14    0.43
   6  -1  -7   26.01    0.91
   6  -1  -7   25.19    0.86
   6  -1  -7   23.76    0.93
  -6   1   7   25.88    0.86
   5  -1  -7   15.18    0.59
   5  -1  -7   15.32    0.69
   5  -1  -7   15.93    0.61
  -5   1   7   16.49    0.61
  -5   1   7   15.91    0.69
   4  -1  -7    6.15    0.47
   4  -1  -7    5.71    0.37
   4  -1  -7    6.33    0.36
  -4   1   7    5.48    0.35
  -4   1   7    6.71    0.48
   3  -1  -7    1.42    0.21
   3  -1  -7    1.19    0.21
   3  -1  -7    1.67    0.31
   3  -1  -7    1.24    0.19
  -3   1   7    1.87    0.32
  -3   1   7    1.46    0.22
   2  -1  -7   50.10    1.48
   2  -1  -7   50.79    1.59
   2  -1  -7   52.60    1.48
  -2   1   7   54.07    1.58
  -2   1   7   48.74    1.46
   1  -1  -7   92.86    2.51
   1  -1  -7   91.78    2.51
   1  -1  -7   89.16    2.63
  -1   1   7   92.09    2.49
  -1   1   7   91.61    2.60
   0  -1  -7    1.70    0.25
   0  -1  -7    1.79    0.39
   0   1   7    1.54    0.32
   0   1   7    1.62    0.24
  -1  -1  -7   17.02    0.78
  -1  -1  -7   17.06    0.68
   1   1   7   16.55    0.65
   1   1   7   16.60    0.79
  -2  -1  -7   23.87    1.00
   2   1   7   21.96    0.82
   2   1   7   22.52    0.93
  -3  -1  -7    2.03    0.43
   3   1   7    2.52    0.35
   3   1   7    2.63    0.45
  -4  -1  -7    0.23    0.46
   4   1   7    0.50    0.32
   4   1   7    0.48    0.45
   5   1   7   11.11    0.74
   5   1   7   10.27    0.86
  10  -2  -7    4.63    0.72
 -10   2   7    2.91    0.45
   9  -2  -7    2.37    0.49
  -9   2   7    2.11    0.37
   8  -2  -7   12.45    0.75
   8  -2  -7   12.59    0.74
  -8   2   7   12.35    0.63
   7  -2  -7   58.69    1.83
   7  -2  -7   59.35    1.72
   7  -2  -7   62.67    1.81
  -7   2   7   59.41    1.73
   6  -2  -7   19.84    0.75
   6  -2  -7   19.23    0.79
   6  -2  -7   20.06    0.73
  -6   2   7   19.96    0.72
   5  -2  -7    6.48    0.40
   5  -2  -7    6.12    0.38
   5  -2  -7    5.91    0.46
  -5   2   7    6.80    0.41
   4  -2  -7   45.98    1.46
   4  -2  -7   45.92    1.33
  -4   2   7   46.42    1.35
  -4   2   7   46.61    1.42
   3  -2  -7   42.32    1.23
   3  -2  -7   40.81    1.36
  -3   2   7   41.48    1.32
  -3   2   7   40.77    1.22
   2  -2  -7    0.45    0.29
   2  -2  -7    0.34    0.19
  -2   2   7    0.77    0.27
  -2   2   7    0.71    0.20
   1  -2  -7    5.09    0.49
   1  -2  -7    5.62    0.40
  -1   2   7    4.94    0.49
  -1   2   7    5.66    0.36
   0  -2  -7   54.46    1.59
   0  -2  -7   56.67    1.73
   0   2   7   51.94    1.68
   0   2   7   54.68    1.57
  -1  -2  -7   63.05    1.75
  -1  -2  -7   58.49    1.86
   1   2   7   58.37    1.84
   1   2   7   58.20    1.70
  -2  -2  -7   21.38    0.97
   2   2   7   20.96    0.94
   2   2   7   19.24    0.77
  -3  -2  -7   24.78    1.08
   3   2   7   22.23    1.04
   3   2   7   24.66    0.88
   4   2   7    6.86    0.60
   4   2   7    6.52    0.75
   5   2   7    3.24    0.68
  10  -3  -7    1.90    0.62
 -10   3   7    0.97    0.41
   9  -3  -7    8.10    0.74
   9  -3  -7    8.36    0.72
  -9   3   7    7.49    0.58
   8  -3  -7    2.31    0.32
   8  -3  -7    2.63    0.46
   8  -3  -7    1.64    0.43
  -8   3   7    2.06    0.32
   7  -3  -7    1.56    0.40
   7  -3  -7    1.59    0.27
   7  -3  -7    2.03    0.37
  -7   3   7    1.70    0.29
   6  -3  -7   26.86    0.90
   6  -3  -7   25.92    1.00
  -6   3   7   29.75    0.91
   5  -3  -7   42.46    1.37
   5  -3  -7   41.23    1.24
  -5   3   7   42.49    1.25
   4  -3  -7   63.92    1.73
   4  -3  -7   59.94    1.85
  -4   3   7   58.28    1.78
  -4   3   7   63.30    1.73
   3  -3  -7    0.35    0.20
   3  -3  -7    0.15    0.31
  -3   3   7    0.08    0.25
  -3   3   7    0.17    0.19
   2  -3  -7   14.90    0.75
   2  -3  -7   13.11    0.60
  -2   3   7   13.22    0.67
  -2   3   7   14.05    0.53
   1  -3  -7   31.78    1.01
   1  -3  -7   30.13    1.15
  -1   3   7   31.17    1.11
  -1   3   7   30.98    0.96
   0  -3  -7   14.97    0.79
   0  -3  -7   14.42    0.62
   0   3   7   13.81    0.73
   0   3   7   14.13    0.58
  -1  -3  -7    0.09    0.28
  -1  -3  -7    0.07    0.38
   1   3   7    0.43    0.38
   1   3   7    0.14    0.23
  -2  -3  -7    5.77    0.69
   2   3   7    4.55    0.43
   2   3   7    5.72    0.66
  -3  -3  -7   33.97    1.36
   3   3   7   32.08    1.28
   3   3   7   34.12    1.12
   4   3   7    9.72    0.90
  10  -4  -7   13.98    0.96
 -10   4   7   14.30    0.76
   9  -4  -7   14.14    0.90
   9  -4  -7   15.11    0.89
   9  -4  -7   15.44    0.72
  -9   4   7   14.29    0.69
   8  -4  -7    2.67    0.47
   8  -4  -7    2.65    0.33
  -8   4   7    2.18    0.30
   7  -4  -7   16.40    0.82
   7  -4  -7   14.84    0.65
  -7   4   7   15.86    0.63
   6  -4  -7   49.30    1.58
   6  -4  -7   46.92    1.41
  -6   4   7   49.18    1.42
   5  -4  -7   15.62    0.62
   5  -4  -7   17.85    0.80
  -5   4   7   16.05    0.61
   4  -4  -7    0.97    0.35
   4  -4  -7    0.49    0.20
  -4   4   7    0.38    0.27
  -4   4   7    0.40    0.19
   3  -4  -7    5.99    0.51
   3  -4  -7    5.58    0.41
  -3   4   7    6.21    0.34
  -3   4   7    5.51    0.47
   2  -4  -7   79.33    2.36
   2  -4  -7   79.60    2.20
  -2   4   7   77.78    2.13
  -2   4   7   76.58    2.28
   1  -4  -7   47.89    1.47
   1  -4  -7   49.10    1.63
  -1   4   7   50.29    1.40
  -1   4   7   48.85    1.58
   0  -4  -7    7.31    0.51
   0  -4  -7    7.62    0.67
   0   4   7    7.51    0.42
   0   4   7    7.95    0.63
  -1  -4  -7   95.81    2.74
  -1  -4  -7   99.00    2.89
   1   4   7   98.79    2.87
   1   4   7   98.14    2.66
  -2  -4  -7   25.27    0.99
  -2  -4  -7   25.45    1.14
   2   4   7   23.15    0.87
   2   4   7   25.90    1.12
   3   4   7    0.66    0.57
   4   4   7    1.07    0.68
  10  -5  -7    1.64    0.41
  10  -5  -7    2.23    0.61
 -10   5   7    2.06    0.38
   9  -5  -7    0.12    0.31
   9  -5  -7   -0.21    0.45
  -9   5   7   -0.04    0.28
   8  -5  -7    6.92    0.63
   8  -5  -7    7.69    0.51
  -8   5   7    7.34    0.47
   7  -5  -7   22.88    0.82
   7  -5  -7   22.65    0.96
  -7   5   7   22.28    0.77
   6  -5  -7    2.23    0.41
   6  -5  -7    2.47    0.28
  -6   5   7    3.03    0.33
   5  -5  -7   14.73    0.75
   5  -5  -7   16.34    0.63
  -5   5   7   15.34    0.54
   4  -5  -7   37.67    1.16
   4  -5  -7   38.69    1.34
  -4   5   7   36.11    1.08
  -4   5   7   38.78    1.23
   3  -5  -7   35.44    1.28
   3  -5  -7   35.83    1.11
  -3   5   7   33.16    1.16
  -3   5   7   33.75    0.99
   2  -5  -7    2.99    0.33
   2  -5  -7    2.04    0.47
  -2   5   7    2.24    0.23
  -2   5   7    1.61    0.38
   1  -5  -7    4.28    0.58
   1  -5  -7    3.27    0.35
  -1   5   7    3.74    0.31
  -1   5   7    2.86    0.45
   0  -5  -7    3.74    0.58
   0  -5  -7    3.16    0.38
   0   5   7    2.56    0.27
   0   5   7    3.49    0.51
  -1  -5  -7    0.78    0.50
  -1  -5  -7    1.42    0.36
   1   5   7    1.21    0.44
   1   5   7    1.21    0.27
  -2  -5  -7    0.03    0.36
   2   5   7    0.37    0.55
   2   5   7    0.26    0.29
   3   5   7    7.90    0.58
   3   5   7    8.65    0.90
  10  -6  -7    6.93    0.88
  10  -6  -7    6.31    0.65
 -10   6   7    7.85    0.57
   9  -6  -7   13.37    0.93
   9  -6  -7   13.62    0.70
  -9   6   7   13.36    0.59
   8  -6  -7    9.28    0.58
   8  -6  -7    7.50    0.69
  -8   6   7    8.61    0.43
   7  -6  -7    0.62    0.44
   7  -6  -7    0.90    0.26
  -7   6   7    0.91    0.18
   6  -6  -7    0.47    0.42
   6  -6  -7    0.97    0.26
  -6   6   7    0.82    0.14
   5  -6  -7    7.32    0.60
   5  -6  -7    5.07    0.42
  -5   6   7    5.20    0.25
   4  -6  -7    5.70    0.45
   4  -6  -7    5.30    0.56
  -4   6   7    5.28    0.25
  -4   6   7    5.65    0.53
   3  -6  -7    0.62    0.39
   3  -6  -7    0.97    0.28
  -3   6   7    1.00    0.15
  -3   6   7    0.62    0.35
   2  -6  -7   34.14    1.14
   2  -6  -7   36.20    1.37
  -2   6   7   35.68    1.26
  -2   6   7   35.48    0.99
   1  -6  -7   20.07    1.01
   1  -6  -7   18.60    0.76
  -1   6   7   18.64    0.61
  -1   6   7   17.37    0.86
   0  -6  -7    0.90    0.33
   0  -6  -7    1.64    0.53
   0   6   7    0.52    0.22
   0   6   7    1.20    0.46
  -1  -6  -7    0.85    0.37
   1   6   7    1.28    0.55
   1   6   7    0.72    0.25
  -2  -6  -7    0.22    0.43
   2   6   7    0.05    0.57
   2   6   7    0.27    0.31
   9  -7  -7    1.06    0.53
   9  -7  -7    1.31    0.36
   8  -7  -7    2.53    0.54
   8  -7  -7    3.17    0.38
   7  -7  -7   44.65    1.39
   7  -7  -7   46.98    1.65
   6  -7  -7   18.25    0.91
   6  -7  -7   16.93    0.70
   5  -7  -7    1.99    0.31
   5  -7  -7    2.46    0.54
   4  -7  -7    5.30    0.48
   4  -7  -7    5.93    0.69
  -4   7   7    5.33    0.62
   3  -7  -7    0.77    0.50
   3  -7  -7    0.41    0.27
  -3   7   7    0.77    0.41
   2  -7  -7   23.85    1.13
   2  -7  -7   22.83    0.88
  -2   7   7   21.70    0.98
   1  -7  -7    1.49    0.34
   1  -7  -7    1.92    0.60
  -1   7   7    1.78    0.21
  -1   7   7    1.50    0.45
   0  -7  -7   16.59    0.80
   0   7   7   16.07    0.97
   0   7   7   16.71    0.56
  -1  -7  -7   23.67    1.03
   1   7   7   23.97    0.78
   1   7   7   24.25    1.22
   9  -8  -7    2.51    1.05
   9  -8  -7    1.91    0.41
   8  -8  -7    0.76    0.33
   8  -8  -7    0.39    0.56
   7  -8  -7    3.85    0.67
   7  -8  -7    3.69    0.39
   6  -8  -7    0.75    0.51
   6  -8  -7    0.14    0.28
   5  -8  -7    5.11    0.52
   5  -8  -7    4.72    0.65
   4  -8  -7   28.42    1.03
   4  -8  -7   27.75    1.21
   3  -8  -7   15.03    0.71
   3  -8  -7   15.43    0.99
  -3   8   7   14.97    0.83
   2  -8  -7    2.36    0.63
   2  -8  -7    1.99    0.35
  -2   8   7    2.20    0.52
   1  -8  -7    0.10    0.34
  -1   8   7   -0.50    0.50
   0  -8  -7    1.41    0.42
   0   8   7    1.05    0.66
   8  -9  -7    0.72    0.48
   7  -9  -7    0.39    0.60
   7  -9  -7    0.40    0.37
   6  -9  -7    0.65    0.33
   6  -9  -7    0.71    0.54
   5  -9  -7    1.54    0.61
   5  -9  -7    1.88    0.37
   4  -9  -7    1.62    0.62
   4  -9  -7    1.35    0.36
   3  -9  -7   10.69    0.69
   3  -9  -7   12.52    1.05
  -3   9   7   11.22    0.87
   2  -9  -7   27.31    1.04
  -2   9   7   27.48    1.24
   6 -10  -7   20.85    1.27
   5 -10  -7    0.16    0.69
   4 -10  -7    6.93    0.92
   0  12  -8   17.37    1.44
   0 -12   8   20.49    1.02
   0 -12   8   21.22    1.14
  -1  12  -8   -0.08    0.77
   1 -12   8    0.32    0.28
   1 -12   8    0.12    0.54
  -2  12  -8    1.41    0.69
   2 -12   8    1.74    0.37
   2 -12   8    0.99    0.56
  -3  12  -8    1.25    0.78
   3 -12   8    1.75    0.77
   3 -12   8    1.76    0.39
   3 -12   8    1.42    0.62
   2  11  -8   -0.13    0.71
  -2 -11   8    0.56    0.31
  -2 -11   8    0.31    0.56
   1  11  -8    0.37    0.74
  -1 -11   8    0.13    0.28
  -1 -11   8    0.04    0.45
   0  11  -8   -0.18    0.68
   0 -11   8    0.43    0.49
   0 -11   8    0.23    0.26
   1 -11   8   17.78    0.92
   1 -11   8   18.64    0.72
  -2  11  -8   18.55    1.15
   2 -11   8   22.13    0.84
   2 -11   8   22.24    1.05
  -3  11  -8   16.07    1.16
   3 -11   8   16.24    0.75
   3 -11   8   17.30    0.97
   3 -11   8   15.70    1.13
  -4  11  -8    2.64    0.70
  -4  11  -8    2.48    0.53
   4 -11   8    1.87    0.64
   4 -11   8    2.09    0.37
  -5  11  -8    4.13    0.66
   3  10  -8   41.03    1.84
  -3 -10   8   41.11    1.32
  -3 -10   8   45.15    1.57
   2  10  -8    9.85    1.05
  -2 -10   8    9.53    0.72
  -2 -10   8   10.89    0.56
   1  10  -8    4.75    0.71
  -1 -10   8    5.27    0.44
  -1 -10   8    6.07    0.68
   0  10  -8   14.35    1.09
   0 -10   8   13.58    0.59
   0 -10   8   14.98    0.85
  -1  10  -8    0.93    0.54
   1 -10   8    0.52    0.23
   1 -10   8    0.68    0.45
  -2  10  -8    1.38    0.58
   2 -10   8    2.14    0.49
   2 -10   8    1.83    0.32
  -3  10  -8    6.91    0.63
  -3  10  -8    7.78    0.82
   3 -10   8    8.09    0.55
   3 -10   8    6.51    0.74
   3 -10   8    7.19    0.78
  -4  10  -8   44.80    1.58
  -4  10  -8   45.01    1.77
   4 -10   8   44.19    1.42
   4 -10   8   48.37    1.66
   4 -10   8   46.06    1.76
  -5  10  -8   20.58    1.06
  -5  10  -8   22.76    1.22
   5 -10   8   20.80    0.87
   5 -10   8   20.01    1.19
   5   9  -8    2.87    0.38
  -5  -9   8    1.84    0.38
  -5  -9   8    3.25    0.64
   4   9  -8    0.34    0.24
   4   9  -8    0.23    0.68
  -4  -9   8    0.03    0.28
  -4  -9   8    0.21    0.50
   3   9  -8    0.37    0.62
  -3  -9   8    0.07    0.26
  -3  -9   8   -0.01    0.45
   2   9  -8    3.43    0.62
  -2  -9   8    3.35    0.33
  -2  -9   8    3.52    0.50
   1   9  -8   53.83    1.94
  -1  -9   8   53.21    1.55
  -1  -9   8   56.12    1.73
   0   9  -8   39.01    1.52
   0  -9   8   39.49    1.34
   0  -9   8   38.56    1.17
  -1   9  -8    2.71    0.59
   1  -9   8    3.39    0.39
   1  -9   8    3.51    0.49
  -2   9  -8    4.27    0.64
  -2   9  -8    4.18    0.50
   2  -9   8    3.46    0.35
   2  -9   8    3.60    0.51
  -3   9  -8    4.10    0.55
  -3   9  -8    3.83    0.59
   3  -9   8    4.96    0.64
   3  -9   8    4.35    0.62
   3  -9   8    4.60    0.48
  -4   9  -8    5.66    0.72
  -4   9  -8    4.58    0.61
   4  -9   8    4.79    0.69
   4  -9   8    4.09    0.58
   4  -9   8    4.19    0.41
  -5   9  -8    0.39    0.48
  -5   9  -8    0.83    0.66
   5  -9   8    1.18    0.35
   5  -9   8    0.73    0.66
  -6   9  -8   13.90    0.96
   6  -9   8   14.13    1.06
   6  -9   8   13.71    0.76
   5   8  -8   15.17    1.07
   5   8  -8   14.21    0.72
  -5  -8   8   15.80    0.72
  -5  -8   8   15.09    0.90
   4   8  -8    0.26    0.58
   4   8  -8    0.42    0.30
  -4  -8   8    0.25    0.28
  -4  -8   8    0.06    0.42
   3   8  -8    8.37    0.45
   3   8  -8    7.59    0.86
  -3  -8   8    9.97    0.69
  -3  -8   8    8.83    0.50
   2   8  -8   12.14    0.88
   2   8  -8   10.46    0.43
  -2  -8   8   10.89    0.51
  -2  -8   8   10.61    0.63
   1   8  -8    3.47    0.55
  -1  -8   8    4.28    0.48
  -1  -8   8    4.10    0.36
   0   8  -8   18.67    0.96
   0  -8   8   18.91    0.81
   0  -8   8   18.09    0.66
  -1   8  -8   67.84    2.17
  -1   8  -8   65.68    1.97
   1  -8   8   66.75    2.03
   1  -8   8   67.42    1.89
  -2   8  -8   76.34    2.22
  -2   8  -8   71.74    2.35
   2  -8   8   74.30    2.12
   2  -8   8   77.39    2.27
  -3   8  -8    4.89    0.57
  -3   8  -8    4.79    0.64
   3  -8   8    6.03    0.66
   3  -8   8    5.84    0.49
   3  -8   8    5.96    0.67
  -4   8  -8   10.79    0.87
  -4   8  -8   11.96    0.76
   4  -8   8   10.61    0.63
   4  -8   8   11.51    0.87
   4  -8   8   11.01    0.85
  -5   8  -8   12.40    0.84
   5  -8   8   13.03    0.98
   5  -8   8   12.72    0.68
  -6   8  -8    1.92    0.58
  -6   8  -8    2.12    0.21
   6  -8   8    1.99    0.43
   6  -8   8    2.68    0.71
   6   7  -8    1.49    0.39
   6   7  -8    1.47    0.69
  -6  -7   8    1.14    0.53
   5   7  -8    0.88    0.51
   5   7  -8    0.95    0.32
  -5  -7   8    1.04    0.30
  -5  -7   8    1.49    0.46
   4   7  -8   36.15    1.15
   4   7  -8   38.16    1.43
  -4  -7   8   35.13    1.28
  -4  -7   8   36.48    1.14
   3   7  -8   60.13    1.97
   3   7  -8   60.09    1.72
  -3  -7   8   60.52    1.71
  -3  -7   8   60.91    1.85
   2   7  -8    9.07    0.44
   2   7  -8    8.61    0.69
  -2  -7   8    8.97    0.60
  -2  -7   8    8.80    0.46
   1   7  -8   24.10    1.07
   1   7  -8   23.26    0.75
  -1  -7   8   23.92    0.79
  -1  -7   8   24.79    0.94
   0   7  -8   50.40    1.51
   0   7  -8   48.68    1.36
   0   7  -8   50.27    1.68
   0  -7   8   48.49    1.43
   0  -7   8   50.05    1.57
  -1   7  -8    8.17    0.34
  -1   7  -8    8.26    0.72
  -1   7  -8    8.43    0.55
   1  -7   8    9.01    0.50
   1  -7   8    9.19    0.63
  -2   7  -8    0.17    0.14
  -2   7  -8    0.20    0.34
  -2   7  -8    0.39    0.43
   2  -7   8    0.28    0.26
   2  -7   8    0.21    0.33
  -3   7  -8   15.53    0.89
  -3   7  -8   14.71    0.79
  -3   7  -8   14.94    0.50
   3  -7   8   14.95    0.83
   3  -7   8   14.43    0.67
   3  -7   8   13.91    0.88
  -4   7  -8   48.25    1.66
  -4   7  -8   49.06    1.69
  -4   7  -8   48.36    1.36
   4  -7   8   53.07    1.75
   4  -7   8   48.77    1.53
   4  -7   8   49.73    1.71
  -5   7  -8   12.13    0.50
  -5   7  -8   12.63    0.85
   5  -7   8   11.93    0.91
   5  -7   8   12.61    0.70
  -6   7  -8    0.54    0.24
  -6   7  -8    0.13    0.51
   6  -7   8    0.22    0.60
   6  -7   8    0.76    0.39
   7   6  -8    2.73    0.72
   7   6  -8    4.53    0.47
   6   6  -8   14.39    0.92
   6   6  -8   15.84    0.74
  -6  -6   8   14.27    0.85
   5   6  -8   49.78    1.78
   5   6  -8   52.58    1.57
  -5  -6   8   54.99    1.68
  -5  -6   8   52.36    1.56
   4   6  -8    9.25    0.71
   4   6  -8   10.49    0.54
  -4  -6   8    9.86    0.52
  -4  -6   8   10.82    0.64
   3   6  -8    2.11    0.44
   3   6  -8    1.57    0.28
  -3  -6   8    1.41    0.33
  -3  -6   8    1.74    0.25
   2   6  -8    7.59    0.44
   2   6  -8    8.85    0.68
  -2  -6   8    8.38    0.42
  -2  -6   8    7.43    0.51
   1   6  -8   44.88    1.27
   1   6  -8   44.29    1.36
   1   6  -8   44.22    1.50
  -1  -6   8   42.45    1.28
  -1  -6   8   44.13    1.41
   0   6  -8   31.83    0.97
   0   6  -8   32.72    1.09
   0   6  -8   31.21    1.19
   0  -6   8   33.89    1.14
   0  -6   8   31.40    1.00
  -1   6  -8   17.51    0.78
  -1   6  -8   19.52    0.90
  -1   6  -8   18.19    0.61
   1  -6   8   16.57    0.77
   1  -6   8   18.74    0.70
  -2   6  -8   27.74    0.84
  -2   6  -8   28.25    1.11
  -2   6  -8   27.41    1.04
   2  -6   8   27.06    0.95
   2  -6   8   26.80    1.07
  -3   6  -8   14.85    0.81
  -3   6  -8   13.77    0.77
  -3   6  -8   14.87    0.54
   3  -6   8   14.00    0.66
   3  -6   8   14.76    0.83
   3  -6   8   15.00    0.84
  -4   6  -8    2.19    0.49
  -4   6  -8    1.72    0.24
  -4   6  -8    1.44    0.45
   4  -6   8    1.70    0.50
   4  -6   8    1.35    0.50
   4  -6   8    2.27    0.34
  -5   6  -8    2.71    0.51
  -5   6  -8    1.84    0.28
   5  -6   8    2.31    0.38
   5  -6   8    1.35    0.53
  -6   6  -8   11.90    0.94
  -6   6  -8   10.37    0.57
   6  -6   8    9.31    0.95
   6  -6   8   10.91    0.74
   7   5  -8    5.90    0.76
   7   5  -8    6.76    0.61
   6   5  -8    8.00    0.55
   6   5  -8    9.00    0.81
   5   5  -8    1.16    0.30
   5   5  -8    0.71    0.39
  -5  -5   8    1.36    0.37
  -5  -5   8    1.48    0.29
   4   5  -8   12.92    0.59
   4   5  -8   13.67    0.79
  -4  -5   8   12.37    0.67
  -4  -5   8   13.03    0.56
   3   5  -8   20.68    0.73
   3   5  -8   19.05    0.89
  -3  -5   8   20.22    0.81
  -3  -5   8   19.11    0.70
   2   5  -8   11.95    0.54
   2   5  -8   11.84    0.66
  -2  -5   8   11.57    0.50
  -2  -5   8   12.18    0.62
   1   5  -8    0.19    0.25
   1   5  -8    0.65    0.32
   1   5  -8    0.62    0.21
  -1  -5   8    0.28    0.17
  -1  -5   8    0.20    0.26
   0   5  -8    2.62    0.36
   0   5  -8    2.18    0.25
   0   5  -8    2.23    0.39
   0  -5   8    1.87    0.26
   0  -5   8    1.73    0.33
  -1   5  -8   32.13    0.97
  -1   5  -8   32.70    1.16
  -1   5  -8   30.03    1.09
   1  -5   8   30.58    1.02
   1  -5   8   32.76    1.13
  -2   5  -8   20.35    0.71
  -2   5  -8   21.61    0.91
  -2   5  -8   21.81    0.90
   2  -5   8   20.68    0.79
   2  -5   8   19.14    0.91
   2  -5   8   21.87    0.93
  -3   5  -8    2.46    0.44
  -3   5  -8    1.76    0.40
  -3   5  -8    2.42    0.28
   3  -5   8    2.05    0.46
   3  -5   8    2.09    0.44
   3  -5   8    2.16    0.34
  -4   5  -8   24.64    0.83
  -4   5  -8   24.50    1.06
   4  -5   8   23.17    1.04
   4  -5   8   24.44    1.11
   4  -5   8   24.24    0.92
  -5   5  -8   24.84    0.87
  -5   5  -8   24.02    1.10
   5  -5   8   26.00    1.36
   5  -5   8   25.10    0.99
   5  -5   8   24.58    1.11
  -6   5  -8   -0.07    0.32
  -6   5  -8   -0.40    0.56
   6  -5   8   -0.07    0.56
   8   4  -8   14.09    1.11
   8   4  -8   14.91    0.81
   7   4  -8   11.76    0.67
   7   4  -8   12.32    0.85
   6   4  -8    0.30    0.28
   6   4  -8   -0.02    0.43
   5   4  -8    0.35    0.36
   5   4  -8    0.39    0.27
  -5  -4   8    0.26    0.25
  -5  -4   8    0.01    0.33
   4   4  -8   30.34    0.97
   4   4  -8   29.25    1.08
  -4  -4   8   28.48    1.03
  -4  -4   8   30.82    0.95
   3   4  -8   45.54    1.37
   3   4  -8   47.18    1.50
  -3  -4   8   45.71    1.44
  -3  -4   8   47.15    1.35
   2   4  -8    0.88    0.32
   2   4  -8    0.23    0.27
   2   4  -8    0.57    0.23
  -2  -4   8    0.53    0.30
  -2  -4   8    0.41    0.18
   1   4  -8   87.00    2.56
   1   4  -8   92.57    2.60
   1   4  -8   91.48    2.48
  -1  -4   8   91.78    2.58
  -1  -4   8   90.04    2.46
   0   4  -8   58.12    1.80
   0   4  -8   60.30    1.81
   0   4  -8   61.12    1.68
   0  -4   8   58.51    1.69
   0  -4   8   58.67    1.80
  -1   4  -8    0.80    0.32
  -1   4  -8    0.48    0.29
  -1   4  -8    0.85    0.23
   1  -4   8    0.70    0.24
   1  -4   8    0.72    0.34
  -2   4  -8    1.45    0.25
  -2   4  -8    1.49    0.39
  -2   4  -8    2.38    0.41
   2  -4   8    1.14    0.39
   2  -4   8    1.25    0.29
   2  -4   8    1.29    0.38
  -3   4  -8    7.34    0.46
  -3   4  -8    6.46    0.58
  -3   4  -8    6.70    0.58
   3  -4   8    6.76    0.60
   3  -4   8    6.20    0.51
   3  -4   8    8.24    0.68
  -4   4  -8   31.41    1.04
  -4   4  -8   32.52    1.24
   4  -4   8   31.17    1.10
   4  -4   8   30.41    1.19
   4  -4   8   32.27    1.25
  -5   4  -8    3.37    0.61
  -5   4  -8    3.09    0.38
   5  -4   8    3.16    0.57
   5  -4   8    3.09    0.57
  -6   4  -8    4.74    0.74
  -6   4  -8    3.67    0.46
   8   3  -8    1.98    0.60
   8   3  -8    2.45    0.42
   7   3  -8    3.73    0.40
   7   3  -8    2.90    0.51
   6   3  -8   55.94    1.79
   6   3  -8   57.04    1.66
   5   3  -8   27.88    1.05
   5   3  -8   27.44    0.91
  -5  -3   8   25.46    0.96
   4   3  -8    1.16    0.31
   4   3  -8    1.24    0.27
  -4  -3   8    1.20    0.23
  -4  -3   8    1.23    0.32
   3   3  -8    0.67    0.30
   3   3  -8    1.05    0.24
   3   3  -8    1.39    0.34
  -3  -3   8    0.97    0.21
  -3  -3   8    0.93    0.31
   2   3  -8    5.90    0.40
   2   3  -8    5.45    0.48
   2   3  -8    5.25    0.41
  -2  -3   8    5.50    0.35
  -2  -3   8    5.86    0.48
   1   3  -8   11.88    0.53
   1   3  -8   11.90    0.59
   1   3  -8   11.66    0.63
  -1  -3   8   12.80    0.54
  -1  -3   8   11.37    0.59
   0   3  -8    3.80    0.36
   0   3  -8    3.12    0.38
   0   3  -8    3.37    0.47
   0  -3   8    3.26    0.36
   0  -3   8    3.09    0.40
  -1   3  -8   26.65    0.88
  -1   3  -8   25.86    0.94
  -1   3  -8   26.32    1.03
   1  -3   8   25.67    0.90
   1  -3   8   27.86    1.05
   1  -3   8   26.53    0.96
  -2   3  -8   47.59    1.44
  -2   3  -8   43.16    1.52
  -2   3  -8   43.52    1.35
   2  -3   8   46.77    1.40
   2  -3   8   45.90    1.44
   2  -3   8   45.39    1.53
  -3   3  -8   25.47    1.06
  -3   3  -8   24.39    0.87
   3  -3   8   23.71    0.95
   3  -3   8   24.32    1.05
   3  -3   8   23.12    0.90
  -4   3  -8   -0.08    0.43
  -4   3  -8    0.14    0.30
   4  -3   8   -0.15    0.44
  -5   3  -8    1.05    0.35
  -5   3  -8    1.14    0.50
   5  -3   8    1.38    0.53
  -6   3  -8    3.35    0.71
  -6   3  -8    2.96    0.46
   9   2  -8    2.73    0.65
   8   2  -8    2.53    0.54
   7   2  -8    2.51    0.46
   7   2  -8    3.93    0.40
   6   2  -8   13.16    0.62
   6   2  -8   13.63    0.75
   5   2  -8    0.21    0.23
   5   2  -8    0.09    0.28
  -5  -2   8    0.66    0.32
   4   2  -8   29.99    0.93
   4   2  -8   29.33    1.04
   4   2  -8   27.72    0.97
  -4  -2   8   26.83    0.99
  -4  -2   8   29.39    0.94
  -4  -2   8   27.86    1.06
   3   2  -8   84.41    2.41
   3   2  -8   86.01    2.36
   3   2  -8   83.37    2.47
  -3  -2   8   88.80    2.37
  -3  -2   8   84.64    2.34
  -3  -2   8   88.47    2.45
   2   2  -8   46.92    1.41
   2   2  -8   49.15    1.54
   2   2  -8   47.79    1.46
  -2  -2   8   48.32    1.40
  -2  -2   8   48.87    1.52
   1   2  -8    1.97    0.30
   1   2  -8    2.46    0.40
   1   2  -8    2.66    0.28
  -1  -2   8    1.65    0.24
   0   2  -8    0.53    0.22
   0   2  -8    0.49    0.26
   0   2  -8    0.05    0.28
   0  -2   8    0.62    0.24
   0  -2   8    0.68    0.21
   0  -2   8    0.09    0.33
  -1   2  -8    8.05    0.61
  -1   2  -8    7.45    0.48
  -1   2  -8    8.11    0.47
   1  -2   8    8.32    0.48
   1  -2   8    7.82    0.47
   1  -2   8    8.16    0.62
  -2   2  -8    0.49    0.25
  -2   2  -8    0.41    0.36
   2  -2   8    1.07    0.42
  -3   2  -8    4.69    0.43
  -3   2  -8    4.05    0.55
   3  -2   8    3.75    0.52
  -4   2  -8   36.67    1.45
  -4   2  -8   38.50    1.26
   4  -2   8   39.16    1.41
  -5   2  -8   17.54    0.84
  -5   2  -8   17.62    1.08
   5  -2   8   19.60    1.02
  -6   2  -8    0.06    0.43
  -6   2  -8    0.34    0.64
   9   1  -8   37.30    1.46
   8   1  -8   52.68    1.78
   7   1  -8   11.53    0.76
  -7  -1   8   13.71    0.67
   6   1  -8   -0.19    0.27
   6   1  -8    0.03    0.34
  -6  -1   8   -0.14    0.24
   5   1  -8    0.84    0.24
   5   1  -8    0.55    0.33
   5   1  -8    0.52    0.27
  -5  -1   8    0.67    0.29
  -5  -1   8    0.76    0.25
   4   1  -8   12.89    0.59
   4   1  -8   13.88    0.56
   4   1  -8   12.88    0.67
  -4  -1   8   13.54    0.64
   3   1  -8    0.23    0.23
   3   1  -8    0.17    0.30
   3   1  -8    0.29    0.21
  -3  -1   8    0.54    0.25
  -3  -1   8    0.40    0.20
   2   1  -8   93.70    2.63
   2   1  -8   97.35    2.64
   2   1  -8  100.70    2.78
  -2  -1   8   93.12    2.72
  -2  -1   8   96.70    2.64
   1   1  -8  137.53    3.69
   1   1  -8  140.69    3.82
   1   1  -8  141.43    3.69
  -1  -1   8  136.39    3.72
  -1  -1   8  135.55    3.69
  -1  -1   8  133.82    3.79
   0   1  -8   41.38    1.37
   0   1  -8   39.23    1.22
   0  -1   8   38.79    1.34
  -1   1  -8    0.86    0.27
  -1   1  -8    1.10    0.36
   1  -1   8    1.25    0.40
   1  -1   8    0.54    0.25
  -2   1  -8   10.21    0.57
  -2   1  -8    8.84    0.70
   2  -1   8    9.99    0.70
  -3   1  -8    0.28    0.42
  -3   1  -8    0.17    0.34
   3  -1   8    0.01    0.40
  -4   1  -8    1.91    0.42
  -4   1  -8    1.39    0.49
   4  -1   8    1.36    0.50
  -5   1  -8   -0.03    0.57
   5  -1   8    0.24    0.53
   9   0  -8    0.03    0.54
  -9   0   8    0.79    0.40
   8   0  -8    0.60    0.45
  -8   0   8    0.47    0.34
   7   0  -8   19.45    0.82
  -7   0   8   18.04    0.76
   6   0  -8   70.47    2.05
   6   0  -8   68.24    2.09
  -6   0   8   70.19    1.99
   5   0  -8   60.41    1.87
   5   0  -8   62.94    1.80
  -5   0   8   62.17    1.77
  -5   0   8   60.92    1.84
   4   0  -8    3.89    0.36
   4   0  -8    5.31    0.41
   4   0  -8    4.28    0.49
   4   0  -8    3.60    0.38
  -4   0   8    4.17    0.49
  -4   0   8    4.61    0.37
   3   0  -8    0.34    0.22
   3   0  -8    0.01    0.28
   3   0  -8   -0.01    0.22
   3   0  -8    0.11    0.21
  -3   0   8    0.07    0.22
  -3   0   8    0.05    0.28
   2   0  -8    0.06    0.21
   2   0  -8    0.08    0.29
   2   0  -8    0.11    0.22
  -2   0   8    0.06    0.27
  -2   0   8    0.09    0.21
   1   0  -8    2.12    0.29
   1   0  -8    1.78    0.36
   1   0  -8    1.70    0.29
  -1   0   8    1.78    0.35
  -1   0   8    1.56    0.25
   0   0  -8    8.17    0.63
   0   0  -8    7.70    0.49
   0   0   8    7.70    0.61
   0   0   8    7.89    0.46
  -1   0  -8   61.80    1.94
  -1   0  -8   60.47    1.79
   1   0   8   59.01    1.77
   1   0   8   63.94    1.93
  -2   0  -8   53.81    1.80
   2   0   8   57.37    1.81
   2   0   8   55.92    1.65
  -3   0  -8    6.60    0.71
   3   0   8    6.81    0.56
   3   0   8    6.93    0.70
  -4   0  -8    0.90    0.55
   4   0   8    1.07    0.51
  -5   0  -8    4.48    0.75
   5   0   8    5.10    0.70
  10  -1  -8    9.18    0.97
 -10   1   8    8.42    0.75
   9  -1  -8    0.59    0.45
  -9   1   8    0.21    0.36
   8  -1  -8    3.22    0.51
  -8   1   8    3.10    0.41
   7  -1  -8   -0.38    0.37
   7  -1  -8    0.02    0.35
  -7   1   8    0.15    0.28
   6  -1  -8    0.21    0.33
   6  -1  -8    0.32    0.25
   6  -1  -8    0.42    0.30
  -6   1   8    0.49    0.26
   5  -1  -8   16.36    0.65
   5  -1  -8   15.10    0.64
   5  -1  -8   15.56    0.77
  -5   1   8   16.61    0.76
  -5   1   8   16.31    0.65
   4  -1  -8  125.93    3.35
   4  -1  -8  121.08    3.47
  -4   1   8  126.43    3.35
  -4   1   8  123.84    3.43
   3  -1  -8   68.23    2.09
   3  -1  -8   71.71    1.96
  -3   1   8   68.14    1.95
  -3   1   8   67.75    2.04
   2  -1  -8   24.41    0.99
   2  -1  -8   26.56    0.88
  -2   1   8   24.44    0.85
  -2   1   8   24.76    0.95
   1  -1  -8    8.42    0.50
   1  -1  -8    8.81    0.60
  -1   1   8    8.57    0.47
  -1   1   8    8.20    0.61
   0  -1  -8    6.66    0.47
   0  -1  -8    6.75    0.57
   0   1   8    6.56    0.58
   0   1   8    6.99    0.45
  -1  -1  -8    0.31    0.36
   1   1   8    0.13    0.39
   1   1   8    0.23    0.24
  -2  -1  -8    5.59    0.67
   2   1   8    5.00    0.65
   2   1   8    4.87    0.50
  -3  -1  -8   12.91    0.87
   3   1   8   13.45    0.71
   3   1   8   13.91    0.87
  -4  -1  -8   43.38    1.62
   4   1   8   41.00    1.58
   4   1   8   41.22    1.41
   5   1   8   17.88    1.14
  10  -2  -8    6.76    0.80
 -10   2   8    6.32    0.72
   9  -2  -8   20.60    1.05
  -9   2   8   21.84    0.92
   8  -2  -8   20.85    0.99
   8  -2  -8   22.40    0.97
  -8   2   8   22.99    0.88
   7  -2  -8    0.41    0.40
   7  -2  -8   -0.07    0.27
   7  -2  -8    0.30    0.34
  -7   2   8    0.11    0.27
   6  -2  -8   14.28    0.73
   6  -2  -8   15.18    0.63
  -6   2   8   15.95    0.65
   5  -2  -8    4.55    0.53
   5  -2  -8    5.23    0.40
  -5   2   8    4.50    0.40
   4  -2  -8    3.72    0.37
   4  -2  -8    4.24    0.52
  -4   2   8    4.29    0.47
  -4   2   8    5.07    0.40
   3  -2  -8    0.09    0.22
   3  -2  -8    0.04    0.35
  -3   2   8    0.26    0.31
  -3   2   8    0.24    0.22
   2  -2  -8   57.76    1.82
   2  -2  -8   54.85    1.64
  -2   2   8   56.73    1.61
  -2   2   8   54.51    1.74
   1  -2  -8   82.71    2.38
   1  -2  -8   82.72    2.53
  -1   2   8   88.14    2.50
  -1   2   8   86.18    2.35
   0  -2  -8   13.82    0.78
   0  -2  -8   14.76    0.67
   0   2   8   16.04    0.82
   0   2   8   15.22    0.64
  -1  -2  -8    4.17    0.56
   1   2   8    3.68    0.51
   1   2   8    4.94    0.47
  -2  -2  -8    1.13    0.49
   2   2   8    1.33    0.47
   2   2   8    1.20    0.33
  -3  -2  -8    1.78    0.50
   3   2   8    2.70    0.54
   3   2   8    2.77    0.40
   4   2   8    0.00    0.41
   4   2   8   -0.24    0.55
  10  -3  -8    2.22    0.65
 -10   3   8    3.14    0.49
   9  -3  -8    1.91    0.54
  -9   3   8    1.35    0.38
   8  -3  -8   -0.16    0.41
   8  -3  -8   -0.15    0.32
  -8   3   8   -0.11    0.28
   7  -3  -8   21.24    0.81
   7  -3  -8   19.37    0.91
  -7   3   8   22.22    0.81
   6  -3  -8   82.53    2.28
   6  -3  -8   79.55    2.43
  -6   3   8   82.62    2.28
   5  -3  -8   21.99    0.78
   5  -3  -8   20.67    0.92
  -5   3   8   20.63    0.76
   4  -3  -8    0.94    0.26
   4  -3  -8    0.88    0.34
  -4   3   8    0.87    0.24
  -4   3   8    0.87    0.34
   3  -3  -8    6.22    0.62
   3  -3  -8    4.96    0.44
  -3   3   8    5.95    0.40
  -3   3   8    5.90    0.55
   2  -3  -8    0.41    0.38
   2  -3  -8    0.20    0.24
  -2   3   8    0.01    0.35
  -2   3   8   -0.04    0.19
   1  -3  -8    5.10    0.47
   1  -3  -8    5.78    0.59
  -1   3   8    5.16    0.42
  -1   3   8    5.42    0.60
   0  -3  -8   10.33    0.59
   0  -3  -8   10.09    0.76
   0   3   8    8.72    0.64
   0   3   8    9.89    0.53
  -1  -3  -8   46.53    1.55
  -1  -3  -8   37.83    1.53
   1   3   8   44.63    1.35
   1   3   8   44.32    1.55
  -2  -3  -8   21.48    1.09
   2   3   8   22.34    0.86
   2   3   8   23.37    1.12
   3   3   8    2.24    0.41
   3   3   8    1.48    0.57
   9  -4  -8    0.58    0.37
   9  -4  -8    0.67    0.55
  -9   4   8    0.40    0.35
   8  -4  -8    9.16    0.77
   8  -4  -8    8.83    0.60
  -8   4   8    7.85    0.54
   7  -4  -8    6.35    0.67
   7  -4  -8    6.67    0.51
  -7   4   8    6.99    0.47
   6  -4  -8    0.69    0.28
   6  -4  -8    0.89    0.42
  -6   4   8    1.04    0.26
   5  -4  -8   11.79    0.74
   5  -4  -8   12.07    0.60
  -5   4   8   13.78    0.56
   4  -4  -8   53.77    1.65
   4  -4  -8   58.06    1.84
  -4   4   8   57.96    1.61
  -4   4   8   56.20    1.73
   3  -4  -8   28.43    1.00
   3  -4  -8   30.06    1.20
  -3   4   8   29.40    1.10
  -3   4   8   29.79    0.93
   2  -4  -8    2.74    0.53
   2  -4  -8    2.24    0.34
  -2   4   8    1.71    0.25
  -2   4   8    2.22    0.39
   1  -4  -8   27.27    1.17
   1  -4  -8   26.88    0.97
  -1   4   8   27.61    0.89
  -1   4   8   25.33    1.05
   0  -4  -8    3.77    0.58
   0  -4  -8    4.50    0.51
   0   4   8    3.43    0.34
   0   4   8    3.41    0.53
  -1  -4  -8    7.82    0.61
  -1  -4  -8    6.39    0.73
   1   4   8    6.82    0.51
   1   4   8    7.00    0.75
   2   4   8   -0.36    0.54
   2   4   8    0.12    0.32
   3   4   8   16.04    1.04
  10  -5  -8    2.10    0.68
  10  -5  -8    2.31    0.49
   9  -5  -8   22.46    0.95
   9  -5  -8   22.76    1.15
  -9   5   8   20.74    0.84
   8  -5  -8   14.25    0.71
   8  -5  -8   14.10    0.92
  -8   5   8   13.72    0.64
   7  -5  -8    1.85    0.46
   7  -5  -8    1.86    0.32
  -7   5   8    1.98    0.29
   6  -5  -8   12.27    0.75
   6  -5  -8   11.77    0.59
  -6   5   8   11.30    0.51
   5  -5  -8    7.32    0.48
   5  -5  -8    7.58    0.62
  -5   5   8    6.47    0.39
   4  -5  -8    0.36    0.40
   4  -5  -8    0.61    0.27
  -4   5   8    0.60    0.21
  -4   5   8    0.65    0.36
   3  -5  -8    0.13    0.40
   3  -5  -8    0.41    0.30
  -3   5   8    0.23    0.20
  -3   5   8    0.05    0.36
   2  -5  -8   26.74    1.19
   2  -5  -8   25.50    0.95
  -2   5   8   26.46    1.09
  -2   5   8   26.69    0.85
   1  -5  -8   33.00    1.34
   1  -5  -8   32.24    1.11
  -1   5   8   32.60    1.27
  -1   5   8   32.10    1.00
   0  -5  -8   14.86    0.94
   0  -5  -8   12.42    0.70
   0   5   8   12.63    0.86
   0   5   8   13.12    0.57
  -1  -5  -8    0.70    0.39
  -1  -5  -8    0.22    0.53
   1   5   8    0.01    0.29
   1   5   8    0.42    0.53
   2   5   8    6.96    0.93
   9  -6  -8    0.23    0.60
   9  -6  -8    0.49    0.39
  -9   6   8    0.38    0.29
   8  -6  -8   10.82    0.90
   8  -6  -8    9.63    0.63
  -8   6   8    9.39    0.47
   7  -6  -8   16.56    0.91
   7  -6  -8   14.54    0.72
  -7   6   8   15.61    0.55
   6  -6  -8   16.20    0.73
   6  -6  -8   17.72    0.96
  -6   6   8   15.93    0.54
   5  -6  -8    1.57    0.31
   5  -6  -8    1.73    0.50
  -5   6   8    1.18    0.19
   4  -6  -8   24.21    0.91
   4  -6  -8   25.28    1.09
  -4   6   8   23.84    0.73
  -4   6   8   23.80    0.98
   3  -6  -8   16.47    0.98
   3  -6  -8   18.52    0.77
  -3   6   8   16.45    0.57
  -3   6   8   16.97    0.86
   2  -6  -8    3.58    0.40
   2  -6  -8    3.40    0.62
  -2   6   8    3.31    0.30
  -2   6   8    3.07    0.51
   1  -6  -8    1.00    0.34
   1  -6  -8    1.01    0.56
  -1   6   8    0.40    0.23
  -1   6   8    0.72    0.51
   0  -6  -8    1.06    0.40
   0  -6  -8    1.92    0.62
   0   6   8    0.48    0.57
  -1  -6  -8   21.18    0.98
   1   6   8   19.19    0.76
   1   6   8   21.05    1.19
   9  -7  -8   12.04    1.06
   9  -7  -8   11.49    0.73
   8  -7  -8    7.95    0.63
   8  -7  -8    8.37    0.90
   7  -7  -8    2.16    0.38
   7  -7  -8    2.37    0.60
   6  -7  -8   -0.07    0.49
   6  -7  -8   -0.08    0.29
   5  -7  -8    5.68    0.71
   5  -7  -8    7.59    0.58
   4  -7  -8   15.02    0.99
   4  -7  -8   14.25    0.75
   3  -7  -8    1.07    0.56
   3  -7  -8    0.59    0.33
  -3   7   8    0.85    0.48
   2  -7  -8    2.56    0.39
   2  -7  -8    3.18    0.70
  -2   7   8    3.16    0.59
   1  -7  -8   17.16    1.12
   1  -7  -8   16.46    0.80
  -1   7   8   15.79    0.54
  -1   7   8   13.78    0.99
   0  -7  -8    3.12    0.49
   0   7   8    2.42    0.64
   0   7   8    3.42    0.37
   8  -8  -8    3.08    0.44
   7  -8  -8   11.84    1.03
   7  -8  -8   10.22    0.68
   6  -8  -8   26.43    1.25
   6  -8  -8   28.09    1.03
   5  -8  -8   14.62    0.76
   5  -8  -8   14.29    1.05
   4  -8  -8   -0.22    0.62
   4  -8  -8    0.52    0.35
   3  -8  -8   -0.14    0.35
   3  -8  -8   -0.13    0.58
  -3   8   8   -0.29    0.50
   2  -8  -8    2.14    0.70
   2  -8  -8    3.27    0.46
  -2   8   8    2.44    0.62
   1  -8  -8    6.99    0.68
   6  -9  -8    0.85    0.42
   6  -9  -8    1.01    0.70
   5  -9  -8    4.70    0.51
   5  -9  -8    4.00    0.74
   4  -9  -8   13.83    1.17
   4  -9  -8   14.17    0.86
   3  -9  -8    3.69    0.83
   2 -12   9   13.54    1.03
   1  11  -9    9.30    1.08
  -1 -11   9    9.38    0.91
  -1 -11   9    8.45    0.59
   0  11  -9   16.74    1.31
   0 -11   9   20.88    0.81
   0 -11   9   21.88    1.12
  -1  11  -9   29.17    1.53
   1 -11   9   30.04    1.29
   1 -11   9   29.88    1.05
  -2  11  -9    1.31    0.64
   2 -11   9    1.18    0.59
   2 -11   9    0.28    0.34
  -3  11  -9    1.71    0.74
   3 -11   9    2.13    0.41
   3 -11   9    2.17    0.72
   3 -11   9    2.97    0.66
  -4  11  -9   -0.41    0.67
   3  10  -9   -0.10    0.75
  -3 -10   9   -0.35    0.32
  -3 -10   9    0.22    0.53
   2  10  -9    1.87    0.78
  -2 -10   9    2.18    0.36
  -2 -10   9    3.14    0.59
   1  10  -9    0.20    0.57
  -1 -10   9    0.74    0.28
  -1 -10   9    1.18    0.53
   0  10  -9    1.71    0.68
   0 -10   9    0.88    0.51
   0 -10   9    0.99    0.28
  -1  10  -9    0.85    0.66
   1 -10   9    1.32    0.53
   1 -10   9    1.13    0.32
  -2  10  -9   38.70    1.60
   2 -10   9   36.74    1.26
   2 -10   9   38.81    1.45
  -3  10  -9   28.38    1.15
  -3  10  -9   29.32    1.39
   3 -10   9   28.07    1.37
   3 -10   9   26.54    1.23
   3 -10   9   25.59    1.03
  -4  10  -9    2.80    0.55
  -4  10  -9    3.23    0.74
   4 -10   9    2.67    0.42
   4 -10   9    3.02    0.73
   4 -10   9    3.20    0.79
  -5  10  -9    1.36    0.58
   4   9  -9    7.91    0.98
   4   9  -9    7.96    0.47
  -4  -9   9    7.56    0.82
  -4  -9   9    7.72    0.62
   3   9  -9   30.83    1.42
  -3  -9   9   31.55    1.06
  -3  -9   9   30.23    1.26
   2   9  -9   34.39    1.46
  -2  -9   9   33.38    1.09
  -2  -9   9   34.02    1.31
   1   9  -9    7.88    0.90
  -1  -9   9    7.19    0.49
  -1  -9   9    8.50    0.74
   0   9  -9    2.55    0.65
   0  -9   9    2.93    0.52
   0  -9   9    1.98    0.29
  -1   9  -9    4.92    0.72
   1  -9   9    4.58    0.49
   1  -9   9    4.24    0.57
  -2   9  -9    0.01    0.53
  -2   9  -9    0.14    0.39
   2  -9   9    0.62    0.31
   2  -9   9    0.02    0.46
  -3   9  -9    0.25    0.57
  -3   9  -9   -0.10    0.40
   3  -9   9   -0.12    0.48
   3  -9   9   -0.16    0.57
   3  -9   9    0.32    0.31
  -4   9  -9    9.97    0.81
  -4   9  -9   10.86    0.96
   4  -9   9   10.37    0.95
   4  -9   9   10.21    0.96
   4  -9   9   10.30    0.70
  -5   9  -9   32.62    1.41
   5  -9   9   33.94    1.55
   5  -9   9   32.21    1.19
   5   8  -9    0.40    0.61
   5   8  -9    0.42    0.39
  -5  -8   9    0.18    0.36
  -5  -8   9    0.51    0.53
   4   8  -9    1.78    0.36
   4   8  -9    2.43    0.62
  -4  -8   9    2.15    0.36
  -4  -8   9    1.65    0.51
   3   8  -9    0.61    0.26
   3   8  -9    0.54    0.52
  -3  -8   9    0.38    0.45
  -3  -8   9    0.95    0.29
   2   8  -9    5.78    0.38
   2   8  -9    5.81    0.69
  -2  -8   9    5.09    0.45
  -2  -8   9    5.25    0.57
   1   8  -9   25.59    0.79
   1   8  -9   27.00    1.23
  -1  -8   9   27.59    1.08
  -1  -8   9   26.90    0.90
   0   8  -9   29.67    0.83
   0   8  -9   29.35    1.25
   0  -8   9   30.03    1.12
   0  -8   9   27.87    0.96
  -1   8  -9    2.22    0.58
  -1   8  -9    2.24    0.19
  -1   8  -9    2.66    0.46
   1  -8   9    2.97    0.35
   1  -8   9    4.50    0.56
  -2   8  -9   -0.02    0.42
  -2   8  -9    0.05    0.40
  -2   8  -9    0.19    0.12
   2  -8   9   -0.21    0.30
   2  -8   9    0.02    0.44
  -3   8  -9    5.81    0.67
  -3   8  -9    6.32    0.28
  -3   8  -9    6.47    0.71
   3  -8   9    5.39    0.70
   3  -8   9    6.06    0.56
   3  -8   9    6.56    0.74
  -4   8  -9    0.57    0.50
  -4   8  -9    0.16    0.16
  -4   8  -9   -0.13    0.53
   4  -8   9    0.76    0.36
   4  -8   9    0.30    0.56
   4  -8   9    0.60    0.52
  -5   8  -9    0.79    0.55
  -5   8  -9    0.81    0.21
   5  -8   9    0.80    0.64
   5  -8   9    1.06    0.38
   6   7  -9   21.90    1.32
   6   7  -9   25.16    0.97
  -6  -7   9   21.88    1.27
   5   7  -9   25.96    1.32
   5   7  -9   25.86    0.97
  -5  -7   9   24.84    1.11
  -5  -7   9   25.95    0.97
   4   7  -9   14.19    1.00
   4   7  -9   13.88    0.69
  -4  -7   9   14.07    0.65
  -4  -7   9   13.41    0.81
   3   7  -9    3.08    0.34
   3   7  -9    2.44    0.57
  -3  -7   9    2.49    0.32
  -3  -7   9    2.74    0.43
   2   7  -9    3.64    0.60
   2   7  -9    3.53    0.39
  -2  -7   9    3.69    0.48
  -2  -7   9    3.14    0.32
   1   7  -9   -0.04    0.20
   1   7  -9    0.31    0.39
  -1  -7   9    0.27    0.22
  -1  -7   9    0.13    0.36
   0   7  -9    0.47    0.20
   0   7  -9    0.32    0.46
   0   7  -9    0.25    0.33
   0  -7   9    0.42    0.25
   0  -7   9    0.07    0.34
  -1   7  -9    5.61    0.33
  -1   7  -9    6.82    0.59
  -1   7  -9    6.44    0.65
   1  -7   9    6.94    0.51
   1  -7   9    6.46    0.64
  -2   7  -9   58.60    1.60
  -2   7  -9   59.00    1.92
  -2   7  -9   56.23    1.84
   2  -7   9   58.05    1.89
   2  -7   9   57.64    1.74
  -3   7  -9   63.75    2.00
  -3   7  -9   57.40    1.97
  -3   7  -9   60.51    1.69
   3  -7   9   60.66    1.84
   3  -7   9   60.26    2.02
   3  -7   9   67.08    2.05
  -4   7  -9    0.91    0.49
  -4   7  -9    0.86    0.52
  -4   7  -9    0.69    0.22
   4  -7   9    0.98    0.58
   4  -7   9    0.44    0.56
   4  -7   9    1.07    0.37
  -5   7  -9    3.78    0.66
  -5   7  -9    3.76    0.40
   5  -7   9    3.22    0.68
   5  -7   9    4.40    0.50
   6  -7   9    0.45    0.65
   6  -7   9    0.66    0.45
   7   6  -9    5.49    0.75
   6   6  -9   -0.18    0.51
   6   6  -9    0.09    0.35
   5   6  -9    0.15    0.52
   5   6  -9    0.77    0.32
  -5  -6   9    1.39    0.35
  -5  -6   9    0.54    0.42
   4   6  -9   19.03    0.77
   4   6  -9   18.61    0.95
  -4  -6   9   17.52    0.87
  -4  -6   9   19.66    0.76
   3   6  -9   91.93    2.51
   3   6  -9   93.56    2.73
  -3  -6   9   89.52    2.48
  -3  -6   9   86.14    2.59
   2   6  -9   44.68    1.54
   2   6  -9   42.58    1.34
  -2  -6   9   44.99    1.34
  -2  -6   9   47.28    1.49
   1   6  -9    0.72    0.33
   1   6  -9    0.46    0.37
   1   6  -9    0.72    0.24
  -1  -6   9    0.48    0.22
  -1  -6   9    0.69    0.34
   0   6  -9   19.22    0.93
   0   6  -9   18.42    0.81
   0   6  -9   18.49    0.67
   0  -6   9   18.02    0.73
   0  -6   9   18.13    0.86
  -1   6  -9    8.81    0.63
  -1   6  -9    8.39    0.69
  -1   6  -9    8.41    0.42
   1  -6   9    7.73    0.53
   1  -6   9    8.04    0.66
  -2   6  -9    0.18    0.21
  -2   6  -9    0.22    0.38
  -2   6  -9   -0.10    0.39
   2  -6   9   -0.28    0.43
   2  -6   9   -0.38    0.43
   2  -6   9    0.12    0.28
  -3   6  -9    5.00    0.40
  -3   6  -9    5.56    0.66
  -3   6  -9    5.73    0.69
   3  -6   9    6.14    0.55
   3  -6   9    5.15    0.65
   3  -6   9    5.39    0.67
  -4   6  -9   21.69    0.78
  -4   6  -9   21.19    1.04
   4  -6   9   22.67    0.91
   4  -6   9   21.69    1.07
   4  -6   9   22.30    1.11
  -5   6  -9   21.34    0.80
  -5   6  -9   20.98    1.17
   5  -6   9   21.39    1.13
   5  -6   9   20.88    0.95
   6  -6   9    6.38    0.81
   7   5  -9   12.70    0.76
   7   5  -9   10.08    1.01
   6   5  -9    0.33    0.49
   6   5  -9    0.09    0.35
   5   5  -9    1.57    0.50
   5   5  -9    1.81    0.33
  -5  -5   9    1.57    0.42
   4   5  -9    9.92    0.58
   4   5  -9    9.36    0.74
  -4  -5   9    8.30    0.52
  -4  -5   9    8.89    0.63
   3   5  -9    4.15    0.53
   3   5  -9    4.24    0.45
  -3  -5   9    3.56    0.45
  -3  -5   9    4.15    0.40
   2   5  -9   10.17    0.54
   2   5  -9    8.98    0.71
   2   5  -9   10.62    0.70
  -2  -5   9    9.86    0.49
  -2  -5   9   10.19    0.60
   1   5  -9   44.19    1.33
   1   5  -9   44.92    1.45
   1   5  -9   44.69    1.51
  -1  -5   9   45.41    1.35
  -1  -5   9   45.15    1.48
   0   5  -9   50.10    1.63
   0   5  -9   48.72    1.60
   0   5  -9   50.74    1.45
   0  -5   9   49.25    1.62
   0  -5   9   48.00    1.48
  -1   5  -9   19.64    0.89
  -1   5  -9   18.24    0.87
  -1   5  -9   19.22    0.70
   1  -5   9   17.93    0.76
   1  -5   9   19.13    0.93
  -2   5  -9    0.94    0.26
  -2   5  -9    0.80    0.38
  -2   5  -9    0.98    0.42
   2  -5   9    0.66    0.41
   2  -5   9    1.36    0.44
   2  -5   9    0.94    0.29
  -3   5  -9   19.21    0.78
  -3   5  -9   22.82    0.99
  -3   5  -9   19.81    0.97
   3  -5   9   21.41    1.05
   3  -5   9   21.06    0.86
   3  -5   9   23.65    1.02
  -4   5  -9    5.05    0.48
  -4   5  -9    6.08    0.77
   4  -5   9    4.79    0.61
   4  -5   9    5.56    0.60
   4  -5   9    5.81    0.69
  -5   5  -9    1.24    0.55
  -5   5  -9    1.83    0.38
   8   4  -9    1.03    0.66
   8   4  -9    1.60    0.46
   7   4  -9    5.84    0.59
   7   4  -9    4.51    0.63
   6   4  -9   34.71    1.14
   6   4  -9   31.50    1.31
   5   4  -9   42.19    1.31
   5   4  -9   41.18    1.47
  -5  -4   9   41.34    1.39
   4   4  -9   10.55    0.70
   4   4  -9   10.79    0.56
  -4  -4   9   10.28    0.54
  -4  -4   9   10.46    0.64
   3   4  -9   37.47    1.19
   3   4  -9   37.51    1.30
  -3  -4   9   36.41    1.27
  -3  -4   9   38.40    1.16
   2   4  -9   35.65    1.24
   2   4  -9   36.04    1.15
   2   4  -9   36.86    1.23
  -2  -4   9   35.25    1.25
  -2  -4   9   35.34    1.11
   1   4  -9    2.63    0.31
   1   4  -9    2.14    0.41
   1   4  -9    2.15    0.40
  -1  -4   9    2.17    0.39
  -1  -4   9    1.69    0.29
   0   4  -9    6.91    0.59
   0   4  -9    7.09    0.45
   0   4  -9    6.25    0.57
   0  -4   9    6.93    0.63
   0  -4   9    7.08    0.49
  -1   4  -9   41.78    1.52
  -1   4  -9   49.59    1.50
  -1   4  -9   44.34    1.37
   1  -4   9   46.75    1.41
  -2   4  -9   78.47    2.30
  -2   4  -9   78.42    2.20
  -2   4  -9   76.99    2.39
   2  -4   9   78.42    2.40
   2  -4   9   79.05    2.24
   2  -4   9   77.66    2.30
  -3   4  -9    2.70    0.49
  -3   4  -9    3.55    0.38
   3  -4   9    4.01    0.56
   3  -4   9    3.03    0.50
   3  -4   9    3.88    0.67
  -4   4  -9   26.08    1.23
  -4   4  -9   25.47    0.96
   4  -4   9   27.17    1.23
  -5   4  -9   14.18    0.74
  -5   4  -9   14.95    1.07
   5  -4   9   15.42    0.99
   8   3  -9    7.12    0.70
   8   3  -9    7.82    0.92
   7   3  -9   15.03    0.74
   7   3  -9   14.46    0.93
   6   3  -9    4.33    0.49
   6   3  -9    5.30    0.64
   5   3  -9    1.55    0.34
   5   3  -9    0.99    0.39
  -5  -3   9    1.53    0.41
   4   3  -9   23.27    0.95
   4   3  -9   23.83    0.85
  -4  -3   9   23.84    0.93
   3   3  -9   44.84    1.46
   3   3  -9   44.83    1.35
   3   3  -9   43.45    1.42
  -3  -3   9   44.01    1.32
  -3  -3   9   43.41    1.44
   2   3  -9   11.27    0.63
   2   3  -9   11.40    0.67
   2   3  -9   10.62    0.57
  -2  -3   9   11.77    0.56
  -2  -3   9   11.21    0.66
   1   3  -9   12.35    0.72
   1   3  -9   12.11    0.66
   1   3  -9   14.48    0.59
  -1  -3   9   14.25    0.61
  -1  -3   9   12.66    0.69
   0   3  -9   54.40    1.71
   0   3  -9   58.25    1.66
   0   3  -9   56.52    1.81
   0  -3   9   56.08    1.67
   0  -3   9   58.64    1.83
  -1   3  -9   18.50    0.77
  -1   3  -9   15.62    0.82
  -1   3  -9   17.51    0.71
   1  -3   9   17.20    0.89
   1  -3   9   17.99    0.80
  -2   3  -9    0.96    0.29
  -2   3  -9    0.91    0.43
   2  -3   9    1.49    0.43
  -3   3  -9    0.39    0.41
  -3   3  -9    0.84    0.33
   3  -3   9    0.80    0.47
  -4   3  -9    5.96    0.60
  -4   3  -9    7.23    0.83
   4  -3   9    7.26    0.78
  -5   3  -9   15.64    0.82
  -5   3  -9   17.45    1.14
   5  -3   9   15.85    1.04
   9   2  -9    1.39    0.67
   8   2  -9    4.82    0.65
   7   2  -9    1.84    0.49
   7   2  -9    2.43    0.47
   6   2  -9    6.25    0.52
   6   2  -9    6.70    0.64
   5   2  -9   36.23    1.24
   5   2  -9   36.09    1.16
  -5  -2   9   34.50    1.22
   4   2  -9   22.88    0.89
   4   2  -9   22.92    0.82
   4   2  -9   21.36    0.94
  -4  -2   9   22.77    0.91
   3   2  -9    4.38    0.44
   3   2  -9    5.10    0.44
   3   2  -9    3.71    0.53
  -3  -2   9    4.43    0.52
   2   2  -9    2.76    0.35
   2   2  -9    2.00    0.33
   2   2  -9    2.47    0.43
  -2  -2   9    1.79    0.37
   1   2  -9   40.33    1.31
   1   2  -9   41.32    1.27
   1   2  -9   41.50    1.41
  -1  -2   9   41.72    1.42
   0   2  -9   33.13    1.22
   0   2  -9   30.52    1.05
   0  -2   9   32.23    1.21
  -1   2  -9    0.54    0.36
  -1   2  -9    0.53    0.27
   1  -2   9    0.49    0.37
  -2   2  -9   30.69    1.05
  -2   2  -9   30.87    1.23
   2  -2   9   28.95    1.17
  -3   2  -9   23.15    1.07
  -3   2  -9   23.18    0.94
   3  -2   9   23.34    1.08
  -4   2  -9    2.69    0.44
  -4   2  -9    3.78    0.67
   4  -2   9    3.29    0.58
  -5   2  -9   -0.15    0.62
  -5   2  -9    0.25    0.43
   5  -2   9    0.41    0.62
   9   1  -9    5.79    0.79
   8   1  -9    0.75    0.49
   7   1  -9    6.19    0.66
  -7  -1   9    5.66    0.57
   6   1  -9    7.88    0.62
  -6  -1   9    7.24    0.55
   5   1  -9    3.37    0.37
   5   1  -9    2.92    0.47
   5   1  -9    2.68    0.39
  -5  -1   9    2.09    0.33
  -5  -1   9    2.04    0.42
   4   1  -9    3.48    0.40
   4   1  -9    3.18    0.38
   4   1  -9    3.27    0.49
  -4  -1   9    3.87    0.50
   3   1  -9   29.44    1.12
   3   1  -9   28.11    0.96
   3   1  -9   28.20    0.96
  -3  -1   9   27.77    1.05
  -3  -1   9   27.92    0.96
   2   1  -9   27.05    0.95
   2   1  -9   26.36    1.04
  -2  -1   9   26.44    0.94
  -2  -1   9   28.29    1.07
   1   1  -9    0.63    0.25
   1   1  -9    0.56    0.34
  -1  -1   9    0.52    0.26
  -1  -1   9    0.82    0.39
   0   1  -9    2.46    0.42
   0   1  -9    2.88    0.35
   0  -1   9    2.19    0.34
   0  -1   9    1.92    0.44
  -1   1  -9   12.28    0.80
  -1   1  -9   13.91    0.66
   1  -1   9   12.27    0.80
  -2   1  -9   23.79    0.91
  -2   1  -9   22.06    1.02
   2  -1   9   22.04    1.03
  -3   1  -9    1.89    0.43
  -3   1  -9    1.93    0.53
   3  -1   9    1.59    0.53
  -4   1  -9   23.90    1.25
   4  -1   9   26.87    1.22
  -5   1  -9    7.91    1.03
   5  -1   9    8.01    0.96
   9   0  -9    4.62    0.69
  -9   0   9    4.81    0.54
   8   0  -9   26.20    1.15
  -8   0   9   27.16    1.04
   7   0  -9   24.14    1.00
  -7   0   9   23.64    0.93
   6   0  -9    0.87    0.42
   6   0  -9    0.96    0.37
  -6   0   9    0.76    0.30
   5   0  -9    0.25    0.39
   5   0  -9    0.14    0.30
  -5   0   9    0.01    0.25
  -5   0   9    0.28    0.38
   4   0  -9    3.89    0.50
  -4   0   9    4.05    0.51
  -4   0   9    3.96    0.43
   3   0  -9   47.20    1.59
  -3   0   9   45.82    1.53
  -3   0   9   46.87    1.42
   2   0  -9    5.63    0.62
  -2   0   9    6.79    0.59
  -2   0   9    6.21    0.48
   1   0  -9   30.62    1.20
  -1   0   9   33.53    1.09
  -1   0   9   34.22    1.23
   0   0  -9   76.95    2.40
   0   0   9   80.84    2.39
   0   0   9   81.11    2.26
  -1   0  -9   15.27    0.83
   1   0   9   15.01    0.67
   1   0   9   14.88    0.79
  -2   0  -9    0.20    0.46
   2   0   9    0.34    0.47
   2   0   9    0.14    0.33
  -3   0  -9    0.80    0.54
   3   0   9    0.29    0.45
  -4   0  -9   15.38    1.08
   4   0   9   14.91    1.02
   9  -1  -9    0.75    0.54
  -9   1   9    0.95    0.43
   8  -1  -9    0.92    0.45
  -8   1   9    0.49    0.37
   7  -1  -9    1.03    0.47
   7  -1  -9    0.55    0.63
  -7   1   9    0.66    0.32
   6  -1  -9   29.68    1.17
   5  -1  -9   28.20    1.15
   5  -1  -9   27.87    1.08
  -5   1   9   30.85    1.01
   4  -1  -9   37.47    1.35
   4  -1  -9   37.93    1.20
  -4   1   9   36.51    1.29
   3  -1  -9    1.50    0.30
   3  -1  -9    2.58    0.48
  -3   1   9    2.17    0.30
  -3   1   9    2.58    0.45
   2  -1  -9    0.12    0.25
   2  -1  -9   -0.03    0.33
  -2   1   9    0.11    0.25
  -2   1   9    0.11    0.36
   1  -1  -9    1.72    0.43
  -1   1   9    2.71    0.49
  -1   1   9    2.39    0.31
   0  -1  -9    4.41    0.56
   0   1   9    3.86    0.53
   0   1   9    4.04    0.43
  -1  -1  -9   12.54    0.78
   1   1   9   12.78    0.78
   1   1   9   12.89    0.64
  -2  -1  -9   42.08    1.57
   2   1   9   42.70    1.36
   2   1   9   40.28    1.54
  -3  -1  -9   33.32    1.42
   3   1   9   32.50    1.40
   3   1   9   34.15    1.20
  -4  -1  -9   -0.02    0.62
   4   1   9   -0.04    0.44
   4   1   9    0.41    0.65
  -9   2   9   10.86    0.74
   8  -2  -9    6.54    0.73
  -8   2   9    5.53    0.57
   7  -2  -9    0.77    0.44
  -7   2   9    0.53    0.29
   6  -2  -9    0.53    0.41
   6  -2  -9    0.69    0.31
  -6   2   9    0.84    0.29
   5  -2  -9    3.44    0.38
   5  -2  -9    2.31    0.44
  -5   2   9    2.49    0.33
   4  -2  -9   22.82    0.88
   4  -2  -9   23.54    1.01
  -4   2   9   24.74    0.87
  -4   2   9   24.46    0.98
   3  -2  -9   87.27    2.60
   3  -2  -9   87.14    2.42
  -3   2   9   82.99    2.51
  -3   2   9   84.77    2.38
   2  -2  -9   34.26    1.13
   2  -2  -9   35.01    1.33
  -2   2   9   33.17    1.07
  -2   2   9   32.46    1.21
   1  -2  -9    0.13    0.29
   1  -2  -9    0.00    0.37
  -1   2   9    0.04    0.37
  -1   2   9    0.09    0.24
   0  -2  -9    0.93    0.47
   0   2   9    1.01    0.28
   0   2   9    0.97    0.46
  -1  -2  -9    1.38    0.45
   1   2   9    0.81    0.34
   1   2   9    0.73    0.50
  -2  -2  -9    3.11    0.60
   2   2   9    2.80    0.42
   2   2   9    2.13    0.52
  -3  -2  -9    1.35    0.62
   3   2   9    2.01    0.42
   3   2   9    1.56    0.61
   9  -3  -9   46.94    1.70
  -9   3   9   43.10    1.46
   8  -3  -9   59.82    1.98
  -8   3   9   57.98    1.77
   7  -3  -9   13.31    0.86
   7  -3  -9   14.61    0.73
  -7   3   9   14.33    0.70
   6  -3  -9    1.88    0.49
   6  -3  -9    2.04    0.35
  -6   3   9    2.39    0.35
   5  -3  -9    4.99    0.47
   5  -3  -9    5.94    0.59
  -5   3   9    5.42    0.47
   4  -3  -9    0.92    0.41
   4  -3  -9    1.31    0.33
  -4   3   9    0.78    0.28
  -4   3   9    1.11    0.41
   3  -3  -9   -0.06    0.42
   3  -3  -9    0.01    0.30
  -3   3   9    0.06    0.22
  -3   3   9    0.05    0.38
   2  -3  -9   10.07    0.75
   2  -3  -9   11.55    0.63
  -2   3   9   10.74    0.75
  -2   3   9   11.19    0.54
   1  -3  -9   43.46    1.58
   1  -3  -9   43.41    1.39
  -1   3   9   43.64    1.53
  -1   3   9   42.12    1.31
   0  -3  -9   35.81    1.42
   0   3   9   35.95    1.35
   0   3   9   36.26    1.17
  -1  -3  -9    3.15    0.55
   1   3   9    3.57    0.41
   1   3   9    3.44    0.60
  -2  -3  -9    2.90    0.65
   2   3   9    2.55    0.64
   2   3   9    2.86    0.40
   3   3   9    1.96    0.59
   9  -4  -9    1.21    0.63
  -9   4   9    0.96    0.39
   8  -4  -9    1.60    0.52
   8  -4  -9    1.85    0.37
  -8   4   9    2.24    0.37
   7  -4  -9    1.89    0.53
   7  -4  -9    1.86    0.38
  -7   4   9    2.27    0.35
   6  -4  -9   35.37    1.19
   6  -4  -9   35.10    1.38
  -6   4   9   36.80    1.15
   5  -4  -9   36.27    1.17
   5  -4  -9   32.63    1.30
  -5   4   9   35.13    1.10
   4  -4  -9    4.35    0.50
   4  -4  -9    5.09    0.62
  -4   4   9    4.90    0.40
  -4   4   9    4.63    0.63
   3  -4  -9    2.01    0.36
   3  -4  -9    1.38    0.52
  -3   4   9    1.39    0.25
  -3   4   9    1.48    0.46
   2  -4  -9   11.38    0.66
   2  -4  -9   11.16    0.88
  -2   4   9   12.19    0.55
  -2   4   9   11.34    0.79
   1  -4  -9    1.03    0.32
   1  -4  -9    0.79    0.50
  -1   4   9    1.58    0.30
  -1   4   9    1.42    0.50
   0  -4  -9    0.03    0.34
   0  -4  -9   -0.05    0.50
   0   4   9    0.25    0.28
   0   4   9   -0.13    0.44
  -1  -4  -9   13.53    0.98
   1   4   9   15.48    1.01
   1   4   9   13.78    0.71
   2   4   9   17.62    1.80
   2   4   9   16.27    0.87
   9  -5  -9    1.42    0.68
   9  -5  -9    2.13    0.46
  -9   5   9    2.10    0.40
   8  -5  -9    3.39    0.45
   8  -5  -9    3.69    0.69
  -8   5   9    3.82    0.40
   7  -5  -9    1.32    0.49
   7  -5  -9    1.81    0.37
  -7   5   9    1.43    0.31
   6  -5  -9    0.92    0.50
   6  -5  -9    0.71    0.31
  -6   5   9    1.20    0.27
   5  -5  -9    3.30    0.52
   5  -5  -9    4.38    0.43
  -5   5   9    4.58    0.37
   4  -5  -9   25.93    1.19
   4  -5  -9   24.86    0.96
  -4   5   9   25.91    0.85
  -4   5   9   24.27    1.04
   3  -5  -9   40.06    1.53
   3  -5  -9   38.86    1.29
  -3   5   9   36.96    1.40
  -3   5   9   39.10    1.16
   2  -5  -9    9.72    0.90
   2  -5  -9    9.28    0.62
  -2   5   9    8.20    0.78
  -2   5   9    8.73    0.50
   1  -5  -9    3.75    0.41
   1  -5  -9    4.40    0.68
  -1   5   9    4.20    0.43
  -1   5   9    3.39    0.62
   0  -5  -9    0.92    0.42
   0  -5  -9    0.48    0.56
   0   5   9    0.69    0.29
   0   5   9    0.24    0.57
   1   5   9   -0.14    0.37
   1   5   9   -0.55    0.63
   9  -6  -9    8.84    1.02
   9  -6  -9    8.85    0.75
  -9   6   9    9.15    0.55
   8  -6  -9   16.08    1.02
   8  -6  -9   16.01    0.82
  -8   6   9   14.34    0.59
   7  -6  -9    2.78    0.62
   7  -6  -9    3.73    0.46
  -7   6   9    3.47    0.34
   6  -6  -9    0.45    0.48
   6  -6  -9    1.14    0.36
  -6   6   9    0.60    0.23
   5  -6  -9    1.83    0.53
   5  -6  -9    2.01    0.38
  -5   6   9    1.52    0.24
   4  -6  -9    0.62    0.57
   4  -6  -9    0.84    0.38
  -4   6   9    0.83    0.23
  -4   6   9    0.62    0.76
   3  -6  -9    0.19    0.34
   3  -6  -9    0.36    0.51
  -3   6   9   -0.27    0.42
  -3   6   9   -0.06    0.22
   2  -6  -9   10.48    0.70
   2  -6  -9   10.19    0.88
  -2   6   9    9.16    0.47
  -2   6   9    9.47    0.85
   1  -6  -9   37.05    1.52
   1  -6  -9   35.09    1.25
  -1   6   9   32.87    1.44
  -1   6   9   33.10    1.07
   0  -6  -9    7.14    0.73
   0   6   9    6.47    0.91
   8  -7  -9    0.11    0.42
   8  -7  -9    0.45    0.74
   7  -7  -9    5.32    0.78
   7  -7  -9    4.20    0.47
   6  -7  -9   35.08    1.48
   6  -7  -9   35.06    1.26
   5  -7  -9   32.21    1.17
   5  -7  -9   30.23    1.37
   4  -7  -9   -0.01    0.36
   4  -7  -9    0.05    0.62
   3  -7  -9    9.09    1.02
   3  -7  -9    7.42    0.64
  -3   7   9    7.51    0.84
   2  -7  -9    5.99    0.85
   2  -7  -9    5.97    0.64
  -2   7   9    6.12    0.33
  -2   7   9    5.78    0.78
   1  -7  -9    0.11    0.41
   6  -8  -9    0.16    0.69
   6  -8  -9    0.24    0.40
   5  -8  -9    0.71    0.72
   5  -8  -9    0.09    0.43
   4  -8  -9   13.31    1.18
   4  -8  -9   14.06    0.83
   3  -8  -9   16.96    1.26
   3  -8  -9   14.79    1.03
  -3   8   9   15.81    1.06
   0 -11  10   -0.14    0.58
   0 -11  10    0.47    0.93
  -1  11 -10    1.32    1.17
   1 -11  10    0.72    0.45
   1 -11  10    0.48    0.63
   2 -11  10    7.37    0.94
   2  10 -10   11.45    1.06
  -2 -10  10   10.20    0.67
  -2 -10  10   11.72    0.97
   1  10 -10    0.91    0.75
  -1 -10  10    0.95    0.56
  -1 -10  10    1.34    0.34
   0  10 -10   26.09    1.41
   0 -10  10   25.47    0.97
   0 -10  10   24.35    1.20
  -1  10 -10   29.53    1.44
   1 -10  10   33.01    1.16
   1 -10  10   32.45    1.38
  -2  10 -10    6.82    0.86
   2 -10  10    6.86    0.86
   2 -10  10    6.23    0.67
  -3  10 -10    0.25    0.68
  -3  10 -10    1.30    0.61
   3 -10  10    0.34    0.56
   3 -10  10    0.66    0.66
   3 -10  10    1.00    0.41
   4   9 -10   20.91    0.78
  -4  -9  10   21.03    0.94
  -4  -9  10   20.73    1.15
   3   9 -10    2.30    0.27
   3   9 -10    4.24    0.81
  -3  -9  10    2.88    0.64
  -3  -9  10    2.35    0.39
   2   9 -10    0.69    0.66
  -2  -9  10    0.62    0.51
  -2  -9  10    0.34    0.31
   1   9 -10    0.41    0.62
  -1  -9  10    0.39    0.45
  -1  -9  10   -0.03    0.28
   0   9 -10    9.28    0.96
   0  -9  10    8.31    0.58
   0  -9  10    7.94    0.78
  -1   9 -10    0.55    0.60
   1  -9  10    0.90    0.35
   1  -9  10    1.10    0.51
  -2   9 -10   13.28    0.87
  -2   9 -10   13.68    0.94
   2  -9  10   13.99    0.76
   2  -9  10   13.50    0.88
  -3   9 -10   25.36    1.17
  -3   9 -10   23.57    1.21
   3  -9  10   25.50    1.01
   3  -9  10   25.09    1.26
   3  -9  10   22.28    1.27
  -4   9 -10    8.61    1.03
  -4   9 -10    6.88    0.88
   4  -9  10    8.33    0.74
   4  -9  10    8.08    1.02
   4  -9  10    8.76    1.04
   5   8 -10    3.32    0.72
  -5  -8  10    4.61    0.72
  -5  -8  10    2.75    0.47
   4   8 -10    1.49    0.72
   4   8 -10    1.13    0.35
  -4  -8  10    0.79    0.37
  -4  -8  10    1.61    0.51
   3   8 -10   17.70    1.05
   3   8 -10   16.84    0.71
  -3  -8  10   16.07    0.88
  -3  -8  10   16.97    0.76
   2   8 -10   46.52    1.70
   2   8 -10   44.01    1.31
  -2  -8  10   43.73    1.57
  -2  -8  10   45.16    1.39
   1   8 -10   25.79    1.22
   1   8 -10   22.53    0.75
  -1  -8  10   23.00    1.05
  -1  -8  10   21.92    0.85
   0   8 -10    0.55    0.19
   0   8 -10    0.26    0.47
   0  -8  10    0.21    0.48
   0  -8  10    0.14    0.32
  -1   8 -10   -0.07    0.19
  -1   8 -10   -0.02    0.43
  -1   8 -10    0.14    0.46
   1  -8  10    0.15    0.32
   1  -8  10    0.33    0.49
  -2   8 -10    3.69    0.63
  -2   8 -10    3.16    0.57
  -2   8 -10    3.17    0.29
   2  -8  10    2.86    0.40
   2  -8  10    3.35    0.59
  -3   8 -10    0.76    0.20
  -3   8 -10    0.93    0.56
  -3   8 -10    0.37    0.55
   3  -8  10    1.03    0.57
   3  -8  10    1.03    0.59
   3  -8  10    0.87    0.39
  -4   8 -10    1.28    0.23
  -4   8 -10    1.00    0.62
  -4   8 -10    1.21    0.65
   4  -8  10    1.51    0.69
   4  -8  10    1.02    0.66
   4  -8  10    0.97    0.40
   5   7 -10    0.23    0.38
   5   7 -10   -0.19    0.63
  -5  -7  10    0.80    0.52
   4   7 -10    1.31    0.56
   4   7 -10    1.34    0.37
  -4  -7  10    1.09    0.35
  -4  -7  10    1.71    0.50
   3   7 -10    0.50    0.49
   3   7 -10    0.34    0.28
  -3  -7  10    0.50    0.39
  -3  -7  10    0.14    0.28
   2   7 -10    0.62    0.51
   2   7 -10    0.68    0.27
  -2  -7  10    0.78    0.28
  -2  -7  10    0.56    0.43
   1   7 -10    4.41    0.63
   1   7 -10    4.23    0.40
  -1  -7  10    3.44    0.49
  -1  -7  10    3.16    0.36
   0   7 -10   39.44    1.51
   0   7 -10   39.39    1.19
   0   7 -10   39.88    1.40
   0  -7  10   41.43    1.47
   0  -7  10   39.92    1.30
  -1   7 -10   63.46    2.00
  -1   7 -10   61.71    1.75
  -1   7 -10   62.24    2.02
   1  -7  10   63.07    1.88
   1  -7  10   62.34    2.01
  -2   7 -10    3.34    0.55
  -2   7 -10    2.53    0.51
  -2   7 -10    3.88    0.39
   2  -7  10    3.06    0.41
   2  -7  10    3.13    0.60
   2  -7  10    3.62    0.63
  -3   7 -10    3.72    0.63
  -3   7 -10    3.05    0.56
  -3   7 -10    2.86    0.31
   3  -7  10    3.30    0.44
   3  -7  10    4.10    0.71
   3  -7  10    3.19    0.62
  -4   7 -10    0.47    0.27
  -4   7 -10    0.69    0.55
   4  -7  10    0.02    0.63
   4  -7  10   -0.05    0.57
   4  -7  10    0.19    0.38
   5  -7  10    0.61    0.66
   5  -7  10    1.59    0.49
   6   6 -10    0.66    0.40
   6   6 -10    0.79    0.66
   5   6 -10   22.09    1.19
   5   6 -10   22.17    0.92
  -5  -6  10   22.39    1.03
   4   6 -10   25.53    0.96
   4   6 -10   23.24    1.16
  -4  -6  10   23.97    1.06
  -4  -6  10   25.95    0.94
   3   6 -10    2.97    0.53
   3   6 -10    2.45    0.37
  -3  -6  10    2.14    0.33
  -3  -6  10    3.29    0.51
   2   6 -10    0.59    0.26
   2   6 -10    0.46    0.45
  -2  -6  10    0.60    0.42
  -2  -6  10    0.70    0.28
   1   6 -10    0.22    0.38
   1   6 -10    0.08    0.24
   1   6 -10    0.23    0.45
  -1  -6  10    0.35    0.27
  -1  -6  10    0.26    0.39
   0   6 -10    4.31    0.59
   0   6 -10    5.38    0.61
   0   6 -10    5.30    0.42
   0  -6  10    5.08    0.50
   0  -6  10    4.59    0.63
  -1   6 -10    0.74    0.26
  -1   6 -10    1.02    0.46
  -1   6 -10    1.19    0.47
   1  -6  10    0.87    0.34
   1  -6  10    0.18    0.47
  -2   6 -10   38.10    1.47
  -2   6 -10   41.30    1.26
  -2   6 -10   42.26    1.50
   2  -6  10   41.14    1.56
   2  -6  10   42.08    1.51
  -3   6 -10   32.14    1.37
  -3   6 -10   36.24    1.38
  -3   6 -10   34.11    1.12
   3  -6  10   36.38    1.39
   3  -6  10   34.72    1.23
   3  -6  10   34.92    1.43
  -4   6 -10   11.84    1.00
  -4   6 -10   11.66    0.62
   4  -6  10   12.89    1.01
   4  -6  10   11.77    0.78
   4  -6  10   11.98    0.92
   7   5 -10   -0.01    0.63
   7   5 -10   -0.29    0.44
   6   5 -10    1.85    0.55
   6   5 -10    1.09    0.39
   5   5 -10    1.58    0.36
   5   5 -10    1.24    0.54
  -5  -5  10    1.49    0.47
   4   5 -10   13.32    0.68
   4   5 -10   12.87    0.85
  -4  -5  10   12.00    0.68
  -4  -5  10   12.50    0.78
   3   5 -10   44.83    1.40
   3   5 -10   44.47    1.56
  -3  -5  10   43.51    1.36
  -3  -5  10   44.23    1.51
   2   5 -10   64.37    2.02
   2   5 -10   65.47    1.86
   2   5 -10   57.53    2.05
  -2  -5  10   62.62    1.99
  -2  -5  10   69.18    1.87
   1   5 -10   22.89    0.99
   1   5 -10   24.14    0.85
   1   5 -10   21.04    0.99
  -1  -5  10   24.05    0.89
  -1  -5  10   22.83    1.00
   0   5 -10    0.12    0.25
   0   5 -10    0.31    0.40
   0   5 -10    0.15    0.42
   0  -5  10    0.02    0.37
   0  -5  10   -0.08    0.29
  -1   5 -10    6.34    0.47
  -1   5 -10    5.48    0.59
  -1   5 -10    6.26    0.64
   1  -5  10    6.39    0.56
   1  -5  10    6.24    0.71
  -2   5 -10    1.33    0.48
  -2   5 -10    1.68    0.31
  -2   5 -10    1.94    0.48
   2  -5  10    1.82    0.48
   2  -5  10    1.63    0.56
   2  -5  10    1.73    0.37
  -3   5 -10    0.11    0.45
  -3   5 -10   -0.22    0.32
   3  -5  10    0.14    0.53
  -4   5 -10    0.01    0.57
  -4   5 -10    0.54    0.33
   4  -5  10    0.56    0.59
   7   4 -10   17.61    1.06
   7   4 -10   17.83    0.91
   6   4 -10    8.72    0.65
   6   4 -10    9.40    0.81
   5   4 -10    1.75    0.51
   5   4 -10    2.08    0.37
  -5  -4  10    2.13    0.50
   4   4 -10    5.17    0.53
   4   4 -10    5.55    0.64
  -4  -4  10    5.36    0.61
   3   4 -10   -0.30    0.39
   3   4 -10   -0.10    0.29
  -3  -4  10    0.27    0.38
  -3  -4  10   -0.20    0.25
   2   4 -10    0.36    0.39
   2   4 -10    0.34    0.26
   2   4 -10    0.35    0.38
  -2  -4  10    0.90    0.30
  -2  -4  10    0.64    0.37
   1   4 -10   19.65    0.76
   1   4 -10   19.42    0.90
   1   4 -10   18.58    0.92
  -1  -4  10   19.27    0.91
  -1  -4  10   18.93    0.78
   0   4 -10   32.21    1.28
   0   4 -10   35.84    1.14
   0   4 -10   36.60    1.28
   0  -4  10   36.92    1.19
   0  -4  10   35.22    1.35
  -1   4 -10   38.01    1.19
  -1   4 -10   36.78    1.40
   1  -4  10   34.16    1.23
   1  -4  10   37.79    1.32
   1  -4  10   37.88    1.43
  -2   4 -10    1.36    0.32
  -2   4 -10    1.26    0.50
   2  -4  10    0.68    0.50
  -3   4 -10    0.44    0.34
  -3   4 -10    0.30    0.50
   3  -4  10    0.28    0.54
  -4   4 -10   -0.13    0.36
  -4   4 -10   -0.20    0.57
   4  -4  10    0.35    0.59
   5  -4  10    0.11    0.94
   8   3 -10    0.54    0.63
   8   3 -10    0.48    0.44
   7   3 -10    1.68    0.55
   7   3 -10    2.14    0.46
   6   3 -10   17.35    0.81
   6   3 -10   16.49    0.85
   5   3 -10   65.98    2.09
   5   3 -10   67.72    1.98
  -5  -3  10   69.00    2.09
   4   3 -10   25.34    0.94
   4   3 -10   26.37    1.03
  -4  -3  10   22.79    1.01
   3   3 -10    0.15    0.40
   3   3 -10   -0.12    0.29
   3   3 -10    0.44    0.38
  -3  -3  10    0.34    0.34
   2   3 -10    2.97    0.44
   2   3 -10    2.75    0.46
   2   3 -10    2.21    0.34
  -2  -3  10    1.82    0.41
   1   3 -10    1.61    0.30
   1   3 -10    1.05    0.41
  -1  -3  10    1.47    0.46
   0   3 -10    1.36    0.31
   0   3 -10    1.65    0.47
   0  -3  10    1.66    0.48
  -1   3 -10    3.42    0.40
  -1   3 -10    3.78    0.57
   1  -3  10    2.97    0.54
  -2   3 -10   37.95    1.28
  -2   3 -10   39.32    1.51
   2  -3  10   41.29    1.51
  -3   3 -10   41.63    1.64
  -3   3 -10   44.04    1.41
   3  -3  10   42.32    1.59
  -4   3 -10    9.87    0.91
  -4   3 -10   10.94    0.75
   4  -3  10   11.13    0.93
   8   2 -10    3.72    0.68
   7   2 -10   10.81    0.82
   6   2 -10    5.94    0.60
   6   2 -10    5.67    0.65
   5   2 -10    1.80    0.35
   5   2 -10    1.51    0.41
  -5  -2  10    1.56    0.45
   4   2 -10    8.43    0.64
   4   2 -10    7.48    0.68
   4   2 -10    7.84    0.59
  -4  -2  10    7.83    0.68
   3   2 -10   49.44    1.67
   3   2 -10   51.35    1.54
  -3  -2  10   49.12    1.66
   2   2 -10   21.91    0.86
   2   2 -10   21.34    0.99
  -2  -2  10   21.94    1.00
   1   2 -10    3.62    0.39
   1   2 -10    3.15    0.49
  -1  -2  10    1.93    0.48
   0   2 -10   13.81    0.65
   0   2 -10   10.96    0.79
   0  -2  10   11.54    0.79
  -1   2 -10    6.99    0.55
  -1   2 -10    6.45    0.71
   1  -2  10    6.86    0.72
  -2   2 -10    1.44    0.51
  -2   2 -10    2.75    0.41
   2  -2  10    1.69    0.52
  -3   2 -10    0.34    0.40
  -3   2 -10    0.27    0.54
   3  -2  10    0.26    0.49
  -4   2 -10    4.60    0.78
   4  -2  10    4.45    0.72
   9   1 -10    1.39    0.66
   8   1 -10   14.83    0.96
   7   1 -10   17.83    0.91
  -7  -1  10   15.12    0.92
   6   1 -10    0.56    0.41
  -6  -1  10    0.23    0.35
   5   1 -10    6.56    0.71
  -5  -1  10    5.70    0.67
  -5  -1  10    6.81    0.55
   4   1 -10   21.14    1.00
  -4  -1  10   20.34    0.82
  -4  -1  10   18.60    0.92
   3   1 -10    0.15    0.41
   3   1 -10    0.25    0.31
  -3  -1  10    0.58    0.31
  -3  -1  10   -0.04    0.40
   2   1 -10   13.01    0.76
  -2  -1  10   11.98    0.78
   1   1 -10   17.82    0.88
   1   1 -10   17.85    0.76
  -1  -1  10   18.06    0.77
  -1  -1  10   17.00    0.90
   0   1 -10   28.69    1.04
   0   1 -10   29.96    1.19
   0  -1  10   31.20    1.22
  -1   1 -10    8.16    0.64
  -1   1 -10    8.10    0.76
   1  -1  10    8.41    0.75
  -2   1 -10    0.49    0.48
   2  -1  10    1.29    0.47
  -3   1 -10   12.38    0.90
   3  -1  10   12.49    0.94
  -4   1 -10    5.16    0.81
   4  -1  10    4.25    0.74
   9   0 -10    5.42    0.73
  -9   0  10    7.03    0.78
   8   0 -10    2.83    0.58
  -8   0  10    2.82    0.48
  -7   0  10    2.52    0.41
   6   0 -10   26.25    1.17
  -6   0  10   25.80    0.99
   5   0 -10   39.97    1.51
  -5   0  10   42.49    1.48
  -5   0  10   44.37    1.37
   4   0 -10    1.41    0.46
  -4   0  10    0.88    0.44
  -4   0  10    1.24    0.34
   3   0 -10   57.94    1.97
  -3   0  10   61.39    1.93
  -3   0  10   63.31    1.82
   2   0 -10   39.21    1.43
  -2   0  10   36.35    1.34
  -2   0  10   38.42    1.24
   1   0 -10    6.40    0.62
  -1   0  10    8.11    0.54
  -1   0  10    5.90    0.61
   0   0 -10    0.13    0.45
   0   0  10    0.19    0.43
   0   0  10    0.45    0.31
  -1   0 -10    1.24    0.47
   1   0  10    1.30    0.36
   1   0  10    1.16    0.45
  -2   0 -10   13.85    0.95
   2   0  10   13.29    0.94
  -3   0 -10    0.69    0.63
   3   0  10    0.75    0.59
  -9   1  10   -0.04    0.45
  -8   1  10    8.95    0.70
   7  -1 -10   25.14    1.16
  -7   1  10   23.92    0.97
   6  -1 -10    6.62    0.73
  -6   1  10    7.07    0.58
   5  -1 -10    0.08    0.39
  -5   1  10    0.00    0.30
   4  -1 -10    2.51    0.50
  -4   1  10    3.34    0.39
  -4   1  10    4.07    0.54
   3  -1 -10    6.70    0.73
  -3   1  10    7.35    0.67
  -3   1  10    8.09    0.55
   2  -1 -10   10.23    0.79
  -2   1  10    9.45    0.75
  -2   1  10   11.03    0.62
   1  -1 -10    0.79    0.44
  -1   1  10    0.72    0.30
  -1   1  10    0.67    0.43
   0  -1 -10   14.38    0.88
   0   1  10   11.68    0.83
   0   1  10   12.28    0.63
  -1  -1 -10   13.95    0.95
   1   1  10   15.08    0.74
   1   1  10   15.04    0.88
  -2  -1 -10    0.59    0.52
   2   1  10    0.17    0.50
   2   1  10    0.78    0.40
  -3  -1 -10   -0.13    0.58
   3   1  10   -0.04    0.62
   3   1  10    0.25    0.44
  -9   2  10    0.21    0.43
   8  -2 -10   10.67    0.94
  -8   2  10   10.52    0.73
   7  -2 -10    6.39    0.75
  -7   2  10    6.29    0.59
   6  -2 -10    1.99    0.54
  -6   2  10    1.11    0.34
   5  -2 -10   29.85    1.27
  -5   2  10   31.15    1.08
   4  -2 -10   44.69    1.44
   4  -2 -10   42.16    1.57
  -4   2  10   40.39    1.46
  -4   2  10   42.31    1.34
   3  -2 -10    2.72    0.52
  -3   2  10    2.47    0.47
  -3   2  10    2.51    0.37
   2  -2 -10    0.54    0.50
  -2   2  10    0.15    0.43
  -2   2  10    0.15    0.27
   1  -2 -10   14.26    0.93
  -1   2  10   13.84    0.88
   0  -2 -10    6.39    0.76
   0   2  10    6.50    0.53
   0   2  10    5.68    0.67
  -1  -2 -10    0.52    0.55
   1   2  10    0.19    0.34
   1   2  10    0.05    0.55
  -2  -2 -10   15.57    1.08
   2   2  10   14.56    0.97
   2   2  10   14.14    0.81
   9  -3 -10    8.42    1.08
  -9   3  10    7.76    0.71
   8  -3 -10    0.63    0.59
  -8   3  10    0.20    0.36
   7  -3 -10    3.68    0.65
  -7   3  10    3.62    0.46
   6  -3 -10    8.87    0.75
   6  -3 -10    9.22    0.64
  -6   3  10    9.50    0.60
   5  -3 -10    4.27    0.61
   5  -3 -10    4.63    0.47
  -5   3  10    4.53    0.48
   4  -3 -10    2.00    0.38
   4  -3 -10    2.11    0.54
  -4   3  10    2.79    0.36
  -4   3  10    2.00    0.51
   3  -3 -10   31.88    1.38
   3  -3 -10   32.60    1.18
  -3   3  10   34.62    1.31
  -3   3  10   33.56    1.09
   2  -3 -10   13.38    0.87
  -2   3  10   13.71    0.62
  -2   3  10   12.30    0.85
   1  -3 -10    2.97    0.62
  -1   3  10    3.03    0.60
  -1   3  10    1.98    0.34
   0  -3 -10    3.01    0.64
   0   3  10    2.55    0.38
   0   3  10    1.64    0.54
  -1  -3 -10    1.19    0.58
   1   3  10    1.06    0.38
   1   3  10    1.10    0.57
   9  -4 -10    0.65    0.64
   8  -4 -10   14.73    1.06
  -8   4  10   15.16    0.78
   7  -4 -10   23.90    1.00
   7  -4 -10   24.87    1.17
  -7   4  10   23.39    0.93
   6  -4 -10   12.72    0.75
   6  -4 -10   13.57    0.95
  -6   4  10   13.98    0.67
   5  -4 -10    0.49    0.37
   5  -4 -10    0.45    0.47
  -5   4  10    0.65    0.29
   4  -4 -10    0.93    0.53
   4  -4 -10    1.24    0.41
  -4   4  10    0.94    0.48
  -4   4  10    0.84    0.27
   3  -4 -10   12.15    0.72
   3  -4 -10   14.30    1.00
  -3   4  10   13.36    0.85
  -3   4  10   14.29    0.65
   2  -4 -10    5.61    0.63
   2  -4 -10    4.98    0.73
  -2   4  10    5.13    0.66
  -2   4  10    5.36    0.49
   1  -4 -10   10.85    0.87
  -1   4  10   11.07    0.64
  -1   4  10   10.51    0.90
   0  -4 -10   60.11    2.07
   0   4  10   57.34    1.75
   0   4  10   58.56    2.05
  -1  -4 -10   35.52    1.58
   8  -5 -10    1.86    0.49
   8  -5 -10    2.09    0.63
  -8   5  10    1.76    0.37
   7  -5 -10    1.19    0.42
   7  -5 -10    0.92    0.64
  -7   5  10    1.32    0.33
   6  -5 -10   15.93    0.81
   6  -5 -10   16.02    1.06
  -6   5  10   15.59    0.66
   5  -5 -10   32.97    1.42
   5  -5 -10   34.21    1.24
  -5   5  10   34.05    1.08
   4  -5 -10   19.87    0.92
   4  -5 -10   19.07    1.06
  -4   5  10   16.93    0.96
  -4   5  10   17.87    0.70
   3  -5 -10    1.94    0.63
   3  -5 -10    1.45    0.41
  -3   5  10    1.84    0.57
  -3   5  10    1.92    0.32
   2  -5 -10    0.53    0.40
   2  -5 -10    0.69    0.62
  -2   5  10    0.05    0.56
  -2   5  10    0.32    0.29
   1  -5 -10    0.38    0.64
   1  -5 -10   -0.22    0.44
  -1   5  10    0.00    0.51
  -1   5  10   -0.07    0.31
   0  -5 -10    0.48    0.66
   8  -6 -10    0.37    0.49
  -8   6  10    0.06    0.26
   7  -6 -10    0.04    0.41
   7  -6 -10    0.27    0.59
  -7   6  10    0.45    0.25
   6  -6 -10   -0.21    0.42
   6  -6 -10    0.32    0.62
  -6   6  10   -0.01    0.23
   5  -6 -10    0.12    0.58
   5  -6 -10    0.20    0.38
  -5   6  10    0.31    0.25
   4  -6 -10    2.95    0.67
   4  -6 -10    3.48    0.49
  -4   6  10    3.94    0.41
   3  -6 -10   17.66    1.12
   3  -6 -10   19.07    0.90
  -3   6  10   18.12    1.07
  -3   6  10   17.38    0.68
   2  -6 -10    9.40    1.08
   2  -6 -10    9.99    0.75
  -2   6  10    8.64    0.51
  -2   6  10    9.02    0.97
   7  -7 -10   10.57    0.84
   6  -7 -10    1.51    0.48
   6  -7 -10    3.17    1.17
   5  -7 -10    1.50    0.49
   5  -7 -10    1.31    0.75
   4  -7 -10    0.26    0.44
   4  -7 -10    0.46    0.73
   3  -7 -10    1.00    0.79
  -1 -10  11    9.04    0.68
   0  10 -11    2.42    0.78
   0 -10  11    2.69    0.69
   0 -10  11    2.21    0.46
  -1  10 -11    0.28    0.68
   1 -10  11   -0.21    0.41
   1 -10  11   -0.04    0.63
   2 -10  11    0.76    0.68
   3   9 -11    0.65    0.78
   3   9 -11    1.02    0.29
  -3  -9  11    0.72    0.41
  -3  -9  11    0.62    0.61
   2   9 -11    5.86    0.81
   2   9 -11    5.48    0.38
  -2  -9  11    5.73    0.60
  -2  -9  11    6.48    0.86
   1   9 -11    9.83    1.09
   1   9 -11    9.22    0.39
  -1  -9  11   10.12    0.69
  -1  -9  11   10.20    0.93
   0   9 -11    0.75    0.64
   0  -9  11    0.76    0.39
   0  -9  11    1.62    0.62
  -1   9 -11    5.50    0.78
   1  -9  11    6.02    0.78
   1  -9  11    5.85    0.68
  -2   9 -11    4.35    0.71
  -2   9 -11    4.69    1.00
   2  -9  11    3.65    0.71
   2  -9  11    3.84    0.71
   2  -9  11    4.80    0.53
  -3   9 -11    1.58    0.68
  -3   9 -11    2.58    0.73
   3  -9  11    1.86    0.74
   3  -9  11    2.10    0.74
   3  -9  11    2.83    0.48
   4   8 -11    7.05    0.60
   4   8 -11    6.26    0.88
  -4  -8  11    4.95    0.71
  -4  -8  11    6.99    0.68
   3   8 -11    5.43    0.80
   3   8 -11    5.79    0.53
  -3  -8  11    5.97    0.60
  -3  -8  11    5.93    0.81
   2   8 -11    0.03    0.27
   2   8 -11    0.03    0.58
  -2  -8  11   -0.17    0.53
  -2  -8  11    0.04    0.32
   1   8 -11    3.82    0.67
   1   8 -11    4.16    0.41
  -1  -8  11    3.80    0.63
  -1  -8  11    4.27    0.45
   0   8 -11   32.80    1.39
   0   8 -11   30.72    1.00
   0  -8  11   36.41    1.21
  -1   8 -11   12.38    0.55
  -1   8 -11   12.92    0.90
  -1   8 -11   12.94    0.91
   1  -8  11   12.85    0.95
   1  -8  11   12.85    0.78
  -2   8 -11    0.24    0.24
  -2   8 -11    0.14    0.55
  -2   8 -11   -0.02    0.58
   2  -8  11    0.36    0.40
   2  -8  11   -0.15    0.62
   2  -8  11    0.58    0.59
  -3   8 -11   10.73    0.53
  -3   8 -11   11.60    1.05
  -3   8 -11   10.75    0.97
   3  -8  11    9.91    0.99
   3  -8  11   11.50    0.80
   3  -8  11   12.63    1.12
   5   7 -11    7.64    0.71
   5   7 -11    6.56    0.88
  -5  -7  11    9.41    0.92
   4   7 -11    6.70    0.62
   4   7 -11    5.79    0.79
  -4  -7  11    6.38    0.81
  -4  -7  11    6.20    0.63
   3   7 -11    0.31    0.55
   3   7 -11    0.34    0.31
  -3  -7  11    0.19    0.32
  -3  -7  11   -0.38    0.49
   2   7 -11   30.47    1.35
   2   7 -11   29.81    1.02
  -2  -7  11   28.47    1.05
  -2  -7  11   30.84    1.27
   1   7 -11   37.22    1.49
   1   7 -11   35.70    1.13
  -1  -7  11   36.35    1.23
  -1  -7  11   32.91    1.35
   0   7 -11    6.77    0.78
   0   7 -11    7.73    0.50
   0   7 -11    8.76    0.77
   0  -7  11    8.65    0.74
   0  -7  11    9.61    0.66
  -1   7 -11   -0.15    0.51
  -1   7 -11    0.19    0.25
  -1   7 -11    0.17    0.50
   1  -7  11    0.21    0.37
   1  -7  11   -0.08    0.48
  -2   7 -11    0.12    0.51
  -2   7 -11    0.17    0.29
  -2   7 -11   -0.19    0.55
   2  -7  11    0.25    0.56
   2  -7  11    0.48    0.38
   2  -7  11    0.48    0.53
  -3   7 -11    8.62    0.56
  -3   7 -11    8.30    0.91
  -3   7 -11    8.21    0.98
   3  -7  11    8.65    0.92
   3  -7  11    9.24    0.77
   3  -7  11    9.96    1.03
   4  -7  11    3.46    0.78
   6   6 -11   46.32    1.83
   6   6 -11   41.80    1.50
   5   6 -11   11.05    1.01
   5   6 -11   11.57    0.79
  -5  -6  11   13.03    0.92
   4   6 -11   -0.30    0.36
   4   6 -11   -0.34    0.56
  -4  -6  11   -0.17    0.51
   3   6 -11    0.38    0.30
   3   6 -11    0.39    0.48
  -3  -6  11    0.32    0.32
  -3  -6  11    0.28    0.46
   2   6 -11    7.16    0.76
   2   6 -11    8.05    0.56
  -2  -6  11    7.20    0.76
  -2  -6  11    7.07    0.60
   1   6 -11    0.87    0.30
   1   6 -11    0.92    0.54
   1   6 -11    0.97    0.48
  -1  -6  11    1.43    0.38
  -1  -6  11    0.94    0.48
   0   6 -11   12.83    0.87
   0   6 -11   15.80    0.68
   0   6 -11   16.58    0.95
   0  -6  11   15.16    0.96
   0  -6  11   14.21    0.77
  -1   6 -11   44.18    1.57
  -1   6 -11   40.56    1.58
  -1   6 -11   43.54    1.34
   1  -6  11   44.12    1.45
  -2   6 -11    9.50    0.97
  -2   6 -11    8.25    0.87
  -2   6 -11    9.45    0.59
   2  -6  11   10.01    0.95
   2  -6  11   10.07    0.83
   2  -6  11   10.35    0.73
  -3   6 -11    0.56    0.62
  -3   6 -11    1.28    0.38
   3  -6  11    1.83    0.70
   4  -6  11    1.06    0.72
   6   5 -11    2.45    0.47
   6   5 -11    4.40    0.74
   5   5 -11   30.67    1.14
   5   5 -11   29.98    1.28
  -5  -5  11   29.46    1.25
   4   5 -11   26.35    1.19
   4   5 -11   24.06    0.98
  -4  -5  11   23.44    1.10
   3   5 -11   13.84    0.89
   3   5 -11   12.64    0.70
  -3  -5  11   13.84    0.87
   2   5 -11    1.46    0.35
   2   5 -11    0.51    0.64
   2   5 -11    1.05    0.48
  -2  -5  11    0.58    0.39
  -2  -5  11    0.70    0.44
   1   5 -11   -0.03    0.29
   1   5 -11    0.41    0.45
   1   5 -11    0.32    0.44
  -1  -5  11    0.27    0.46
  -1  -5  11    0.06    0.33
   0   5 -11    3.11    0.54
   0   5 -11    2.60    0.35
   0   5 -11    2.93    0.49
   0  -5  11    2.12    0.54
   0  -5  11    3.11    0.45
  -1   5 -11    0.51    0.31
  -1   5 -11    0.43    0.47
   1  -5  11   -0.02    0.48
  -2   5 -11    5.28    0.72
  -2   5 -11    7.05    0.55
   2  -5  11    7.55    0.89
  -3   5 -11   17.58    0.84
  -3   5 -11   17.34    1.07
   3  -5  11   19.05    1.17
   4  -5  11   15.59    1.12
   7   4 -11    1.35    0.47
   7   4 -11    1.21    0.67
   6   4 -11    0.95    0.58
   6   4 -11    0.67    0.41
   5   4 -11    0.65    0.38
   5   4 -11    0.37    0.49
  -5  -4  11    0.48    0.49
   4   4 -11    1.73    0.51
   4   4 -11    2.94    0.44
  -4  -4  11    1.97    0.50
   3   4 -11    6.04    0.69
   3   4 -11    5.31    0.57
  -3  -4  11    4.88    0.66
   2   4 -11   53.81    1.75
   2   4 -11   53.25    1.61
   2   4 -11   53.92    1.78
  -2  -4  11   50.46    1.81
   1   4 -11   59.77    1.76
   1   4 -11   57.07    1.93
  -1  -4  11   59.47    1.97
   0   4 -11   -0.23    0.46
   0   4 -11    0.25    0.30
   0  -4  11   -0.31    0.48
  -1   4 -11    1.19    0.51
  -1   4 -11    1.22    0.35
   1  -4  11    1.09    0.55
  -2   4 -11    0.27    0.33
  -2   4 -11   -0.25    0.52
   2  -4  11    0.09    0.55
  -3   4 -11    9.79    0.73
  -3   4 -11    9.37    0.96
   3  -4  11   10.56    0.98
  -4   4 -11   -0.04    0.62
   4  -4  11   -0.12    0.63
   7   3 -11   23.84    1.05
   7   3 -11   23.77    1.19
   6   3 -11   22.92    0.98
   6   3 -11   23.96    1.11
   5   3 -11    4.31    0.48
   5   3 -11    4.89    0.61
  -5  -3  11    3.83    0.58
   4   3 -11    0.44    0.43
   4   3 -11    0.63    0.37
  -4  -3  11    1.14    0.47
   3   3 -11    0.66    0.44
   3   3 -11    0.25    0.35
  -3  -3  11    0.46    0.42
   2   3 -11    0.28    0.32
   2   3 -11    0.32    0.43
  -2  -3  11    0.47    0.47
   1   3 -11   -0.14    0.43
   1   3 -11   -0.25    0.32
  -1  -3  11   -0.01    0.47
   0   3 -11   42.76    1.35
   0   3 -11   39.28    1.53
   0  -3  11   42.33    1.56
  -1   3 -11   46.66    1.73
  -1   3 -11   48.25    1.52
   1  -3  11   50.07    1.75
  -2   3 -11   12.22    0.70
  -2   3 -11   10.56    0.85
   2  -3  11   12.79    0.96
  -3   3 -11    1.09    0.43
  -3   3 -11    0.40    0.63
   3  -3  11    0.13    0.59
   8   2 -11    0.51    0.61
   7   2 -11    0.22    0.49
   6   2 -11    3.06    0.54
   5   2 -11   26.48    1.04
  -5  -2  11   23.63    1.10
   4   2 -11   41.12    1.37
   4   2 -11   39.51    1.49
  -4  -2  11   39.69    1.48
   3   2 -11   30.61    1.25
   3   2 -11   30.57    1.13
  -3  -2  11   29.05    1.24
   2   2 -11    0.38    0.42
   2   2 -11    0.95    0.36
  -2  -2  11    0.49    0.41
   1   2 -11    3.15    0.41
   1   2 -11    2.74    0.54
  -1  -2  11    3.77    0.59
   0   2 -11    0.38    0.43
   0   2 -11    0.40    0.34
   0  -2  11   -0.06    0.50
  -1   2 -11    0.51    0.39
  -1   2 -11    0.11    0.50
   1  -2  11    0.11    0.52
  -2   2 -11    9.69    0.68
  -2   2 -11    8.93    0.91
   2  -2  11   10.07    0.92
  -3   2 -11   17.27    0.92
   3  -2  11   15.88    1.09
  -6  -1  11    0.26    0.44
   5   1 -11    0.13    0.51
  -5  -1  11    0.14    0.35
  -5  -1  11    0.05    0.48
   4   1 -11    2.95    0.52
  -4  -1  11    2.25    0.50
  -4  -1  11    2.82    0.43
   3   1 -11   14.76    0.92
  -3  -1  11   15.97    0.80
  -3  -1  11   15.64    0.90
   2   1 -11   69.10    2.25
  -2  -1  11   73.83    2.30
  -2  -1  11   69.59    2.22
   1   1 -11   26.79    1.19
  -1  -1  11   28.07    1.20
   0   1 -11    0.32    0.48
   0  -1  11   -0.37    0.46
  -1   1 -11    9.05    0.80
   1  -1  11    9.74    0.84
  -2   1 -11   -0.01    0.49
   2  -1  11    1.43    0.59
  -3   1 -11    0.62    0.93
   3  -1  11    1.87    0.74
  -7   0  11   15.59    0.84
   6   0 -11   23.12    1.16
  -6   0  11   22.16    0.96
   5   0 -11    0.05    0.48
  -5   0  11    0.02    0.35
   4   0 -11    4.15    0.58
  -4   0  11    5.65    0.68
  -4   0  11    4.70    0.48
   3   0 -11    1.54    0.47
  -3   0  11    1.59    0.52
  -3   0  11    1.54    0.39
   2   0 -11   -0.45    0.40
  -2   0  11   -0.07    0.34
  -2   0  11    0.00    0.41
   1   0 -11    5.74    0.75
  -1   0  11    5.90    0.55
  -1   0  11    5.98    0.73
   0   0 -11   29.60    1.31
   0   0  11   29.20    1.26
   0   0  11   28.83    1.09
  -1   0 -11   26.51    1.25
   1   0  11   23.87    1.19
  -2   0 -11    0.47    0.62
   2   0  11    0.74    0.63
  -8   1  11    2.29    0.52
   7  -1 -11    3.31    0.68
  -7   1  11    3.86    0.49
   6  -1 -11    6.61    0.80
  -6   1  11    7.30    0.64
   5  -1 -11   29.18    1.32
  -5   1  11   29.29    1.10
   4  -1 -11   12.92    0.94
  -4   1  11   13.35    0.73
  -4   1  11   13.19    0.87
   3  -1 -11    1.02    0.48
  -3   1  11    0.87    0.35
  -3   1  11    0.97    0.48
   2  -1 -11    3.41    0.61
  -2   1  11    3.36    0.40
  -2   1  11    3.97    0.56
   1  -1 -11   13.95    0.96
  -1   1  11   13.57    0.90
  -1   1  11   15.41    0.73
   0  -1 -11    1.20    0.57
   0   1  11    1.75    0.60
   0   1  11    1.19    0.38
  -1  -1 -11    0.12    0.59
   1   1  11    0.01    0.39
   1   1  11    0.54    0.61
  -2  -1 -11    5.86    0.82
   2   1  11    6.90    0.75
   8  -2 -11    0.90    0.67
  -8   2  11    1.30    0.46
   7  -2 -11    8.49    0.92
  -7   2  11    7.73    0.68
   6  -2 -11    9.00    0.90
  -6   2  11    9.56    0.69
   5  -2 -11   -0.14    0.46
  -5   2  11    0.25    0.35
   4  -2 -11    0.22    0.54
  -4   2  11    0.19    0.34
  -4   2  11    0.37    0.47
   3  -2 -11    8.76    0.88
  -3   2  11    9.00    0.78
  -3   2  11    9.81    0.60
   2  -2 -11   24.75    1.15
  -2   2  11   23.16    1.08
  -2   2  11   24.09    0.91
   1  -2 -11    7.10    0.85
  -1   2  11    6.47    0.60
  -1   2  11    6.25    0.81
   0  -2 -11    8.22    0.83
   0   2  11    7.59    0.79
   0   2  11    8.37    0.65
  -1  -2 -11    7.50    0.96
   1   2  11    5.86    0.78
   1   2  11    7.35    0.71
   8  -3 -11    6.14    0.84
  -8   3  11    6.30    0.73
   7  -3 -11   13.71    1.08
  -7   3  11   14.19    0.79
   6  -3 -11    2.65    0.61
  -6   3  11    2.37    0.39
   5  -3 -11    8.25    0.90
  -5   3  11    8.78    0.62
   4  -3 -11   10.73    0.97
  -4   3  11   10.43    0.61
  -4   3  11   11.11    0.86
   3  -3 -11    3.48    0.68
  -3   3  11    2.81    0.57
  -3   3  11    2.76    0.37
   2  -3 -11    2.78    0.67
  -2   3  11    2.94    0.64
  -2   3  11    2.39    0.39
   1  -3 -11    2.96    0.64
  -1   3  11    3.91    0.43
  -1   3  11    2.35    0.58
   0  -3 -11    6.00    0.81
   0   3  11    5.81    0.65
   0   3  11    5.32    0.73
   8  -4 -11    6.02    0.83
   7  -4 -11    0.97    0.65
  -7   4  11    0.72    0.39
   6  -4 -11    0.64    0.63
   6  -4 -11    1.27    0.58
  -6   4  11    0.77    0.36
   5  -4 -11    9.51    0.97
   5  -4 -11   10.33    0.78
  -5   4  11    9.19    0.59
   4  -4 -11    1.55    0.65
   4  -4 -11    1.67    0.46
  -4   4  11    1.56    0.33
  -4   4  11    1.07    0.55
   3  -4 -11    6.92    0.86
  -3   4  11    6.87    0.56
  -3   4  11    8.12    0.84
   2  -4 -11   16.43    1.06
  -2   4  11   15.84    1.06
  -2   4  11   16.29    0.76
   1  -4 -11    7.35    0.89
  -1   4  11    6.32    0.62
  -1   4  11    7.24    0.94
   7  -5 -11   19.04    0.98
   7  -5 -11   17.99    1.26
  -7   5  11   15.78    0.74
   6  -5 -11    8.59    1.05
   6  -5 -11    8.36    0.78
  -6   5  11    8.00    0.54
   5  -5 -11    0.65    0.68
   5  -5 -11    1.46    0.51
  -5   5  11    1.08    0.36
   4  -5 -11    0.12    0.41
   4  -5 -11    0.04    0.60
  -4   5  11    0.17    0.29
   3  -5 -11    7.31    1.03
   3  -5 -11    6.94    0.73
  -3   5  11    6.82    0.55
  -3   5  11    5.34    0.76
   2  -5 -11    5.51    0.87
  -2   5  11    4.55    0.73
   6  -6 -11    1.03    0.50
  -6   6  11    0.74    0.32
   5  -6 -11   20.10    1.07
  -5   6  11   19.05    0.74
   4  -6 -11   27.68    1.21
   1   9 -12    2.64    0.28
   1   9 -12    3.66    0.84
  -1  -9  12    3.27    0.53
   0   9 -12   12.00    0.49
   0  -9  12   12.26    0.85
  -1   9 -12    0.79    0.23
  -1   9 -12    0.97    0.72
   1  -9  12    0.38    0.46
   3   8 -12    1.85    0.42
   3   8 -12    2.27    0.72
  -3  -8  12    1.58    0.44
  -3  -8  12    1.92    0.70
   2   8 -12   11.56    0.63
   2   8 -12   12.32    1.13
  -2  -8  12   10.56    0.79
  -2  -8  12   11.50    0.99
   1   8 -12    7.79    0.99
   1   8 -12    6.72    0.51
  -1  -8  12    7.59    0.75
   0   8 -12    0.09    0.28
   0   8 -12    0.59    0.69
   0  -8  12    0.40    0.44
   0  -8  12    0.50    0.58
  -1   8 -12    3.05    0.72
  -1   8 -12    3.58    0.38
   1  -8  12    3.72    0.53
   1  -8  12    3.85    0.80
  -2   8 -12    1.61    0.73
  -2   8 -12    1.89    0.71
   2  -8  12    2.19    0.52
   2  -8  12    1.92    0.69
   2  -8  12    1.10    1.14
   4   7 -12    0.74    0.41
   4   7 -12    0.56    0.68
  -4  -7  12    0.46    0.62
   3   7 -12    5.48    0.62
   3   7 -12    6.05    0.82
  -3  -7  12    4.21    0.65
   2   7 -12    2.68    0.39
   2   7 -12    2.08    0.65
  -2  -7  12    2.37    0.47
  -2  -7  12    1.51    0.56
   1   7 -12    1.79    0.62
   1   7 -12    1.58    0.35
  -1  -7  12    0.86    0.57
  -1  -7  12    1.21    0.43
   0   7 -12    2.65    0.65
   0   7 -12    1.92    0.35
   0  -7  12    2.52    0.68
   0  -7  12    2.86    0.50
  -1   7 -12   12.23    0.62
  -1   7 -12   11.48    0.96
  -1   7 -12   10.62    0.98
  -2   7 -12   17.08    1.10
  -2   7 -12   16.55    0.78
   2  -7  12   19.00    1.26
   5   6 -12    4.26    0.57
   5   6 -12    4.40    0.83
  -5  -6  12    4.86    0.75
   4   6 -12   18.16    1.17
   4   6 -12   19.40    0.91
  -4  -6  12   19.66    1.14
   3   6 -12    4.92    0.56
   3   6 -12    5.69    0.75
  -3  -6  12    5.32    0.73
   2   6 -12    4.87    0.48
   2   6 -12    4.04    0.68
  -2  -6  12    2.89    0.56
   1   6 -12   24.35    1.17
   1   6 -12   22.76    0.90
  -1  -6  12   22.23    1.21
   0   6 -12    9.90    0.62
   0   6 -12    8.89    0.85
  -1   6 -12    0.52    0.55
  -1   6 -12    0.48    0.33
   1  -6  12    0.28    0.62
  -2   6 -12    0.14    0.36
  -2   6 -12    0.23    0.64
   2  -6  12    0.50    0.71
   6   5 -12    5.23    0.60
   6   5 -12    3.85    0.76
   5   5 -12    4.87    0.57
   5   5 -12    3.89    0.73
  -5  -5  12    4.08    0.71
   4   5 -12    2.48    0.48
   4   5 -12    2.31    0.62
  -4  -5  12    2.47    0.60
   3   5 -12   10.48    0.87
   3   5 -12    9.42    0.68
  -3  -5  12   10.09    0.88
   2   5 -12    9.41    0.65
  -2  -5  12    7.55    0.88
   1   5 -12    8.92    0.81
   1   5 -12    9.48    0.63
  -1  -5  12   10.01    0.90
   0   5 -12    0.34    0.52
   0   5 -12    0.37    0.34
   0  -5  12    0.38    0.59
  -1   5 -12    1.39    0.38
  -1   5 -12    1.42    0.60
   1  -5  12    0.90    0.64
  -2   5 -12   17.39    1.19
  -2   5 -12   20.68    0.92
   2  -5  12   21.01    1.23
   6   4 -12    3.71    0.57
   6   4 -12    3.72    0.73
   5   4 -12    1.01    0.59
   5   4 -12    0.76    0.46
  -5  -4  12    0.32    0.54
   4   4 -12   28.03    1.13
  -4  -4  12   28.38    1.29
   3   4 -12   35.76    1.25
  -3  -4  12   36.01    1.45
   2   4 -12    6.13    0.75
   2   4 -12    6.13    0.61
  -2  -4  12    4.63    0.68
   1   4 -12    8.64    0.63
   1   4 -12    8.83    0.84
  -1  -4  12    8.31    0.89
   0   4 -12   10.14    0.88
   0   4 -12    9.51    0.65
   0  -4  12    9.43    0.93
  -1   4 -12    5.70    0.60
  -1   4 -12    6.00    0.76
   1  -4  12    5.96    0.77
  -2   4 -12    0.20    0.56
  -2   4 -12    0.12    0.38
   2  -4  12    0.17    0.67
   7   3 -12    2.65    0.71
   6   3 -12    0.31    0.47
   5   3 -12    3.59    0.52
  -5  -3  12    2.26    0.58
   4   3 -12    5.67    0.56
  -4  -3  12    6.01    0.79
   3   3 -12   -0.21    0.36
   3   3 -12   -0.07    0.47
  -3  -3  12    0.31    0.55
   2   3 -12   25.32    1.20
   2   3 -12   27.15    1.04
  -2  -3  12   26.99    1.26
   1   3 -12   22.48    0.93
   1   3 -12   20.33    1.11
  -1  -3  12   22.47    1.17
   0   3 -12   21.88    0.91
   0   3 -12   20.05    1.13
   0  -3  12   18.62    1.12
  -1   3 -12    0.00    0.39
  -1   3 -12    0.20    0.49
   1  -3  12    0.06    0.61
  -2   3 -12   -0.09    0.58
  -2   3 -12    0.25    0.41
   2  -3  12   -0.02    0.61
  -5  -2  12   11.72    0.98
   4   2 -12    3.06    0.62
  -4  -2  12    4.00    0.66
   3   2 -12    0.07    0.49
   3   2 -12   -0.20    0.38
  -3  -2  12    0.53    0.51
   2   2 -12    3.91    0.59
   2   2 -12    4.25    0.48
  -2  -2  12    5.22    0.69
   1   2 -12    0.58    0.53
   1   2 -12    0.78    0.38
  -1  -2  12   -0.10    0.54
   0   2 -12    3.66    0.48
   0   2 -12    2.37    0.57
   0  -2  12    2.06    0.55
  -1   2 -12   19.89    0.93
  -1   2 -12   20.71    1.19
   1  -2  12   20.51    1.17
   2  -2  12   13.77    1.16
   5   1 -12   17.12    1.05
  -5  -1  12   16.39    1.44
   4   1 -12   18.14    1.06
  -4  -1  12   20.22    1.06
   3   1 -12   11.11    0.91
  -3  -1  12   11.75    0.90
   2   1 -12    0.35    0.54
  -2  -1  12   -0.01    0.51
   1   1 -12    0.16    0.52
  -1  -1  12    0.12    0.53
   0   1 -12    3.34    0.67
   0  -1  12    3.08    0.65
  -1   1 -12    0.78    0.64
   1  -1  12    1.14    0.56
  -7   0  12    0.28    0.45
   6   0 -12    1.23    0.66
  -6   0  12    1.19    0.46
   5   0 -12    0.02    0.56
  -5   0  12    0.53    0.45
   4   0 -12    8.79    0.90
  -4   0  12    9.17    0.72
  -4   0  12    8.93    0.85
   3   0 -12    1.23    0.53
  -3   0  12    1.02    0.54
  -3   0  12    0.62    0.39
   2   0 -12   25.58    1.25
  -2   0  12   24.23    1.01
  -2   0  12   24.94    1.19
   1   0 -12   33.91    1.42
  -1   0  12   35.17    1.44
  -1   0  12   35.84    1.24
   0   0 -12    7.52    0.93
   0   0  12    7.41    0.88
  -1   0 -12    0.73    0.66
   1   0  12    1.53    1.14
   7  -1 -12   18.89    1.23
  -7   1  12   20.91    1.02
   6  -1 -12   19.38    1.22
  -6   1  12   22.30    1.03
   5  -1 -12    7.89    0.94
  -5   1  12    7.03    0.69
   4  -1 -12    1.84    0.65
  -4   1  12    0.92    0.53
  -4   1  12    1.12    0.41
   3  -1 -12    1.09    0.59
  -3   1  12    0.68    0.39
  -3   1  12    0.42    0.52
   2  -1 -12    0.34    0.51
  -2   1  12   -0.01    0.46
  -2   1  12    0.20    0.36
   1  -1 -12    0.67    0.57
  -1   1  12   -0.02    0.56
  -1   1  12    0.18    0.33
   0  -1 -12    6.40    0.84
   0   1  12    6.07    0.80
   0   1  12    5.74    0.66
   7  -2 -12    0.35    0.67
  -7   2  12    0.29    0.45
   6  -2 -12    5.79    0.83
  -6   2  12    4.65    0.53
   5  -2 -12   10.22    1.02
  -5   2  12   10.13    0.73
   4  -2 -12   17.54    1.14
  -4   2  12   17.84    1.07
  -4   2  12   19.21    0.87
   3  -2 -12   12.02    0.94
  -3   2  12   13.64    0.74
  -3   2  12   14.24    0.95
   2  -2 -12    0.18    0.56
  -2   2  12    0.12    0.33
  -2   2  12    0.32    0.56
   1  -2 -12    2.58    0.70
  -1   2  12    2.57    0.68
  -1   2  12    1.96    0.42
   7  -3 -12    2.07    0.76
  -7   3  12    2.20    0.63
   6  -3 -12    2.54    0.76
  -6   3  12    3.26    0.48
   5  -3 -12    1.53    0.72
  -5   3  12    1.30    0.40
   4  -3 -12    0.40    0.59
  -4   3  12    0.86    0.60
  -4   3  12    0.38    0.34
   3  -3 -12    8.46    1.02
  -3   3  12    7.34    0.90
  -3   3  12    8.23    0.61
   2  -3 -12   17.51    1.23
  -2   3  12   16.73    0.82
  -2   3  12   19.26    1.16
   5  -4 -12   -0.41    0.77
  -5   4  12    0.02    0.35
   4  -4 -12    5.40    1.34
  -4   4  12    2.91    0.42
  -3   4  12    7.98    0.96
   3   7 -13   -0.04    0.70
   2   7 -13    1.31    0.72
  -2  -7  13    0.93    0.68
   4   6 -13    0.58    0.68
  -4  -6  13    0.51    0.65
   3   6 -13    2.09    0.47
   3   6 -13    1.64    0.77
  -3  -6  13    1.26    0.70
   2   6 -13    1.75    0.42
  -2  -6  13    1.34    0.70
   1   6 -13    0.08    0.37
  -1  -6  13   -0.08    0.55
   0   6 -13   -0.08    0.38
   0   6 -13   -0.19    0.57
   0  -6  13    0.44    0.68
  -1   6 -13   18.55    1.22
   5   5 -13    2.90    0.60
  -5  -5  13    3.37    0.74
   4   5 -13   12.79    0.84
  -4  -5  13   11.53    1.09
   3   5 -13   16.19    0.86
  -3  -5  13   13.94    1.00
   2   5 -13    2.33    0.45
  -2  -5  13    1.73    0.68
   1   5 -13    2.19    0.62
   1   5 -13    2.36    0.42
  -1  -5  13    2.17    0.72
   0   5 -13   14.15    0.78
   0  -5  13   12.80    1.02
  -1   5 -13   -0.14    0.57
  -1   5 -13   -0.11    0.46
   5   4 -13    7.03    0.82
  -5  -4  13    5.87    0.80
   4   4 -13    3.71    0.54
  -4  -4  13    3.90    0.70
   3   4 -13    0.10    0.38
  -3  -4  13    0.67    0.63
   2   4 -13    3.98    0.70
   2   4 -13    3.40    0.50
  -2  -4  13    4.51    0.77
   1   4 -13   11.96    0.76
   1   4 -13   10.70    0.96
   0   4 -13    7.58    0.68
   0   4 -13    4.93    0.76
   0  -4  13    7.65    1.00
  -1   4 -13    1.16    0.44
   5   3 -13    4.48    0.61
  -5  -3  13    4.46    0.78
   4   3 -13    2.43    0.53
  -4  -3  13    1.18    0.65
   3   3 -13   16.61    0.87
   3   3 -13   15.80    1.05
  -3  -3  13   16.29    1.10
   2   3 -13   11.60    0.97
   2   3 -13   12.07    0.81
  -2  -3  13   11.82    1.03
   1   3 -13    1.46    0.63
   1   3 -13    1.07    0.44
  -1  -3  13    0.79    0.63
   0   3 -13    0.86    0.45
   0   3 -13    0.53    0.65
   0  -3  13    0.88    0.68
  -1   3 -13    7.79    0.75
  -5  -2  13    1.29    1.06
   4   2 -13    9.90    1.03
  -4  -2  13   10.09    0.97
   3   2 -13    4.48    0.71
  -3  -2  13    4.22    0.71
   2   2 -13    0.10    0.54
  -2  -2  13    0.44    0.64
   1   2 -13   13.37    1.04
  -1  -2  13   12.91    1.07
   0   2 -13   13.83    1.09
   0  -2  13   13.89    1.09
   5   1 -13   16.23    1.13
   4   1 -13   11.94    1.04
  -4  -1  13   11.57    1.01
   3   1 -13    7.68    0.84
  -3  -1  13    8.17    0.95
   2   1 -13    4.91    0.73
  -2  -1  13    4.82    0.76
   1   1 -13    2.77    0.67
  -1  -1  13    1.97    0.68
   6   0 -13    2.31    0.73
  -6   0  13    2.26    0.60
   5   0 -13   -0.30    0.55
  -5   0  13    0.41    0.47
   4   0 -13   34.25    1.57
  -4   0  13   36.26    1.37
  -4   0  13   39.75    1.56
   3   0 -13   33.18    1.52
  -3   0  13   34.01    1.27
  -3   0  13   32.42    1.43
   2   0 -13    4.86    0.73
  -2   0  13    5.82    0.68
  -2   0  13    5.07    0.78
   1   0 -13   -0.62    0.95
  -1   0  13    0.34    0.62
   6  -1 -13    0.75    0.76
  -6   1  13    0.43    0.50
   5  -1 -13    0.03    0.69
  -5   1  13    0.24    0.47
   4  -1 -13    4.41    0.78
  -4   1  13    4.30    0.71
  -4   1  13    4.64    0.57
   3  -1 -13    0.09    0.69
  -3   1  13    0.21    0.59
  -3   1  13   -0.02    0.40
  -2   1  13    1.66    0.61
  -2   1  13    1.98    0.44
   5  -2 -13   16.80    1.29
   4  -2 -13    2.41    1.20
  -4   2  13    2.30    0.44
  -4   2  13    2.43    0.70
  -3   2  13   -0.05    0.37
  -3   2  13   -0.45    0.67
   3   4 -14   12.62    0.90
   2   4 -14   10.10    1.06
   3   3 -14    0.90    0.51
   3   3 -14    0.71    0.68
  -3  -3  14    0.75    0.76
   2   3 -14    1.84    0.70
   2   3 -14    1.99    0.53
   4   2 -14    0.47    0.63
  -4  -2  14    0.04    0.69
   3   2 -14    1.04    0.66
  -3  -2  14    0.88    0.74
   0   0   0    0.00    0.00
;
_shelx_hkl_checksum              74015
_shelx_res_file
;
    JTM636_0m.res created by SHELXL-2014/7
TITL JTM636_0m_a.res in P-1
REM Old TITL JTM636_0m in P-1
REM SHELXT solution in P-1
REM R1 0.082,  Rweak 0.006,  Alpha 0.032,  Orientation as input
REM Formula found by SHELXT:  C15 N2 O Br2
CELL  0.71073   7.8931   9.9295  10.2411  101.751  105.968  109.482
ZERR    2.000   0.0008   0.0010   0.0011    0.001    0.002    0.001
LATT  1
SFAC C H N O BR
UNIT 30 20 4 2 4
TEMP -173
SIZE 0.12 0.31 0.35
L.S. 5
BOND $H
LIST 4
FMAP 2
PLAN 5
CONF
EADP Br1A Br1B
MPLA C1 > C6
MPLA C10 > C15
EQIV $1 -x, -y+1, -z
HTAB N2 O1_$1
ACTA 57
SADI 0.003 C3 Br1A C5 Br1B
WGHT    0.037000    0.858100
FVAR       0.17643   0.98413
PART 1
BR1A  5    0.302078   -0.007893    0.102556    21.00000    0.02331    0.01058 =
         0.02899    0.00528    0.00466    0.00794
PART 2
BR1B  5    0.962301    0.499763    0.287467   -21.00000    0.02331    0.01058 =
         0.02899    0.00528    0.00466    0.00794
PART 0
BR2   5    0.432593    0.636034    0.451098    11.00000    0.01833    0.02158 =
         0.01888    0.00892    0.00865    0.00794
O1    4    0.128661    0.677018    0.126955    11.00000    0.01494    0.01268 =
         0.03059    0.00462   -0.00091    0.00592
N1    3    0.679421    0.670941    0.223311    11.00000    0.01353    0.01488 =
         0.01417    0.00386    0.00379    0.00406
N2    3    0.243414    0.497853    0.092859    11.00000    0.01236    0.01175 =
         0.01555    0.00345    0.00003    0.00412
AFIX   3
H2A   2    0.140868    0.444999    0.013266    11.00000   -1.20000
AFIX   0
C1    1    0.375105    0.431655    0.128888    11.00000    0.01463    0.01352 =
         0.01288    0.00381    0.00403    0.00709
C2    1    0.294340    0.274944    0.098238    11.00000    0.01630    0.01168 =
         0.01386    0.00268    0.00464    0.00517
AFIX  43
H2    2    0.157796    0.219324    0.056894    11.00000   -1.20000
AFIX   0
C3    1    0.414042    0.200912    0.128337    11.00000    0.02148    0.01148 =
         0.01530    0.00265    0.00568    0.00674
PART 2
AFIX   3
H3B   2    0.357616    0.094150    0.111900   -21.00000   -1.20000
AFIX   0
PART 0
C4    1    0.615094    0.278938    0.182206    11.00000    0.02128    0.01796 =
         0.01996    0.00253    0.00527    0.01198
AFIX  43
H4    2    0.696666    0.227496    0.200482    11.00000   -1.20000
AFIX   0
C5    1    0.692208    0.433253    0.208229    11.00000    0.01514    0.01863 =
         0.02085    0.00271    0.00623    0.00824
AFIX   3
PART 1
H5A   2    0.829464    0.481839    0.242303    21.00000   -1.20000
PART 0
AFIX   0
C6    1    0.576770    0.514121    0.187012    11.00000    0.01523    0.01403 =
         0.01256    0.00262    0.00572    0.00518
C7    1    0.622757    0.768481    0.277086    11.00000    0.01261    0.01292 =
         0.01339    0.00511    0.00287    0.00361
C8    1    0.433622    0.731063    0.300631    11.00000    0.01423    0.01130 =
         0.01608    0.00337    0.00344    0.00482
AFIX  13
H8    2    0.423054    0.828535    0.335322    11.00000   -1.20000
AFIX   0
C9    1    0.256152    0.631823    0.165602    11.00000    0.01123    0.01195 =
         0.01964    0.00629    0.00343    0.00236
C10   1    0.755579    0.931653    0.326933    11.00000    0.01259    0.01215 =
         0.01725    0.00555    0.00090    0.00371
C11   1    0.757167    1.033737    0.444433    11.00000    0.01655    0.01682 =
         0.03690   -0.00001    0.00979    0.00499
AFIX  43
H11   2    0.665299    1.000107    0.487239    11.00000   -1.20000
AFIX   0
C12   1    0.891091    1.183304    0.499148    11.00000    0.01778    0.01781 =
         0.04319   -0.00385    0.00698    0.00583
AFIX  43
H12   2    0.893837    1.250795    0.580912    11.00000   -1.20000
AFIX   0
C13   1    1.021759    1.233893    0.433193    11.00000    0.01751    0.01292 =
         0.03353    0.00786   -0.00373    0.00101
AFIX  43
H13   2    1.110636    1.337002    0.467581    11.00000   -1.20000
AFIX   0
C14   1    1.021359    1.134357    0.318752    11.00000    0.02747    0.02525 =
         0.02375    0.01039    0.00811   -0.00268
AFIX  43
H14   2    1.111087    1.168761    0.274462    11.00000   -1.20000
AFIX   0
C15   1    0.890606    0.983022    0.266554    11.00000    0.02871    0.02311 =
         0.01713    0.00199    0.00870    0.00030
AFIX  43
H15   2    0.894436    0.914668    0.188796    11.00000   -1.20000
AFIX   0
HKLF 4
REM  JTM636_0m_a.res in P-1
REM R1 =  0.0282 for    3263 Fo > 4sig(Fo)  and  0.0326 for all    3674 data
REM    185 parameters refined using      1 restraints
END
WGHT      0.0369      0.8593
REM Highest difference peak  1.598,  deepest hole -0.702,  1-sigma level  0.100
Q1    1   0.2661 -0.0136  0.0243  11.00000  0.05    1.38
Q2    1   0.7294  1.0360  0.3615  11.00000  0.05    0.83
Q3    1   0.8824  1.1934  0.4165  11.00000  0.05    0.79
Q4    1   0.2266 -0.0505  0.0932  11.00000  0.05    0.75
Q5    1   1.0747  1.0817  0.3338  11.00000  0.05    0.63
;
_shelx_res_checksum              12631
loop_
_space_group_symop_operation_xyz
'x, y, z'
'-x, -y, -z'
loop_
_atom_site_type_symbol
_atom_site_label
_atom_site_fract_x
_atom_site_fract_y
_atom_site_fract_z
_atom_site_U_iso_or_equiv
_atom_site_adp_type
_atom_site_calc_flag
_atom_site_occupancy
_atom_site_disorder_assembly
_atom_site_disorder_group
Br Br1A 0.30208(3) -0.00789(2) 0.10256(3) 0.02206(8) Uani d 0.9841(7) A 1
Br Br1B 0.9623(7) 0.4998(15) 0.2875(17) 0.02206(8) Uani d 0.0159(7) A 2
Br Br2 0.43259(3) 0.63603(3) 0.45110(2) 0.01890(7) Uani d 1 . .
O O1 0.1287(2) 0.67702(18) 0.1270(2) 0.0219(4) Uani d 1 . .
N N1 0.6794(3) 0.6709(2) 0.2233(2) 0.0152(4) Uani d 1 . .
N N2 0.2434(3) 0.4979(2) 0.0929(2) 0.0148(4) Uani d 1 . .
H H2A 0.1409 0.4450 0.0133 0.018 Uiso d 1 . .
C C1 0.3751(3) 0.4317(2) 0.1289(2) 0.0136(4) Uani d 1 . .
C C2 0.2943(3) 0.2749(2) 0.0982(2) 0.0146(4) Uani d 1 . .
H H2 0.1578 0.2193 0.0569 0.018 Uiso calc 1 . .
C C3 0.4140(3) 0.2009(2) 0.1283(2) 0.0167(4) Uani d 1 . .
H H3B 0.3576 0.0941 0.1119 0.020 Uiso d 0.0159(7) A 2
C C4 0.6151(4) 0.2789(3) 0.1822(3) 0.0198(5) Uani d 1 . .
H H4 0.6967 0.2275 0.2005 0.024 Uiso calc 1 . .
C C5 0.6922(3) 0.4333(3) 0.2082(3) 0.0186(4) Uani d 1 . .
H H5A 0.8295 0.4818 0.2423 0.022 Uiso d 0.9841(7) A 1
C C6 0.5768(3) 0.5141(2) 0.1870(2) 0.0143(4) Uani d 1 . .
C C7 0.6228(3) 0.7685(2) 0.2771(2) 0.0138(4) Uani d 1 . .
C C8 0.4336(3) 0.7311(2) 0.3006(2) 0.0147(4) Uani d 1 . .
H H8 0.4231 0.8285 0.3353 0.018 Uiso calc 1 . .
C C9 0.2562(3) 0.6318(2) 0.1656(3) 0.0153(4) Uani d 1 . .
C C10 0.7556(3) 0.9317(2) 0.3269(2) 0.0153(4) Uani d 1 . .
C C11 0.7572(4) 1.0337(3) 0.4444(3) 0.0255(5) Uani d 1 . .
H H11 0.6653 1.0001 0.4872 0.031 Uiso calc 1 . .
C C12 0.8911(4) 1.1833(3) 0.4991(3) 0.0300(6) Uani d 1 . .
H H12 0.8938 1.2508 0.5809 0.036 Uiso calc 1 . .
C C13 1.0218(4) 1.2339(3) 0.4332(3) 0.0258(6) Uani d 1 . .
H H13 1.1106 1.3370 0.4676 0.031 Uiso calc 1 . .
C C14 1.0214(4) 1.1344(3) 0.3188(3) 0.0293(6) Uani d 1 . .
H H14 1.1111 1.1688 0.2745 0.035 Uiso calc 1 . .
C C15 0.8906(4) 0.9830(3) 0.2666(3) 0.0267(5) Uani d 1 . .
H H15 0.8944 0.9147 0.1888 0.032 Uiso calc 1 . .
loop_
_atom_site_aniso_label
_atom_site_aniso_U_11
_atom_site_aniso_U_22
_atom_site_aniso_U_33
_atom_site_aniso_U_12
_atom_site_aniso_U_13
_atom_site_aniso_U_23
Br1A 0.02331(13) 0.01058(11) 0.02899(14) 0.00794(9) 0.00466(10) 0.00528(9)
Br1B 0.02331(13) 0.01058(11) 0.02899(14) 0.00794(9) 0.00466(10) 0.00528(9)
Br2 0.01833(12) 0.02158(12) 0.01888(12) 0.00794(9) 0.00865(9) 0.00892(9)
O1 0.0149(8) 0.0127(7) 0.0306(10) 0.0059(6) -0.0009(7) 0.0046(7)
N1 0.0135(8) 0.0149(9) 0.0142(9) 0.0041(7) 0.0038(7) 0.0039(7)
N2 0.0124(8) 0.0118(8) 0.0155(9) 0.0041(7) 0.0000(7) 0.0035(7)
C1 0.0146(10) 0.0135(9) 0.0129(10) 0.0071(8) 0.0040(8) 0.0038(8)
C2 0.0163(10) 0.0117(9) 0.0139(10) 0.0052(8) 0.0046(8) 0.0027(8)
C3 0.0215(11) 0.0115(9) 0.0153(10) 0.0067(8) 0.0057(9) 0.0027(8)
C4 0.0213(11) 0.0180(11) 0.0200(11) 0.0120(9) 0.0053(9) 0.0025(9)
C5 0.0151(10) 0.0186(11) 0.0208(11) 0.0082(9) 0.0062(9) 0.0027(9)
C6 0.0152(10) 0.0140(10) 0.0126(10) 0.0052(8) 0.0057(8) 0.0026(8)
C7 0.0126(10) 0.0129(9) 0.0134(10) 0.0036(8) 0.0029(8) 0.0051(8)
C8 0.0142(10) 0.0113(9) 0.0161(10) 0.0048(8) 0.0034(8) 0.0034(8)
C9 0.0112(9) 0.0119(9) 0.0196(11) 0.0024(8) 0.0034(8) 0.0063(8)
C10 0.0126(10) 0.0122(9) 0.0172(10) 0.0037(8) 0.0009(8) 0.0055(8)
C11 0.0166(11) 0.0168(11) 0.0369(15) 0.0050(9) 0.0098(11) 0.0000(10)
C12 0.0178(12) 0.0178(12) 0.0432(16) 0.0058(9) 0.0070(11) -0.0039(11)
C13 0.0175(11) 0.0129(10) 0.0335(14) 0.0010(9) -0.0037(10) 0.0079(10)
C14 0.0275(14) 0.0253(13) 0.0238(13) -0.0027(10) 0.0081(11) 0.0104(10)
C15 0.0287(14) 0.0231(12) 0.0171(12) 0.0003(10) 0.0087(10) 0.0020(9)
loop_
_atom_type_symbol
_atom_type_description
_atom_type_scat_dispersion_real
_atom_type_scat_dispersion_imag
_atom_type_scat_source
C C 0.0033 0.0016 'International Tables Vol C Tables 4.2.6.8 and 6.1.1.4'
H H 0.0000 0.0000 'International Tables Vol C Tables 4.2.6.8 and 6.1.1.4'
N N 0.0061 0.0033 'International Tables Vol C Tables 4.2.6.8 and 6.1.1.4'
O O 0.0106 0.0060 'International Tables Vol C Tables 4.2.6.8 and 6.1.1.4'
Br Br -0.2901 2.4595 'International Tables Vol C Tables 4.2.6.8 and 6.1.1.4'
loop_
_geom_angle_atom_site_label_1
_geom_angle_atom_site_label_2
_geom_angle_atom_site_label_3
_geom_angle
C7 N1 C6 123.5(2)
C9 N2 C1 127.68(19)
C9 N2 H2A 116.2
C1 N2 H2A 116.1
C2 C1 C6 120.4(2)
C2 C1 N2 116.27(19)
C6 C1 N2 123.30(19)
C3 C2 C1 119.8(2)
C3 C2 H2 120.1
C1 C2 H2 120.1
C2 C3 C4 121.1(2)
C2 C3 Br1A 119.18(17)
C4 C3 Br1A 119.64(17)
C2 C3 H3B 119.4
C4 C3 H3B 119.4
C5 C4 C3 118.1(2)
C5 C4 H4 120.9
C3 C4 H4 120.9
C4 C5 C6 122.7(2)
C4 C5 Br1B 106.1(4)
C6 C5 Br1B 131.0(5)
C4 C5 H5A 115.6
C6 C5 H5A 121.8
C1 C6 C5 117.7(2)
C1 C6 N1 127.2(2)
C5 C6 N1 115.1(2)
N1 C7 C10 118.3(2)
N1 C7 C8 125.11(19)
C10 C7 C8 116.56(19)
C7 C8 C9 113.84(19)
C7 C8 Br2 110.89(14)
C9 C8 Br2 109.57(14)
C7 C8 H8 107.4
C9 C8 H8 107.4
Br2 C8 H8 107.4
O1 C9 N2 122.4(2)
O1 C9 C8 118.9(2)
N2 C9 C8 118.69(19)
C15 C10 C11 118.5(2)
C15 C10 C7 120.8(2)
C11 C10 C7 120.4(2)
C12 C11 C10 120.9(2)
C12 C11 H11 119.6
C10 C11 H11 119.6
C11 C12 C13 119.5(3)
C11 C12 H12 120.2
C13 C12 H12 120.2
C14 C13 C12 119.8(2)
C14 C13 H13 120.1
C12 C13 H13 120.1
C13 C14 C15 120.7(3)
C13 C14 H14 119.7
C15 C14 H14 119.7
C10 C15 C14 120.6(2)
C10 C15 H15 119.7
C14 C15 H15 119.7
loop_
_geom_bond_atom_site_label_1
_geom_bond_atom_site_label_2
_geom_bond_distance
Br1A C3 1.891(2)
Br1B C5 1.879(4)
Br2 C8 1.964(2)
O1 C9 1.235(3)
N1 C7 1.284(3)
N1 C6 1.406(3)
N2 C9 1.342(3)
N2 C1 1.411(3)
N2 H2A 0.8800
C1 C2 1.398(3)
C1 C6 1.403(3)
C2 C3 1.387(3)
C2 H2 0.9500
C3 C4 1.395(3)
C3 H3B 0.9600
C4 C5 1.383(3)
C4 H4 0.9500
C5 C6 1.404(3)
C5 H5A 0.9503
C7 C10 1.490(3)
C7 C8 1.513(3)
C8 C9 1.518(3)
C8 H8 1.0000
C10 C15 1.381(3)
C10 C11 1.401(3)
C11 C12 1.387(3)
C11 H11 0.9500
C12 C13 1.396(4)
C12 H12 0.9500
C13 C14 1.369(4)
C13 H13 0.9500
C14 C15 1.394(4)
C14 H14 0.9500
C15 H15 0.9500
loop_
_geom_hbond_atom_site_label_D
_geom_hbond_atom_site_label_H
_geom_hbond_atom_site_label_A
_geom_hbond_site_symmetry_A
_geom_hbond_distance_DH
_geom_hbond_distance_HA
_geom_hbond_distance_DA
_geom_hbond_angle_DHA
N2 H2A O1 2_565 0.88 1.99 2.842(2) 164
C4 H4 Cg1 1_545 0.95 0.96 3.824(3) 151
loop_
_geom_torsion_atom_site_label_1
_geom_torsion_atom_site_label_2
_geom_torsion_atom_site_label_3
_geom_torsion_atom_site_label_4
_geom_torsion
C9 N2 C1 C2 143.1(2)
C9 N2 C1 C6 -39.4(3)
C6 C1 C2 C3 1.4(3)
N2 C1 C2 C3 179.0(2)
C1 C2 C3 C4 -3.3(3)
C1 C2 C3 Br1A 174.27(17)
C2 C3 C4 C5 1.6(4)
Br1A C3 C4 C5 -176.00(18)
C3 C4 C5 C6 2.1(4)
C3 C4 C5 Br1B 177.3(6)
C2 C1 C6 C5 2.1(3)
N2 C1 C6 C5 -175.4(2)
C2 C1 C6 N1 179.9(2)
N2 C1 C6 N1 2.5(4)
C4 C5 C6 C1 -3.9(4)
Br1B C5 C6 C1 -177.7(7)
C4 C5 C6 N1 178.0(2)
Br1B C5 C6 N1 4.2(8)
C7 N1 C6 C1 36.6(3)
C7 N1 C6 C5 -145.5(2)
C6 N1 C7 C10 172.9(2)
C6 N1 C7 C8 -4.2(3)
N1 C7 C8 C9 -56.2(3)
C10 C7 C8 C9 126.7(2)
N1 C7 C8 Br2 67.9(3)
C10 C7 C8 Br2 -109.17(18)
C1 N2 C9 O1 -177.4(2)
C1 N2 C9 C8 2.4(3)
C7 C8 C9 O1 -123.5(2)
Br2 C8 C9 O1 111.7(2)
C7 C8 C9 N2 56.7(3)
Br2 C8 C9 N2 -68.1(2)
N1 C7 C10 C15 27.1(3)
C8 C7 C10 C15 -155.6(2)
N1 C7 C10 C11 -147.3(2)
C8 C7 C10 C11 30.0(3)
C15 C10 C11 C12 0.1(4)
C7 C10 C11 C12 174.6(2)
C10 C11 C12 C13 2.2(4)
C11 C12 C13 C14 -2.5(4)
C12 C13 C14 C15 0.5(4)
C11 C10 C15 C14 -2.0(4)
C7 C10 C15 C14 -176.6(2)
C13 C14 C15 C10 1.8(4)

_cod_database_fobs_code 1545649
