#------------------------------------------------------------------------------
#$Date: 2017-03-11 09:14:56 +0200 (Sat, 11 Mar 2017) $
#$Revision: 194191 $
#$URL: file:///home/coder/svn-repositories/cod/cif/1/54/55/1545559.cif $
#------------------------------------------------------------------------------
#
# This file is available in the Crystallography Open Database (COD),
# http://www.crystallography.net/. The original data for this entry
# were provided by IUCr Journals, http://journals.iucr.org/.
#
# The file may be used within the scientific community so long as
# proper attribution is given to the journal article from which the
# data were obtained.
#
data_1545559
loop_
_publ_author_name
'Golen, James A.'
'Manke, David R.'
_publ_section_title
;
 5,6-Dibromo-1<i>H</i>-indole-2,3-dione
;
_journal_issue                   3
_journal_name_full               IUCrData
_journal_page_first              x170355
_journal_paper_doi               10.1107/S2414314617003558
_journal_volume                  2
_journal_year                    2017
_chemical_formula_iupac          'C8 H3 Br2 N O2'
_chemical_formula_moiety         'C8 H3 Br2 N O2'
_chemical_formula_sum            'C8 H3 Br2 N O2'
_chemical_formula_weight         304.93
_chemical_name_systematic
;
5,6-Dibromo-1<i>H</i>-indole-2,3-dione
;
_space_group_crystal_system      triclinic
_space_group_IT_number           2
_space_group_name_Hall           '-P 1'
_space_group_name_H-M_alt        'P -1'
_symmetry_space_group_name_Hall  '-P 1'
_symmetry_space_group_name_H-M   'P -1'
_atom_sites_solution_hydrogens   mixed
_atom_sites_solution_primary     direct
_atom_sites_solution_secondary   difmap
_cell_angle_alpha                108.078(4)
_cell_angle_beta                 93.481(5)
_cell_angle_gamma                101.484(4)
_cell_formula_units_Z            4
_cell_length_a                   7.1044(10)
_cell_length_b                   10.5317(15)
_cell_length_c                   12.2598(17)
_cell_measurement_reflns_used    9890
_cell_measurement_temperature    200(2)
_cell_measurement_theta_max      25.37
_cell_measurement_theta_min      3.15
_cell_volume                     847.1(2)
_computing_cell_refinement
;
SAINT (Bruker, 2014)
;
_computing_data_collection
;
APEX2 (Bruker, 2014)
;
_computing_data_reduction
;
SAINT (Bruker, 2014)
;
_computing_molecular_graphics
;
<i>OLEX2</i> (Dolomanov <i>et al.</i>,  2009)
;
_computing_publication_material
;
publCIF (Westrip, 2010)
;
_computing_structure_refinement
;
SHELXL2014 (Sheldrick, 2015)
;
_computing_structure_solution
;
SHELXS97 (Sheldrick, 2008)
;
_diffrn_ambient_temperature      200.0
_diffrn_measured_fraction_theta_full 0.998
_diffrn_measured_fraction_theta_max 0.996
_diffrn_measurement_device_type  'Bruker D8 Venture CMOS'
_diffrn_measurement_method       '\f and \w scans'
_diffrn_radiation_type           MoK\a
_diffrn_radiation_wavelength     0.71073
_diffrn_reflns_av_R_equivalents  0.0374
_diffrn_reflns_limit_h_max       8
_diffrn_reflns_limit_h_min       -8
_diffrn_reflns_limit_k_max       12
_diffrn_reflns_limit_k_min       -12
_diffrn_reflns_limit_l_max       14
_diffrn_reflns_limit_l_min       -14
_diffrn_reflns_number            23591
_diffrn_reflns_theta_full        25.250
_diffrn_reflns_theta_max         25.388
_diffrn_reflns_theta_min         2.951
_diffrn_standards_number         0
_exptl_absorpt_coefficient_mu    9.528
_exptl_absorpt_correction_T_max  0.2590
_exptl_absorpt_correction_T_min  0.1468
_exptl_absorpt_correction_type   multi-scan
_exptl_absorpt_process_details
;
(SADABS; Bruker, 2014)
;
_exptl_crystal_colour            orange
_exptl_crystal_density_diffrn    2.391
_exptl_crystal_description       block
_exptl_crystal_F_000             576
_exptl_crystal_size_max          0.18
_exptl_crystal_size_mid          0.07
_exptl_crystal_size_min          0.05
_refine_diff_density_max         0.384
_refine_diff_density_min         -0.593
_refine_ls_extinction_method     none
_refine_ls_goodness_of_fit_ref   1.043
_refine_ls_hydrogen_treatment    mixed
_refine_ls_matrix_type           full
_refine_ls_number_parameters     241
_refine_ls_number_reflns         3116
_refine_ls_number_restraints     2
_refine_ls_restrained_S_all      1.043
_refine_ls_R_factor_all          0.0266
_refine_ls_R_factor_gt           0.0197
_refine_ls_shift/su_max          0.001
_refine_ls_shift/su_mean         0.000
_refine_ls_structure_factor_coef Fsqd
_refine_ls_weighting_details
'w=1/[\s^2^(Fo^2^)+(0.0200P)^2^+0.9509P] where P=(Fo^2^+2Fc^2^)/3'
_refine_ls_weighting_scheme      calc
_refine_ls_wR_factor_gt          0.0443
_refine_ls_wR_factor_ref         0.0470
_reflns_number_gt                2728
_reflns_number_total             3116
_reflns_threshold_expression     'I > 2\s(I)'
_cod_data_source_file            su4137sup1.cif
_cod_data_source_block           I
_cod_database_code               1545559
_shelx_space_group_comment
;
The symmetry employed for this shelxl refinement is uniquely defined
by the following loop, which should always be used as a source of
symmetry information in preference to the above space-group names.
They are only intended as comments.
;
_shelx_estimated_absorpt_t_min   0.279
_shelx_estimated_absorpt_t_max   0.647
_shelx_hkl_file
;
  -1   0   0    0.00    1.40
  -1   0   0    0.10    1.10
   1   0   0    0.70    1.40
   1   0   0   -0.20    1.30
  -2   0   0  939.31   30.50
  -2   0   0  931.81   30.60
  -2   0   0  903.41   30.50
  -2   0   0  942.91   30.50
  -2   0   0  895.41   29.70
   2   0   0  976.70   30.70
   2   0   0  907.21   29.40
   2   0   0  944.61   30.50
   2   0   0  901.01   30.40
   2   0   0  928.01   30.60
  -3   0   0 9183.68  293.97
  -3   0   0 9737.63  294.37
  -3   0   0 9999.00  294.47
  -3   0   0 9545.34  293.07
  -3   0   0 9841.21  294.17
   3   0   0 9374.06  294.07
   3   0   0 9708.33  294.37
   3   0   0 9383.76  294.27
   3   0   0 9406.26  292.57
  -4   0   0 1547.95   51.19
  -4   0   0 1500.75   49.40
  -4   0   0 1492.65   51.19
  -4   0   0 1503.65   50.89
  -4   0   0 1519.95   50.89
   4   0   0 1540.45   48.80
   4   0   0 1495.45   50.89
   4   0   0 1574.04   51.49
   4   0   0 1577.94   51.59
  -5   0   0  945.01   35.40
  -5   0   0  934.01   35.20
  -5   0   0  980.00   35.50
  -5   0   0  976.70   35.50
  -5   0   0  950.60   32.80
   5   0   0  941.41   35.40
   5   0   0  901.41   35.30
   5   0   0  962.80   32.20
   5   0   0  954.90   35.70
  -6   0   0  339.97   20.50
  -6   0   0  318.77   15.60
  -6   0   0  296.97   19.60
  -6   0   0  315.07   20.00
   6   0   0  291.27   19.10
   6   0   0  292.67   14.70
   6   0   0  274.37   18.50
   6   0   0  322.87   20.00
  -7   0   0  355.76   24.80
  -7   0   0  352.36   22.60
  -7   0   0  326.07   17.70
  -7   0   0  341.07   24.00
  -7   0   0  347.17   23.60
   7   0   0  314.77   22.30
   7   0   0  355.56   17.30
   7   0   0  336.07   23.20
   7   0   0  363.96   23.90
  -8   0   0   -5.10   15.00
  -8   0   0   11.20   15.00
  -8   0   0   -6.70    8.30
  -8   0   0    0.80   13.00
  -8   0   0   15.90   13.70
   8   0   0   10.10    8.00
   8   0   0    8.40   13.80
   8   0   0   -5.90   13.40
   8  -1   0  843.82   38.20
   8  -1   0  876.31   38.60
   8  -1   0  850.21   40.30
   8  -1   0  870.31   32.80
  -8   1   0  757.82   32.50
  -8   1   0  839.52   39.30
  -8   1   0  795.92   38.10
  -8   1   0  846.22   38.70
  -8   1   0  815.42   39.80
   7  -1   0  241.08   15.60
   7  -1   0  238.78   21.30
   7  -1   0  263.47   21.90
   7  -1   0  262.87   20.20
  -7   1   0  262.67   21.30
  -7   1   0  254.47   15.60
  -7   1   0  216.08   19.60
  -7   1   0  290.27   21.70
  -7   1   0  263.87   21.00
   6  -1   0  746.73   27.70
   6  -1   0  678.03   30.80
   6  -1   0  760.82   31.80
   6  -1   0  775.12   31.30
  -6   1   0  803.62   32.20
  -6   1   0  760.72   31.00
  -6   1   0  729.53   27.90
  -6   1   0  725.83   30.70
  -6   1   0  777.62   31.10
   5  -1   0  223.68   11.10
   5  -1   0  204.38   14.20
   5  -1   0  204.68   14.00
   5  -1   0  201.48   14.70
  -5   1   0  181.58   13.30
  -5   1   0  194.38   14.30
  -5   1   0  197.68   11.60
  -5   1   0  198.98   14.80
  -5   1   0  195.38   13.70
   4  -1   0 1405.06   48.80
   4  -1   0 1514.95   49.40
   4  -1   0 1480.95   47.00
   4  -1   0 1443.06   48.70
  -4   1   0 1457.65   49.00
  -4   1   0 1446.36   48.70
  -4   1   0 1460.25   48.80
  -4   1   0 1461.55   48.80
   3  -1   0  197.78   10.20
   3  -1   0  199.18   10.40
   3  -1   0  203.88    9.10
   3  -1   0  206.38   10.50
  -3   1   0  205.38   10.30
  -3   1   0  219.88   10.70
  -3   1   0  195.28   10.70
  -3   1   0  200.08   10.40
   2  -1   0  552.24   19.20
   2  -1   0  544.65   19.10
   2  -1   0  548.45   19.20
   2  -1   0  546.75   18.40
  -2   1   0  555.74   19.10
  -2   1   0  557.84   19.20
  -2   1   0  555.84   19.20
   1  -1   0  344.97   11.30
   1  -1   0  327.47   11.40
  -1   1   0  302.57   11.90
  -1   1   0  325.67   11.30
  -1  -1   0  869.91   29.10
  -1  -1   0  875.61   29.00
  -1  -1   0  920.61   29.10
  -1  -1   0  929.21   29.00
  -1  -1   0  907.91   28.70
   1   1   0  888.91   28.70
   1   1   0  890.81   27.90
   1   1   0  942.71   29.10
   1   1   0  959.00   29.10
   1   1   0  904.01   29.10
  -2  -1   0 5411.86  169.98
  -2  -1   0 5590.74  170.88
  -2  -1   0 5583.74  170.78
  -2  -1   0 5401.86  170.88
  -2  -1   0 5719.53  170.78
   2   1   0 5581.34  170.18
   2   1   0 5447.46  170.88
   2   1   0 5413.16  170.78
   2   1   0 5762.52  170.78
   2   1   0 5513.95  169.28
   2   1   0 5540.15  170.78
  -3  -1   0  300.87   13.40
  -3  -1   0  279.27   13.20
  -3  -1   0  274.87   11.30
  -3  -1   0  282.07   12.90
  -3  -1   0  282.47   13.00
   3   1   0  267.87   10.20
   3   1   0  268.57   12.80
   3   1   0  264.57   12.60
   3   1   0  264.17   12.80
   3   1   0  290.47   13.10
  -4  -1   0   42.60    6.80
  -4  -1   0   37.30    5.10
  -4  -1   0   57.49    8.00
  -4  -1   0   56.29    7.90
  -4  -1   0   44.80    7.10
   4   1   0   50.59    4.60
   4   1   0   36.30    6.80
   4   1   0   44.80    7.20
   4   1   0   50.99    7.10
   4   1   0   50.29    7.30
  -5  -1   0 3727.23  115.79
  -5  -1   0 3661.63  115.19
  -5  -1   0 3620.14  112.89
  -5  -1   0 3593.14  115.59
  -5  -1   0 3588.84  115.09
   5   1   0 3343.57  114.99
   5   1   0 3652.93  115.89
   5   1   0 3562.64  111.79
   5   1   0 3618.34  115.29
  -6  -1   0   82.69   12.30
  -6  -1   0  118.49   12.30
  -6  -1   0  105.39   13.20
  -6  -1   0  101.39   12.10
  -6  -1   0  119.69   11.10
   6   1   0   92.99    9.60
   6   1   0   97.29   12.00
   6   1   0  100.39   12.70
   6   1   0  104.29   12.90
  -7  -1   0  197.58   14.40
  -7  -1   0  151.18   19.10
  -7  -1   0  169.98   20.00
  -7  -1   0  202.08   22.30
  -7  -1   0  202.98   20.90
   7   1   0  169.38   12.70
   7   1   0  192.58   21.30
   7   1   0  198.98   20.70
  -8  -1   0  808.92   31.90
  -8  -1   0  858.51   39.50
  -8  -1   0  844.72   39.00
  -8  -1   0  787.92   38.70
  -8  -1   0  794.12   39.30
   8   1   0  782.12   38.70
   8   1   0  777.52   38.60
   8   1   0  814.72   39.80
   8   1   0  807.92   30.80
   8  -2   0   -8.70   12.30
   8  -2   0    3.30   13.60
   8  -2   0   18.10    9.30
   8  -2   0    6.60   12.00
  -8   2   0    8.70   14.60
  -8   2   0   13.20   13.80
  -8   2   0   -0.70   13.20
  -8   2   0   -7.60   12.20
  -8   2   0    1.50    8.90
   7  -2   0   -5.90   10.50
   7  -2   0    2.50    7.70
   7  -2   0   -2.10   11.20
   7  -2   0    8.70   10.50
  -7   2   0    1.50    9.90
  -7   2   0    7.10    7.40
  -7   2   0   10.40   11.00
  -7   2   0    2.00   10.70
  -7   2   0   -4.20   10.70
   6  -2   0 1466.15   52.49
   6  -2   0 1473.25   51.99
   6  -2   0 1480.45   49.80
   6  -2   0 1517.65   53.19
  -6   2   0 1475.75   53.09
  -6   2   0 1540.95   52.59
  -6   2   0 1469.25   52.29
  -6   2   0 1455.85   52.19
  -6   2   0 1473.95   49.80
   5  -2   0   91.79    9.20
   5  -2   0  102.09   11.70
   5  -2   0  110.29   12.70
   5  -2   0  107.19   11.10
  -5   2   0  112.59   11.70
  -5   2   0  107.59   11.70
  -5   2   0  108.89   12.20
  -5   2   0   95.29   12.30
   4  -2   0 1667.13   53.09
   4  -2   0 1604.34   51.59
   4  -2   0 1555.54   53.09
   4  -2   0 1503.45   53.09
  -4   2   0 1655.03   53.09
  -4   2   0 1613.74   53.19
  -4   2   0 1546.75   53.09
  -4   2   0 1657.43   52.89
   3  -2   0 4171.68  125.79
   3  -2   0 4010.80  125.39
   3  -2   0 4180.38  125.79
   3  -2   0 3939.91  124.69
  -3   2   0 3813.62  125.39
  -3   2   0 4006.20  125.79
  -3   2   0 4106.19  125.69
   2  -2   0 4256.17  131.69
   2  -2   0 4461.45  131.59
   2  -2   0 4303.57  131.19
   2  -2   0 4392.76  131.69
  -2   2   0 4322.47  131.59
  -2   2   0 3907.41  131.59
  -2   2   0 4199.88  131.59
   1  -2   0 4512.45  136.79
   1  -2   0 4612.74  136.49
   1  -2   0 4709.03  136.89
  -1   2   0 4227.48  136.89
  -1   2   0 3961.50  136.59
  -1   2   0 4494.05  136.59
  -1   2   0 4635.54  137.29
   0  -2   0  431.06   14.80
   0  -2   0  434.16   15.20
   0  -2   0  417.16   14.80
   0  -2   0  448.86   14.00
   0   2   0  473.55   15.30
   0   2   0  416.36   14.50
   0   2   0  415.36   15.20
  -1  -2   0 5804.02  174.78
  -1  -2   0 5687.73  174.68
  -1  -2   0 5765.72  174.78
  -1  -2   0 5495.25  174.58
   1   2   0 5571.04  174.78
   1   2   0 6025.00  174.88
   1   2   0 5405.16  174.58
   1   2   0 5777.42  174.48
  -2  -2   0 1051.09   34.30
  -2  -2   0 1041.20   33.40
  -2  -2   0 1003.80   34.20
  -2  -2   0 1067.09   34.20
  -2  -2   0 1008.60   34.10
   2   2   0 1062.89   33.70
   2   2   0 1030.70   34.30
   2   2   0  996.30   33.90
   2   2   0 1025.50   34.20
   2   2   0 1002.20   31.80
  -3  -2   0 1154.08   40.00
  -3  -2   0 1207.18   38.90
  -3  -2   0 1241.88   40.20
  -3  -2   0 1191.38   40.50
  -3  -2   0 1115.29   40.10
   3   2   0 1192.18   40.10
   3   2   0 1275.67   39.50
   3   2   0 1184.78   37.20
   3   2   0 1205.58   40.30
   3   2   0 1128.49   40.00
  -4  -2   0  877.21   30.10
  -4  -2   0  861.31   32.20
  -4  -2   0  855.21   32.00
  -4  -2   0  873.21   32.30
  -4  -2   0  864.81   32.20
   4   2   0  864.81   30.70
   4   2   0  854.71   28.30
   4   2   0  886.31   32.20
   4   2   0  905.81   32.40
   4   2   0  894.41   32.00
  -5  -2   0    7.20    7.60
  -5  -2   0    4.60    7.70
  -5  -2   0    1.40    8.60
  -5  -2   0    4.80    7.20
  -5  -2   0    0.30    5.40
   5   2   0   10.10    4.10
   5   2   0   12.10    8.60
   5   2   0    4.40    7.70
  -6  -2   0   79.89    8.80
  -6  -2   0   66.39   12.90
  -6  -2   0   74.09   11.90
  -6  -2   0   67.59   12.60
  -6  -2   0   61.89   11.30
   6   2   0   88.99    8.50
   6   2   0   75.09   12.30
   6   2   0   63.69   11.30
   6   2   0   55.49   11.50
  -7  -2   0  102.19   15.10
  -7  -2   0  110.49   16.30
  -7  -2   0  128.69   16.30
  -7  -2   0  136.89   17.30
  -7  -2   0  142.69   14.00
   7   2   0   94.69   10.40
   7   2   0  122.99   15.70
   7   2   0  103.89   16.00
   8  -3   0  146.99   16.90
   8  -3   0  157.08   17.00
   8  -3   0  152.08   18.40
   8  -3   0  124.89   17.70
  -8   3   0  170.18   19.30
  -8   3   0  144.39   17.70
  -8   3   0  134.79   16.50
  -8   3   0  156.38   17.80
  -8   3   0  150.48   13.70
   7  -3   0  232.98   18.70
   7  -3   0  143.79   16.40
   7  -3   0  227.98   15.40
   7  -3   0  196.58   17.90
  -7   3   0  204.68   17.60
  -7   3   0  256.27   19.50
  -7   3   0  202.38   18.40
  -7   3   0  208.18   19.80
  -7   3   0  187.98   15.10
   6  -3   0    3.60    6.40
   6  -3   0    6.70    8.30
   6  -3   0    3.60    8.10
   6  -3   0    4.20    7.50
  -6   3   0   -3.30    7.50
  -6   3   0    0.90    8.80
  -6   3   0    4.40    8.00
  -6   3   0   -1.10    8.30
   5  -3   0  860.31   31.10
   5  -3   0  791.42   30.50
   5  -3   0  802.12   29.10
   5  -3   0  780.42   31.00
  -5   3   0  813.02   31.00
  -5   3   0  816.42   31.50
  -5   3   0  806.42   30.80
  -5   3   0  806.62   30.60
   4  -3   0    3.30    4.30
   4  -3   0   -1.10    5.00
   4  -3   0   -5.00    4.80
   4  -3   0   -2.20    4.60
  -4   3   0   -1.40    5.10
  -4   3   0   -3.70    4.50
  -4   3   0   -1.00    4.90
   3  -3   0   -1.40    3.80
   3  -3   0   -1.70    3.70
   3  -3   0   -1.10    3.80
   3  -3   0    2.30    3.90
  -3   3   0    3.40    4.40
  -3   3   0   -2.50    3.70
  -3   3   0   -0.40    3.80
   2  -3   0  335.77   13.30
   2  -3   0  327.17   13.10
   2  -3   0  342.07   11.20
   2  -3   0  331.77   12.70
  -2   3   0  349.77   13.10
  -2   3   0  322.87   13.10
  -2   3   0  327.27   13.50
   1  -3   0 2067.29   67.19
   1  -3   0 2161.28   67.49
   1  -3   0 2212.58   66.09
   1  -3   0 2102.29   67.09
  -1   3   0 2176.98   67.39
  -1   3   0 2201.18   66.69
  -1   3   0 1969.80   66.79
  -1   3   0 2117.89   66.89
   0  -3   0  809.92   25.00
   0  -3   0  783.02   26.70
   0  -3   0  774.82   26.00
   0  -3   0  723.73   26.10
   0   3   0  820.82   26.90
   0   3   0  805.32   25.80
   0   3   0  791.42   25.70
   0   3   0  821.62   27.00
  -1  -3   0   51.09    5.40
  -1  -3   0   50.19    5.20
  -1  -3   0   37.90    4.60
  -1  -3   0   48.40    5.10
   1   3   0   48.40    4.80
   1   3   0   39.50    4.90
   1   3   0   45.60    5.30
   1   3   0   46.30    5.00
  -2  -3   0 1862.91   59.49
  -2  -3   0 1859.21   59.29
  -2  -3   0 1860.41   59.29
  -2  -3   0 1820.92   59.49
   2   3   0 1767.12   59.19
   2   3   0 1860.31   58.89
   2   3   0 1908.71   59.29
   2   3   0 1838.92   59.59
  -3  -3   0 2911.11   91.49
  -3  -3   0 2803.32   89.89
  -3  -3   0 2875.01   90.99
  -3  -3   0 2821.62   90.99
  -3  -3   0 2936.51   91.49
   3   3   0 2781.02   91.29
   3   3   0 2825.42   90.39
   3   3   0 2905.41   90.99
   3   3   0 2886.11   91.29
  -4  -3   0  265.07   13.20
  -4  -3   0  261.07   15.70
  -4  -3   0  267.17   15.30
  -4  -3   0  259.07   15.30
  -4  -3   0  261.07   15.40
   4   3   0  239.68   14.90
   4   3   0  245.08   15.80
   4   3   0  265.27   14.40
   4   3   0  269.57   15.00
   4   3   0  251.77    9.60
  -5  -3   0    0.10    8.20
  -5  -3   0    6.80    8.50
  -5  -3   0   19.60    8.30
  -5  -3   0   24.30    6.40
  -5  -3   0   16.80    8.50
   5   3   0   21.90    9.10
   5   3   0   14.30    8.40
   5   3   0   19.70    8.50
   5   3   0   20.50    3.90
  -6  -3   0 1872.81   66.79
  -6  -3   0 1914.31   66.89
  -6  -3   0 1895.21   66.49
  -6  -3   0 1950.10   63.19
  -6  -3   0 1981.60   66.89
   6   3   0 1854.21   66.89
   6   3   0 1866.71   66.49
   6   3   0 1901.21   60.19
  -7  -3   0   11.00   14.50
  -7  -3   0   22.70   12.60
  -7  -3   0   16.90   14.20
  -7  -3   0   35.10   14.60
   7   3   0   20.80   14.60
   7   3   0    9.40   14.20
   8  -4   0  342.07   21.70
   8  -4   0  377.46   27.60
   8  -4   0  344.77   26.60
   8  -4   0  340.27   24.60
  -8   4   0  357.96   25.70
  -8   4   0  308.77   20.70
  -8   4   0  321.47   25.00
  -8   4   0  367.76   25.70
  -8   4   0  362.06   26.20
   7  -4   0    1.30    7.50
   7  -4   0   11.20   11.70
   7  -4   0   15.80   10.20
  -7   4   0    3.80   10.10
  -7   4   0   34.10   10.10
  -7   4   0   31.80   12.00
  -7   4   0   19.40    9.70
   6  -4   0   70.49    9.10
   6  -4   0   56.59    9.40
   6  -4   0   78.99   11.30
  -6   4   0   51.69    9.50
  -6   4   0   68.59   10.30
  -6   4   0   59.69   10.70
  -6   4   0   60.59   11.30
   5  -4   0 2073.99   69.09
   5  -4   0 2054.19   67.79
   5  -4   0 2074.69   69.49
   5  -4   0 2054.39   68.79
  -5   4   0 2156.98   68.99
  -5   4   0 2121.19   69.29
  -5   4   0 2097.09   69.79
  -5   4   0 2095.39   69.19
   4  -4   0  123.39   10.80
   4  -4   0  127.49   10.70
   4  -4   0  131.79   10.40
   4  -4   0  123.09    9.70
   4  -4   0  136.79    6.90
  -4   4   0  119.19   10.40
  -4   4   0  119.39   11.00
  -4   4   0  128.19   10.20
   3  -4   0  519.35   20.20
   3  -4   0  521.15   17.20
   3  -4   0  558.84   19.70
   3  -4   0  528.55   20.00
   3  -4   0  523.15   19.40
  -3   4   0  534.65   20.30
  -3   4   0  493.75   19.90
  -3   4   0  511.25   19.60
   2  -4   0 1741.93   56.79
   2  -4   0 1934.31   57.49
   2  -4   0 1817.02   57.79
  -2   4   0 1735.03   58.29
  -2   4   0 1717.03   57.79
  -2   4   0 1825.22   55.19
  -2   4   0 1774.72   56.99
   1  -4   0  829.32   26.80
   1  -4   0  844.42   28.90
   1  -4   0  758.52   28.70
   1  -4   0  806.02   28.60
  -1   4   0  809.72   28.00
  -1   4   0  861.81   28.80
  -1   4   0  836.22   27.70
  -1   4   0  803.02   27.80
   0  -4   0 4096.59  124.49
   0  -4   0 4224.78  125.19
   0  -4   0 4033.90  123.19
   0  -4   0 4062.99  125.39
   0   4   0 4041.20  125.49
   0   4   0 3906.71  124.09
   0   4   0 3911.91  124.19
   0   4   0 3867.61  125.79
  -1  -4   0   86.19    6.90
  -1  -4   0   72.49    6.90
  -1  -4   0   72.59    8.00
   1   4   0   84.29    7.20
   1   4   0   79.59    7.20
   1   4   0   68.99    6.30
   1   4   0   65.79    6.20
  -2  -4   0  759.32   27.10
  -2  -4   0  756.82   26.80
  -2  -4   0  733.13   27.10
  -2  -4   0  781.82   26.80
   2   4   0  735.03   26.40
   2   4   0  693.53   26.80
   2   4   0  770.72   26.60
   2   4   0  769.52   26.90
  -3  -4   0 1165.68   40.70
  -3  -4   0 1186.58   40.60
  -3  -4   0 1168.88   40.50
  -3  -4   0 1196.18   40.40
   3   4   0 1177.88   40.60
   3   4   0 1157.28   39.80
   3   4   0 1171.38   40.90
   3   4   0 1105.49   39.90
  -4  -4   0  962.20   35.80
  -4  -4   0  978.60   35.40
  -4  -4   0  955.40   35.40
  -4  -4   0  957.10   36.10
   4   4   0  924.51   34.30
   4   4   0  934.41   35.10
   4   4   0  883.21   34.70
   4   4   0  982.50   35.80
  -5  -4   0    8.00    8.80
  -5  -4   0   10.30    8.90
  -5  -4   0    2.20    7.50
  -5  -4   0    2.60    8.30
   5   4   0    5.70    8.90
   5   4   0    3.20    8.20
   5   4   0   -7.00    8.40
   5   4   0   -2.20    9.10
  -6  -4   0   18.40   11.50
  -6  -4   0   22.90   11.40
  -6  -4   0   23.30   10.70
  -6  -4   0   29.70   12.40
   6   4   0   16.70   11.40
   6   4   0   12.70   11.80
  -7  -4   0  306.87   26.10
  -7  -4   0  289.47   25.90
  -7  -4   0  246.28   27.00
  -7  -4   0  357.26   28.20
   7   4   0  282.97   26.40
   7   4   0  362.66   25.40
   8  -5   0  102.39   16.90
   8  -5   0  156.58   17.60
   8  -5   0  110.99   16.60
  -8   5   0  111.29   16.40
  -8   5   0   91.49   16.00
  -8   5   0  100.19   15.60
  -8   5   0  127.79   17.20
   7  -5   0   64.49   12.50
   7  -5   0   46.00    9.10
   7  -5   0   71.79   12.10
  -7   5   0   70.89   12.30
  -7   5   0   71.39   12.40
  -7   5   0   58.19   12.10
  -7   5   0   44.80   12.40
   6  -5   0    2.50    8.50
   6  -5   0   -0.10    7.10
   6  -5   0   -4.70    7.90
   6  -5   0    2.30    4.90
  -6   5   0   -2.20    8.40
  -6   5   0    3.00    8.50
  -6   5   0    6.80    8.30
  -6   5   0   15.50    9.90
   5  -5   0   40.10    7.00
   5  -5   0   60.09    9.30
   5  -5   0   51.19    6.10
   5  -5   0   51.59    8.30
   5  -5   0   47.10    8.90
  -5   5   0   50.09    8.50
  -5   5   0   44.50    9.40
  -5   5   0   44.80    8.50
   4  -5   0  374.66   17.10
   4  -5   0  354.66   17.30
   4  -5   0  350.26   16.30
   4  -5   0  358.66   16.00
   4  -5   0  369.16   12.80
  -4   5   0  351.46   17.60
  -4   5   0  361.66   17.10
  -4   5   0  345.57   16.30
   3  -5   0  882.01   32.00
   3  -5   0  889.71   31.30
   3  -5   0  918.61   30.90
  -3   5   0  877.01   33.10
  -3   5   0  940.81   31.20
  -3   5   0  925.71   32.00
  -3   5   0  840.82   32.10
   2  -5   0   27.70    5.40
   2  -5   0   29.80    4.70
   2  -5   0   22.70    6.20
  -2   5   0   25.10    6.50
  -2   5   0   33.10    3.60
  -2   5   0   29.50    5.90
  -2   5   0   27.90    5.50
  -2   5   0   34.10    4.80
   1  -5   0   12.20    4.70
   1  -5   0    6.60    5.20
   1  -5   0    8.00    5.50
   1  -5   0    8.20    6.10
   1  -5   0   13.30    3.50
  -1   5   0   14.40    3.90
  -1   5   0    7.40    4.90
  -1   5   0   11.00    4.10
  -1   5   0   12.10    5.20
   0  -5   0 3422.06  110.59
   0  -5   0 3483.55  109.09
   0  -5   0 3592.64  111.89
   0  -5   0 3942.61  112.19
   0   5   0 3625.94  110.29
   0   5   0 3229.38  112.39
   0   5   0 3593.54  110.39
   0   5   0 3483.35  111.99
  -1  -5   0  360.16   15.60
  -1  -5   0  401.16   16.40
  -1  -5   0  376.66   16.80
  -1  -5   0  388.36   12.40
   1   5   0  368.46   15.10
   1   5   0  385.26   16.70
   1   5   0  357.06   15.10
   1   5   0  358.36   15.50
  -2  -5   0  686.83   25.20
  -2  -5   0  682.13   26.60
  -2  -5   0  658.43   25.20
  -2  -5   0  675.93   25.40
  -2  -5   0  686.23   25.80
   2   5   0  681.63   25.00
   2   5   0  683.43   25.90
   2   5   0  638.74   25.10
   2   5   0  685.03   25.20
  -3  -5   0 1412.66   49.50
  -3  -5   0 1446.66   48.50
  -3  -5   0 1515.85   49.30
  -3  -5   0 1322.57   48.20
  -3  -5   0 1430.56   48.90
   3   5   0 1398.16   48.50
   3   5   0 1441.06   48.20
   3   5   0 1376.06   47.70
   3   5   0 1414.86   49.30
  -4  -5   0 1090.69   39.70
  -4  -5   0 1058.89   40.30
  -4  -5   0 1054.69   39.40
   4   5   0 1053.59   38.80
   4   5   0 1061.09   39.70
   4   5   0 1073.09   39.90
   4   5   0 1076.49   39.20
  -5  -5   0  973.30   38.70
  -5  -5   0  906.91   39.50
  -5  -5   0  941.01   38.60
   5   5   0 1026.30   39.40
   5   5   0 1018.10   38.30
   5   5   0  981.60   38.50
   5   5   0  996.30   39.70
  -6  -5   0   34.90   12.90
  -6  -5   0  -15.30   10.90
  -6  -5   0   15.10   12.70
  -6  -5   0  -18.60   10.60
   6   5   0    0.50   11.30
   6   5   0   -1.30   11.30
   6   5   0    9.00   12.10
   8  -6   0  102.59   16.80
   8  -6   0  122.19   16.30
   8  -6   0  187.78   18.80
  -8   6   0  145.39   17.10
  -8   6   0  183.98   20.20
  -8   6   0  117.79   16.10
  -8   6   0  121.79   16.60
   7  -6   0  199.18   17.10
   7  -6   0  150.08   16.80
   7  -6   0  198.98   11.80
   7  -6   0  217.88   21.50
   7  -6   0  207.58   20.10
  -7   6   0  230.98   19.60
  -7   6   0  216.58   21.80
  -7   6   0  176.98   19.80
  -7   6   0  175.08   18.00
   6  -6   0  316.07   18.40
   6  -6   0  341.77   20.40
   6  -6   0  337.97   19.70
   6  -6   0  319.87   13.50
  -6   6   0  364.36   19.90
  -6   6   0  331.67   21.40
  -6   6   0  339.67   19.10
  -6   6   0  307.87   20.10
   5  -6   0   -3.60    3.10
   5  -6   0   -2.90    7.30
   5  -6   0    0.70    6.60
   5  -6   0   -6.20    6.20
   5  -6   0   -1.60    7.80
  -5   6   0   -3.50    8.00
  -5   6   0    4.10    9.50
  -5   6   0    1.90    6.90
  -5   6   0    5.90    7.10
   4  -6   0  596.04   23.50
   4  -6   0  586.74   23.40
   4  -6   0  577.74   24.10
   4  -6   0  629.44   25.20
  -4   6   0  573.24   25.80
  -4   6   0  540.55   24.40
  -4   6   0  663.43   23.90
  -4   6   0  632.14   25.40
   3  -6   0  408.56   18.40
   3  -6   0  434.86   20.30
   3  -6   0  447.66   17.90
  -3   6   0  441.76   20.00
  -3   6   0  423.46   20.50
  -3   6   0  435.96   19.20
  -3   6   0  431.46   17.60
   2  -6   0 1257.47   41.90
   2  -6   0 1173.58   40.50
   2  -6   0 1158.68   39.20
   2  -6   0 1254.57   40.00
  -2   6   0 1158.18   40.40
  -2   6   0 1179.38   41.90
  -2   6   0 1181.78   38.40
  -2   6   0 1124.19   40.10
  -2   6   0 1192.98   39.70
   1  -6   0 1349.27   44.50
   1  -6   0 1282.77   45.80
   1  -6   0 1291.57   42.70
   1  -6   0 1348.86   45.90
   1  -6   0 1119.79   46.00
  -1   6   0 1446.16   43.80
  -1   6   0 1298.77   43.50
  -1   6   0 1448.46   45.50
  -1   6   0 1343.17   46.00
   0  -6   0    1.70    5.90
   0  -6   0   -1.80    6.60
   0  -6   0    7.00    4.50
   0  -6   0   -2.10    5.80
   0  -6   0    4.20    3.00
   0   6   0    6.90    6.20
   0   6   0   -6.10    6.30
   0   6   0    1.80    4.20
   0   6   0   -0.50    3.90
  -1  -6   0  887.61   34.20
  -1  -6   0  983.10   33.80
  -1  -6   0  930.71   32.90
   1   6   0  929.61   32.60
   1   6   0  949.11   33.40
   1   6   0  955.40   34.30
   1   6   0  924.21   32.40
  -2  -6   0   33.40    6.70
  -2  -6   0   33.50    7.50
  -2  -6   0   37.00    8.80
  -2  -6   0   36.20    7.20
   2   6   0   31.90    7.60
   2   6   0   29.10    7.10
   2   6   0   19.60    6.10
   2   6   0   18.80    5.50
  -3  -6   0  134.79   13.00
  -3  -6   0  119.99   12.40
  -3  -6   0  129.39   14.80
  -3  -6   0  117.49   13.80
  -3  -6   0  117.79   12.90
   3   6   0  116.59   13.40
   3   6   0  127.69   11.90
   3   6   0  115.29   12.60
   3   6   0  108.99   12.40
  -4  -6   0  382.26   21.30
  -4  -6   0  403.56   21.20
  -4  -6   0  417.86   23.30
  -4  -6   0  378.46   21.00
   4   6   0  372.06   20.80
   4   6   0  389.66   21.00
   4   6   0  375.46   20.40
   4   6   0  398.96   21.60
  -5  -6   0  215.38   19.90
  -5  -6   0  278.07   21.70
  -5  -6   0  236.18   22.30
  -5  -6   0  216.68   19.70
   5   6   0  222.08   19.20
   5   6   0  245.78   20.20
   5   6   0  238.38   20.50
   5   6   0  230.28   19.70
  -6  -6   0   13.50   13.40
  -6  -6   0    5.90    9.40
  -6  -6   0    4.60   14.20
  -6  -6   0   -0.60   12.60
   6   6   0   39.10   13.60
   6   6   0    6.20   13.70
   6   6   0   16.60   13.60
   7  -7   0   26.30   13.30
   7  -7   0   11.00    7.70
   7  -7   0   25.10    9.90
   7  -7   0   17.30   11.80
  -7   7   0   45.70   11.60
  -7   7   0   15.80   10.90
  -7   7   0   33.10   10.90
  -7   7   0   40.10   13.30
  -7   7   0   25.30   14.60
   6  -7   0  458.15   22.70
   6  -7   0  406.96   21.50
   6  -7   0  438.46   21.60
  -6   7   0  391.76   21.30
  -6   7   0  387.06   22.40
  -6   7   0  415.76   24.30
   5  -7   0  191.38   15.50
   5  -7   0  220.98   15.10
   5  -7   0  213.68   17.60
   5  -7   0  207.38   15.10
  -5   7   0  217.38   18.20
  -5   7   0  255.77   17.80
  -5   7   0  234.18   15.30
  -5   7   0  195.48   16.10
   4  -7   0   -2.60    6.40
   4  -7   0   -9.90    7.80
   4  -7   0   -3.90    6.50
   4  -7   0   -4.20    7.80
  -4   7   0   -4.80    8.10
  -4   7   0    1.80    8.40
  -4   7   0   -4.30    5.80
  -4   7   0    1.60    7.50
   3  -7   0  178.98   15.90
   3  -7   0  206.58   12.30
   3  -7   0  219.58   12.50
   3  -7   0  205.18   12.80
  -3   7   0  204.18   14.80
  -3   7   0  217.98   16.50
  -3   7   0  208.28   13.60
  -3   7   0  213.78   12.40
   2  -7   0  989.70   37.60
   2  -7   0 1009.10   33.90
   2  -7   0  977.40   35.90
   2  -7   0  975.40   34.60
   2  -7   0  988.80   36.30
  -2   7   0  972.50   34.70
  -2   7   0  985.70   34.60
  -2   7   0 1040.80   33.20
  -2   7   0  968.60   34.40
  -2   7   0 1014.70   37.40
   1  -7   0   13.60    8.80
   1  -7   0   11.50    7.40
   1  -7   0   25.60    7.50
   1  -7   0   17.20    4.50
   1  -7   0   20.90    5.90
  -1   7   0   14.40    8.00
  -1   7   0   17.40    5.00
  -1   7   0   15.30    6.90
  -1   7   0   22.80    5.10
   0  -7   0    1.70    3.40
   0  -7   0    7.00    7.40
   0  -7   0   -1.80    4.90
   0  -7   0   -4.90    7.00
   0  -7   0    6.30    6.90
   0   7   0   -6.40    7.50
   0   7   0   -8.80    7.40
   0   7   0    7.10    4.90
   0   7   0    7.00    4.80
  -1  -7   0 1546.55   51.39
  -1  -7   0 1543.05   50.19
  -1  -7   0 1465.35   52.19
   1   7   0 1325.07   49.20
   1   7   0 1572.24   49.80
   1   7   0 1530.25   50.79
   1   7   0 1421.86   52.09
  -2  -7   0    3.30    7.70
  -2  -7   0    2.10    6.20
  -2  -7   0   -4.90    8.10
  -2  -7   0    4.80    7.00
   2   7   0    7.40    7.20
   2   7   0   -3.70    5.60
   2   7   0    1.70    6.20
   2   7   0    8.70    7.90
  -3  -7   0  390.36   21.50
  -3  -7   0  383.66   20.70
  -3  -7   0  364.36   22.60
  -3  -7   0  403.06   20.50
  -3  -7   0  406.76   21.20
   3   7   0  434.96   21.10
   3   7   0  425.86   20.80
   3   7   0  400.26   19.60
   3   7   0  404.86   22.50
  -4  -7   0  222.58   18.30
  -4  -7   0  190.38   20.20
  -4  -7   0  212.38   17.90
  -4  -7   0  232.88   19.60
  -4  -7   0  174.78   18.20
   4   7   0  192.98   17.50
   4   7   0  190.58   16.50
   4   7   0  201.98   17.60
   4   7   0  205.88   18.50
  -5  -7   0   10.80   12.40
  -5  -7   0   -9.60   13.60
  -5  -7   0   -0.60   11.90
  -5  -7   0   10.70   13.00
  -5  -7   0   -5.30    8.10
   5   7   0   26.90   11.60
   5   7   0   -7.30   10.50
   5   7   0    9.20   12.20
   7  -8   0   53.09   11.30
   7  -8   0   62.79   13.60
   7  -8   0   51.09   14.60
  -7   8   0   32.40   10.90
  -7   8   0   65.79   12.00
  -7   8   0   70.09   15.60
  -7   8   0   58.19   15.90
  -7   8   0   56.09   11.70
   6  -8   0    3.80    5.90
   6  -8   0   11.40    8.80
   6  -8   0   12.10   12.00
   6  -8   0  -11.20    9.30
  -6   8   0    9.70    8.80
  -6   8   0   12.00    9.30
  -6   8   0   -8.00   12.60
  -6   8   0   11.60   11.40
   5  -8   0  647.54   27.60
   5  -8   0  678.93   28.30
   5  -8   0  705.53   29.00
  -5   8   0  710.63   28.20
  -5   8   0  675.23   30.80
  -5   8   0  695.13   30.90
   4  -8   0   64.59    9.10
   4  -8   0   52.89    8.80
   4  -8   0   28.90   10.40
  -4   8   0   55.29    8.40
  -4   8   0   50.79    9.50
  -4   8   0   58.59   10.70
  -4   8   0   46.40   11.20
   3  -8   0    6.30    6.50
   3  -8   0    7.10    5.60
   3  -8   0    9.10    8.60
   3  -8   0    2.50    6.20
  -3   8   0    3.30    7.00
  -3   8   0   -1.50    9.30
  -3   8   0    1.50    6.10
  -3   8   0    6.10    5.90
  -3   8   0    5.00    2.60
   2  -8   0  766.52   26.80
   2  -8   0  710.23   28.30
   2  -8   0  730.53   31.00
   2  -8   0  703.33   25.40
   2  -8   0  652.43   27.30
  -2   8   0  672.63   29.80
  -2   8   0  622.64   24.30
  -2   8   0  706.03   26.10
  -2   8   0  669.23   25.90
  -2   8   0  644.54   25.70
   1  -8   0  268.47   20.10
   1  -8   0  292.37   13.60
   1  -8   0  331.97   19.30
   1  -8   0  295.57   18.50
   1  -8   0  317.77   16.10
  -1   8   0  320.57   14.90
  -1   8   0  336.67   14.90
  -1   8   0  304.67   18.60
  -1   8   0  300.17   17.10
   0  -8   0    1.30    8.80
   0  -8   0    3.30    4.00
   0  -8   0    1.30    7.80
   0  -8   0    7.20    6.00
   0  -8   0   -5.80    8.30
   0   8   0    8.80    9.10
   0   8   0   13.60    5.60
   0   8   0    7.30    5.60
  -1  -8   0  411.26   21.50
  -1  -8   0  359.96   20.90
  -1  -8   0  375.66   18.70
   1   8   0  359.96   22.30
   1   8   0  378.26   18.50
   1   8   0  406.16   19.60
   1   8   0  392.36   17.80
  -2  -8   0  734.83   30.20
  -2  -8   0  672.73   30.40
  -2  -8   0  715.73   30.00
  -2  -8   0  700.33   28.40
   2   8   0  711.73   27.80
   2   8   0  651.33   27.00
   2   8   0  658.63   28.90
   2   8   0  698.23   30.40
  -3  -8   0  131.19   14.20
  -3  -8   0  130.69   16.10
  -3  -8   0  104.59   11.70
   3   8   0  131.79   15.00
   3   8   0  138.49   13.60
   3   8   0  127.69   16.80
  -4  -8   0   95.49   14.00
  -4  -8   0   79.69   12.80
  -4  -8   0   75.79   14.30
  -4  -8   0   77.19   15.40
   4   8   0   83.19   10.70
   4   8   0   73.69   13.30
   4   8   0  103.69   14.80
   4   8   0   97.39   13.00
   7  -9   0  131.39   18.60
  -7   9   0  132.89   20.60
   6  -9   0   39.50   14.60
   6  -9   0   29.90   11.00
   6  -9   0   23.30   11.20
   6  -9   0    2.70    6.90
  -6   9   0   25.60    9.90
  -6   9   0   25.10   15.50
  -6   9   0   30.80   13.10
  -6   9   0   47.40   12.10
   5  -9   0    7.20    9.20
   5  -9   0   -4.50    8.60
  -5   9   0    6.60   10.60
  -5   9   0    7.10    9.90
  -5   9   0  -12.30   12.40
  -5   9   0    8.80    8.10
   4  -9   0  296.47   18.10
   4  -9   0  342.07   18.80
   4  -9   0  348.47   23.20
  -4   9   0  357.16   18.30
  -4   9   0  339.47   19.20
  -4   9   0  326.47   20.00
   3  -9   0   32.50    7.30
   3  -9   0   43.60    8.60
   3  -9   0   39.70    7.90
   3  -9   0   40.90   10.10
  -3   9   0   47.30    5.70
  -3   9   0   54.29    7.90
  -3   9   0   49.10    8.10
  -3   9   0   47.60    8.30
  -3   9   0   58.49   12.70
   2  -9   0    6.10    6.00
   2  -9   0    6.90    8.60
   2  -9   0   10.70    6.50
   2  -9   0    9.40    7.90
   2  -9   0   14.90   10.70
  -2   9   0   12.70    6.10
  -2   9   0   15.00    5.90
  -2   9   0   11.70   11.10
  -2   9   0   17.40    6.80
  -2   9   0   19.80    6.40
   1  -9   0  110.89   13.40
   1  -9   0  125.69   12.50
   1  -9   0  110.29   12.30
   1  -9   0  132.49   14.40
   1  -9   0  117.49   10.00
  -1   9   0  114.39   11.10
  -1   9   0  121.69   13.80
  -1   9   0   96.99   10.60
   0  -9   0   22.60   10.50
   0  -9   0   27.60   11.50
   0  -9   0   22.30    7.70
   0  -9   0   27.40    5.10
   0  -9   0   20.60    9.70
   0   9   0   18.90    6.70
   0   9   0   33.40   10.70
   0   9   0   27.30    6.60
  -1  -9   0   92.59   17.70
  -1  -9   0  145.29   17.60
  -1  -9   0  145.09   14.50
  -1  -9   0  133.59   15.00
   1   9   0  164.48   13.10
   1   9   0  162.08   14.20
   1   9   0  163.88   18.90
  -2  -9   0   51.59   11.90
  -2  -9   0   64.19   13.30
   2   9   0   47.00    9.00
   2   9   0   52.29    9.50
   2   9   0   42.20   12.30
  -3  -9   0  222.88   20.50
  -3  -9   0  220.28   19.20
  -3  -9   0  234.68   21.50
  -3  -9   0  225.58   18.90
   3   9   0  198.18   20.30
   3   9   0  187.08   17.70
   3   9   0  236.38   22.90
   3   9   0  197.98   16.60
  -4  -9   0  312.27   26.00
  -4  -9   0  208.88   26.20
  -4  -9   0  267.47   25.90
  -4  -9   0  238.58   21.30
   4   9   0  241.78   23.70
   4   9   0  268.07   23.10
   4   9   0  276.87   21.20
   4   9   0  179.38   24.00
   6 -10   0   16.50    8.80
   6 -10   0  -11.50   15.30
   6 -10   0   16.70   11.80
  -6  10   0   11.10    9.90
  -6  10   0    8.50   15.80
  -6  10   0   -6.00   11.60
  -6  10   0   -0.10   11.90
   5 -10   0   65.09   11.90
   5 -10   0   66.99   15.40
  -5  10   0   78.79   11.90
  -5  10   0   72.69   10.90
  -5  10   0   77.59   16.30
  -5  10   0   60.79   12.30
   4 -10   0  100.79   11.20
   4 -10   0  108.59   14.20
  -4  10   0   88.59   10.90
  -4  10   0  109.09   12.10
  -4  10   0   93.89   10.40
  -4  10   0   91.59   15.60
   3 -10   0    4.90    8.30
   3 -10   0   28.30    8.10
   3 -10   0   26.10    8.70
   3 -10   0    9.90    5.00
  -3  10   0   25.60    7.60
  -3  10   0   34.60    5.10
  -3  10   0   12.30   12.50
  -3  10   0   27.50    7.80
  -3  10   0   47.20    8.20
   2 -10   0  187.88   15.80
   2 -10   0  223.28   18.30
   2 -10   0  219.98   21.60
   2 -10   0  201.58   14.50
  -2  10   0  216.58   14.40
  -2  10   0  198.18   13.30
  -2  10   0  202.28   13.40
  -2  10   0  200.38   14.00
   1 -10   0  107.59   10.90
   1 -10   0  116.29   13.40
   1 -10   0  116.89   16.30
   1 -10   0  144.49   15.80
  -1  10   0  132.69   11.90
  -1  10   0  129.49   12.60
  -1  10   0  123.09   14.70
   0 -10   0   13.50   12.10
   0 -10   0    9.70    5.00
   0 -10   0   -8.70   11.40
   0 -10   0   20.50    7.70
   0  10   0    7.40   10.10
   0  10   0    7.10   10.70
   0  10   0   -3.30    6.70
   0  10   0   12.00    7.20
  -1 -10   0  128.69   16.60
  -1 -10   0  203.48   21.00
  -1 -10   0  173.78   16.60
  -1 -10   0  183.38   15.90
   1  10   0  169.88   18.20
   1  10   0  159.28   20.80
   1  10   0  173.58   14.30
   1  10   0  157.38   15.20
  -2 -10   0  127.59   17.10
  -2 -10   0  123.09   12.90
  -2 -10   0  134.49   16.90
  -2 -10   0  133.79   16.70
   2  10   0  121.79   16.50
   2  10   0  105.39   14.50
   2  10   0  134.19   15.20
   2  10   0  107.09   12.40
  -3 -10   0   16.30   14.50
  -3 -10   0    0.10   14.50
  -3 -10   0   23.30   11.30
   3  10   0   28.50   11.30
   3  10   0   16.60   14.70
   3  10   0   42.00   14.10
   5 -11   0   97.79   14.00
   5 -11   0  116.49   17.50
  -5  11   0  112.49   11.90
  -5  11   0   99.69   18.20
  -5  11   0   93.49   12.30
  -5  11   0   92.29   13.00
   4 -11   0   16.60    9.80
   4 -11   0    5.50   11.70
   4 -11   0    3.10    6.80
   4 -11   0   -4.10    5.40
  -4  11   0   11.50    8.60
  -4  11   0   12.60   15.50
  -4  11   0    1.10    8.70
  -4  11   0    4.70    9.10
   3 -11   0   36.10   11.30
   3 -11   0   51.89   10.00
  -3  11   0   40.70    8.80
  -3  11   0   37.60    9.20
  -3  11   0   44.30   14.90
  -3  11   0   57.79    6.40
  -3  11   0   39.90    8.30
   2 -11   0  209.78   26.80
   2 -11   0  232.98   15.60
   2 -11   0  245.18   25.40
  -2  11   0  241.28   16.00
  -2  11   0  217.68   16.20
  -2  11   0  205.88   15.40
  -2  11   0  238.18   14.90
  -2  11   0  222.28   24.70
   1 -11   0   21.80    6.80
   1 -11   0   29.10    9.10
   1 -11   0   20.10   14.00
   1 -11   0    3.30    6.70
   1 -11   0    4.90    9.20
  -1  11   0   -1.80    6.80
  -1  11   0    4.50    7.50
  -1  11   0    4.30   14.20
  -1  11   0   12.70    9.30
   0 -11   0   13.80    9.60
   0 -11   0   19.10   13.30
   0 -11   0   12.30   10.10
   0 -11   0   29.00    8.20
   0  11   0    2.40    7.50
   0  11   0   13.90    8.10
   0  11   0   11.20   12.10
   0  11   0   16.90   11.40
  -1 -11   0  257.47   18.30
  -1 -11   0  245.58   26.20
   1  11   0  224.88   16.90
   1  11   0  256.07   25.10
   1  11   0  236.98   17.10
   1  11   0  289.47   24.00
   2 -12   0    5.50   10.20
   2 -12   0   36.20   11.20
   2 -12   0   35.50    9.50
   2 -12   0   10.90    8.50
  -2  12   0   23.40   11.20
  -2  12   0   46.30   10.10
  -2  12   0   28.20    8.60
  -2  12   0   36.70    9.50
   0  12  -1  591.44   30.80
   0  12  -1  441.06   41.30
   0 -12   1  540.65   28.60
  -1  12  -1   51.99    9.40
  -1  12  -1   45.90   11.80
  -1  12  -1   47.10    9.80
   1 -12   1   52.89   12.20
   1 -12   1   40.00   12.40
   1 -12   1   58.19   17.20
   1 -12   1   60.39    8.80
  -2  12  -1   68.29   18.30
  -2  12  -1   63.99   11.30
  -2  12  -1  102.19   11.00
  -2  12  -1   83.69   10.10
  -2  12  -1   72.49   10.80
   2 -12   1   65.19   16.50
   2 -12   1   59.29   12.50
   2 -12   1   91.29   10.40
  -3  12  -1  221.48   25.90
  -3  12  -1  231.38   17.40
  -3  12  -1  228.08   19.00
  -3  12  -1  235.08   18.10
   3 -12   1  254.27   18.60
   3 -12   1  227.58   21.80
   2  11  -1  297.37   27.40
   2  11  -1  283.97   21.20
   2  11  -1  302.87   22.80
  -2 -11   1  301.17   22.30
   1  11  -1   50.29   15.60
   1  11  -1   55.19   11.30
   1  11  -1   60.09   12.00
   1  11  -1   71.19   14.40
  -1 -11   1   57.29   12.50
  -1 -11   1   28.80   15.00
  -1 -11   1   68.79   15.90
   0  11  -1    4.70    8.60
   0  11  -1   -1.30   12.30
   0  11  -1  -17.00    8.60
   0  11  -1   10.10   11.20
   0 -11   1  -14.30    9.10
   0 -11   1    3.90   13.30
   0 -11   1    1.10    5.40
   0 -11   1   32.50    9.20
   0 -11   1   13.40   14.00
  -1  11  -1  588.94   26.20
  -1  11  -1  594.74   25.80
  -1  11  -1  600.34   28.30
   1 -11   1  560.74   23.00
   1 -11   1  615.44   33.30
   1 -11   1  569.34   27.20
   1 -11   1  582.54   31.50
  -2  11  -1  410.76   19.00
  -2  11  -1  420.26   21.80
  -2  11  -1  456.25   22.30
  -2  11  -1  431.26   28.50
  -2  11  -1  408.06   21.20
   2 -11   1  433.96   25.30
   2 -11   1  432.66   26.10
   2 -11   1  438.46   20.10
   2 -11   1  399.66   27.30
  -3  11  -1    7.30   13.00
  -3  11  -1   -5.40    8.60
  -3  11  -1   -1.60    8.00
  -3  11  -1    8.70    8.70
   3 -11   1   10.20    9.40
   3 -11   1   12.70    6.10
   3 -11   1   -1.20    8.40
   3 -11   1    2.30   11.10
  -4  11  -1  115.59   13.30
  -4  11  -1  115.19   13.50
  -4  11  -1  115.99   15.10
  -4  11  -1   87.19   16.50
   4 -11   1  110.19   16.30
   4 -11   1   87.49   12.10
  -5  11  -1  547.35   28.40
  -5  11  -1  545.05   26.80
  -5  11  -1  512.55   33.50
  -5  11  -1  536.55   30.30
   5 -11   1  534.75   27.20
   5 -11   1  532.05   34.30
   3  10  -1  372.26   24.40
   3  10  -1  367.26   24.30
   3  10  -1  358.46   27.40
   3  10  -1  332.07   19.50
  -3 -10   1  332.47   22.90
  -3 -10   1  323.37   27.50
  -3 -10   1  303.67   27.20
  -3 -10   1  332.37   23.40
   2  10  -1   64.69   15.10
   2  10  -1   44.00   10.60
   2  10  -1   45.50   12.30
   2  10  -1   48.50    9.30
  -2 -10   1   39.30   10.80
  -2 -10   1   52.29   14.50
  -2 -10   1   35.30   13.80
   1  10  -1  646.44   28.60
   1  10  -1  672.63   34.30
   1  10  -1  672.23   28.70
   1  10  -1  712.23   31.30
  -1 -10   1  681.13   32.90
  -1 -10   1  679.73   34.00
  -1 -10   1  688.73   32.10
   0  10  -1  125.29   13.80
   0  10  -1  133.29   15.40
   0  10  -1  143.39   14.90
   0 -10   1  131.79   16.40
   0 -10   1  129.89    9.50
   0 -10   1  125.59   15.50
  -1  10  -1   54.29    8.60
  -1  10  -1   52.89    8.80
  -1  10  -1   75.09   11.70
   1 -10   1   62.09    9.90
   1 -10   1   67.49   14.30
   1 -10   1   63.69   13.60
   1 -10   1   72.39    7.30
  -2  10  -1  270.77   17.10
  -2  10  -1  272.07   17.60
  -2  10  -1  271.07   16.50
   2 -10   1  294.47   22.90
   2 -10   1  234.58   15.30
   2 -10   1  273.67   17.90
   2 -10   1  288.37   21.60
  -3  10  -1  179.68   15.10
  -3  10  -1  168.98   16.60
  -3  10  -1  175.58   15.30
   3 -10   1  191.28   14.50
   3 -10   1  181.48   16.60
  -4  10  -1   33.70   11.50
  -4  10  -1    5.60   12.90
  -4  10  -1   26.40   10.00
  -4  10  -1   17.40    8.70
   4 -10   1   32.50   10.20
   4 -10   1   23.40    9.00
  -5  10  -1  115.09   14.80
  -5  10  -1   85.59   14.30
  -5  10  -1  109.19   14.50
  -5  10  -1   98.79   16.80
   5 -10   1  164.78   17.00
   5 -10   1  100.39   12.90
   5 -10   1  132.99   17.80
  -6  10  -1  209.88   26.40
  -6  10  -1  240.68   19.30
  -6  10  -1  264.37   25.50
  -6  10  -1  234.58   19.90
   6 -10   1  225.58   20.30
   6 -10   1  230.38   22.30
   6 -10   1  225.98   27.70
   4   9  -1  107.89   15.70
   4   9  -1   96.99   16.50
   4   9  -1   95.79   14.80
   4   9  -1  109.89   12.90
  -4  -9   1   93.39   13.50
  -4  -9   1  149.49   18.00
  -4  -9   1   89.09   16.90
  -4  -9   1  173.28   19.60
   3   9  -1   63.09   10.50
   3   9  -1   76.49   12.20
   3   9  -1   65.39   13.90
  -3  -9   1   73.29   11.70
  -3  -9   1   67.29   14.50
  -3  -9   1   86.49   14.60
  -3  -9   1   66.79   12.30
   2   9  -1   45.60    9.80
   2   9  -1   18.70   11.50
   2   9  -1   45.20    9.00
  -2  -9   1   48.80   12.40
  -2  -9   1   57.69   12.40
   1   9  -1  402.76   21.50
   1   9  -1  391.36   19.40
   1   9  -1  378.06   19.60
   1   9  -1  367.46   24.20
  -1  -9   1  423.26   24.50
  -1  -9   1  374.96   23.50
  -1  -9   1  386.76   21.10
  -1  -9   1  446.66   23.80
  -1  -9   1  413.76   14.30
   0   9  -1   66.89    8.70
   0   9  -1   74.99   12.90
   0   9  -1   48.30    8.70
   0  -9   1   56.29    9.10
   0  -9   1   62.99    5.80
   0  -9   1   56.49   12.30
   0  -9   1   66.89   11.40
  -1   9  -1   95.39   11.00
  -1   9  -1   78.99   11.20
  -1   9  -1   64.19    8.80
  -1   9  -1   85.39   12.80
   1  -9   1   89.79   14.00
   1  -9   1   89.29   10.10
   1  -9   1   68.79   11.80
   1  -9   1   70.39    7.10
  -2   9  -1  335.77   18.60
  -2   9  -1  386.86   18.50
  -2   9  -1  397.16   19.50
  -2   9  -1  352.16   22.00
   2  -9   1  341.87   19.80
   2  -9   1  355.56   23.60
   2  -9   1  375.16   16.90
   2  -9   1  359.66   22.80
  -3   9  -1  185.28   15.20
  -3   9  -1  188.68   19.10
  -3   9  -1  186.18   17.20
  -3   9  -1  200.48   14.30
   3  -9   1  200.28   16.70
   3  -9   1  171.88   13.90
   3  -9   1  175.48   19.20
  -4   9  -1  487.95   25.70
  -4   9  -1  474.85   24.30
  -4   9  -1  514.15   22.30
  -4   9  -1  480.45   25.60
   4  -9   1  489.45   22.30
   4  -9   1  476.85   23.00
   4  -9   1  531.65   23.90
   4  -9   1  482.55   27.30
  -5   9  -1   13.80    9.30
  -5   9  -1   14.70    8.40
  -5   9  -1    8.20   11.00
   5  -9   1   18.90    9.80
   5  -9   1    9.60    8.80
   5  -9   1    5.20    5.50
  -6   9  -1   94.39   13.50
  -6   9  -1  110.59   16.60
  -6   9  -1   83.89   12.20
  -6   9  -1   74.19   15.40
   6  -9   1   80.89   13.50
   6  -9   1   73.89   11.50
   6  -9   1   78.79   16.70
  -7   9  -1  165.98   20.70
  -7   9  -1  244.68   20.70
  -7   9  -1  210.18   21.20
  -7   9  -1  215.98   27.30
   7  -9   1  254.17   25.10
   7  -9   1  218.68   25.00
   5   8  -1  137.89   15.20
   5   8  -1  198.88   18.40
   5   8  -1  135.69   18.40
   5   8  -1  148.19   17.50
  -5  -8   1  138.69   18.40
  -5  -8   1  138.19   15.70
  -5  -8   1  140.59   18.10
  -5  -8   1  176.78   19.60
   4   8  -1  436.36   23.20
   4   8  -1  411.96   24.40
   4   8  -1  409.46   25.50
  -4  -8   1  448.26   25.30
  -4  -8   1  435.96   24.70
  -4  -8   1  398.26   26.90
  -4  -8   1  383.16   25.70
   3   8  -1  230.48   18.00
   3   8  -1  237.68   16.70
   3   8  -1  264.77   20.40
   3   8  -1  271.47   18.90
  -3  -8   1  250.67   19.70
  -3  -8   1  271.67   19.90
  -3  -8   1  257.47   21.30
  -3  -8   1  251.47   18.50
   2   8  -1  217.58   18.50
   2   8  -1  218.38   15.30
   2   8  -1  198.28   15.00
   2   8  -1  198.68   14.30
  -2  -8   1  158.08   16.50
  -2  -8   1  202.78   15.70
  -2  -8   1  179.88   14.50
  -2  -8   1  216.48   17.40
  -2  -8   1  217.88   17.20
   1   8  -1  233.98   15.70
   1   8  -1  230.08   18.40
   1   8  -1  215.88   14.70
   1   8  -1  225.98   14.10
  -1  -8   1  249.28   17.90
  -1  -8   1  226.38    9.30
  -1  -8   1  229.08   16.90
  -1  -8   1  237.08   17.30
  -1  -8   1  232.38   15.00
   0   8  -1  380.16   22.80
   0   8  -1  398.06   18.10
   0   8  -1  401.96   18.10
   0  -8   1  390.76   14.90
   0  -8   1  307.57   21.40
   0  -8   1  412.56   18.60
   0  -8   1  409.66   22.20
   0  -8   1  401.96   22.90
  -1   8  -1  126.39   11.00
  -1   8  -1   96.09   11.30
  -1   8  -1  129.39   12.60
  -1   8  -1  114.59   14.80
   1  -8   1   95.19   13.30
   1  -8   1  108.99    8.80
   1  -8   1  111.49   13.00
   1  -8   1  113.29   11.70
  -2   8  -1   54.59   10.20
  -2   8  -1   61.09    8.30
  -2   8  -1   67.89    8.90
  -2   8  -1   53.49    8.40
   2  -8   1   64.69    7.20
   2  -8   1   60.69   11.90
   2  -8   1   59.19   10.50
   2  -8   1   61.99    9.60
  -3   8  -1  426.86   22.00
  -3   8  -1  410.06   20.20
  -3   8  -1  473.65   23.00
  -3   8  -1  440.46   21.50
   3  -8   1  492.95   24.10
   3  -8   1  452.75   22.00
   3  -8   1  470.05   19.60
  -4   8  -1  253.07   17.80
  -4   8  -1  221.58   18.70
  -4   8  -1  214.68   15.10
  -4   8  -1  222.68   17.30
   4  -8   1  244.68   16.30
   4  -8   1  228.78   15.20
   4  -8   1  233.58   20.50
   4  -8   1  220.68   14.90
  -5   8  -1  316.97   22.60
  -5   8  -1  348.67   18.60
  -5   8  -1  330.27   21.90
  -5   8  -1  312.97   20.90
   5  -8   1  299.37   17.50
   5  -8   1  333.97   19.60
   5  -8   1  347.17   18.80
  -6   8  -1   54.69   11.20
  -6   8  -1   39.60   13.00
  -6   8  -1   44.20   10.30
   6  -8   1   47.50   11.90
   6  -8   1   34.40   13.10
   6  -8   1   38.30    9.40
  -7   8  -1  132.19   15.60
  -7   8  -1  135.09   16.30
  -7   8  -1  136.09   18.80
  -7   8  -1  116.69   18.80
  -7   8  -1  124.19   14.50
   7  -8   1  140.89   14.70
   7  -8   1  136.29   18.50
   7  -8   1  144.79   16.80
   5   7  -1  222.58   20.10
   5   7  -1  185.68   20.70
   5   7  -1  172.78   19.50
   5   7  -1  195.08   21.80
  -5  -7   1  176.98   20.80
  -5  -7   1  226.58   23.50
  -5  -7   1  175.98   20.00
  -5  -7   1  202.48   20.70
  -5  -7   1  168.58   17.60
   4   7  -1   21.40   10.00
   4   7  -1   42.50   11.00
   4   7  -1   44.60    9.60
   4   7  -1   41.10   11.30
  -4  -7   1   40.40   10.70
  -4  -7   1   39.30   12.20
  -4  -7   1   31.50    9.80
  -4  -7   1   39.00   11.10
   3   7  -1  429.66   21.60
   3   7  -1  431.46   22.90
   3   7  -1  439.36   20.80
   3   7  -1  441.86   20.90
  -3  -7   1  422.06   22.10
  -3  -7   1  434.46   23.40
  -3  -7   1  431.86   22.40
  -3  -7   1  434.36   21.70
  -3  -7   1  425.06   22.50
   2   7  -1   58.99    8.30
   2   7  -1   40.00    9.10
   2   7  -1   44.10    8.20
   2   7  -1   57.09    7.90
  -2  -7   1   47.20    7.90
  -2  -7   1   47.90    8.50
  -2  -7   1   46.50   10.20
  -2  -7   1   40.90    8.50
  -2  -7   1   43.70    8.60
   1   7  -1   21.60    6.50
   1   7  -1   15.30    8.00
   1   7  -1   20.40    6.10
  -1  -7   1   15.10    6.20
  -1  -7   1   33.90    7.90
  -1  -7   1   21.70    3.00
  -1  -7   1   25.40    8.60
  -1  -7   1   32.70    7.90
   0   7  -1 1237.38   43.30
   0   7  -1 1307.47   43.20
   0   7  -1 1288.27   47.30
   0  -7   1 1356.56   46.50
   0  -7   1 1289.07   44.00
   0  -7   1 1246.58   46.20
   0  -7   1 1292.17   41.10
   0  -7   1 1236.98   45.20
  -1   7  -1   25.80    8.40
  -1   7  -1   32.80    6.10
  -1   7  -1   30.00    6.00
  -1   7  -1   17.10    7.50
   1  -7   1    2.50    9.30
   1  -7   1   32.60    7.20
   1  -7   1   -2.10    9.40
   1  -7   1   18.50    8.30
   1  -7   1   26.70    4.80
  -2   7  -1  435.26   20.30
  -2   7  -1  444.26   20.90
  -2   7  -1  501.45   19.80
  -2   7  -1  404.26   19.50
   2  -7   1  512.15   23.00
   2  -7   1  408.76   21.30
   2  -7   1  427.86   21.90
   2  -7   1  458.65   17.90
  -3   7  -1  489.75   20.30
  -3   7  -1  525.15   22.40
  -3   7  -1  488.85   22.80
  -3   7  -1  408.66   21.70
   3  -7   1  474.65   20.70
   3  -7   1  456.75   23.20
   3  -7   1  455.65   19.40
   3  -7   1  522.55   21.60
  -4   7  -1   20.10    8.20
  -4   7  -1    6.50    6.70
  -4   7  -1   -1.80    7.90
  -4   7  -1    3.30    7.40
   4  -7   1   -3.90    8.40
   4  -7   1    7.00    6.10
   4  -7   1    1.80    7.00
   4  -7   1    3.30    6.10
  -5   7  -1  876.21   37.50
  -5   7  -1  938.81   36.80
  -5   7  -1 1004.00   38.20
  -5   7  -1  996.20   35.90
   5  -7   1  913.11   34.30
   5  -7   1  922.71   35.30
   5  -7   1  895.21   37.10
   5  -7   1  977.90   36.40
  -6   7  -1   39.30   12.30
  -6   7  -1   40.80    9.90
  -6   7  -1   36.50   12.20
  -6   7  -1   23.00   10.00
   6  -7   1   31.50   11.10
   6  -7   1   26.40    9.60
   6  -7   1   28.30    9.50
  -7   7  -1   -2.40   10.50
  -7   7  -1   -0.10   13.10
  -7   7  -1   -0.40   12.70
  -7   7  -1   14.50   12.00
  -7   7  -1    7.10   11.50
   7  -7   1    2.80    7.60
   7  -7   1   -1.20   11.60
   7  -7   1   14.80   10.10
   7  -7   1   -0.70   12.80
   6   6  -1  408.46   25.90
   6   6  -1  377.76   27.60
   6   6  -1  390.86   28.50
   6   6  -1  418.56   26.60
  -6  -6   1  382.86   26.80
  -6  -6   1  413.26   27.40
  -6  -6   1  392.06   28.30
  -6  -6   1  369.66   27.40
   5   6  -1    2.20    9.40
   5   6  -1    7.50   10.80
   5   6  -1    5.70   11.20
   5   6  -1   -1.60    9.80
  -5  -6   1    1.60    9.70
  -5  -6   1   10.60   11.40
  -5  -6   1   -7.80   10.00
   4   6  -1  101.39   12.00
   4   6  -1  112.79   13.10
   4   6  -1   68.09    9.80
   4   6  -1   81.49   10.40
  -4  -6   1   77.49   11.00
  -4  -6   1   95.79   11.70
  -4  -6   1  107.29   13.90
   3   6  -1 1415.86   49.00
   3   6  -1 1433.96   50.39
   3   6  -1 1425.06   49.50
   3   6  -1 1378.66   48.30
  -3  -6   1 1389.06   49.30
  -3  -6   1 1426.66   49.70
  -3  -6   1 1440.76   50.49
  -3  -6   1 1443.26   49.30
  -3  -6   1 1413.56   49.99
   2   6  -1  334.17   17.60
   2   6  -1  341.77   16.60
   2   6  -1  328.57   15.80
   2   6  -1  337.17   16.00
  -2  -6   1  315.17   16.70
  -2  -6   1  336.57   16.90
  -2  -6   1  343.57   18.20
  -2  -6   1  328.37   17.20
  -2  -6   1  335.87   16.30
   1   6  -1   20.70    6.80
   1   6  -1   13.20    5.30
   1   6  -1    9.40    5.00
  -1  -6   1   21.90    6.10
  -1  -6   1   12.10    6.90
  -1  -6   1   19.60    6.10
  -1  -6   1   17.40    2.50
  -1  -6   1   17.20    5.70
   0   6  -1 1044.40   35.20
   0   6  -1 1023.10   38.70
   0   6  -1 1045.20   35.30
   0   6  -1  978.30   36.80
   0  -6   1 1022.60   35.80
   0  -6   1 1127.99   37.90
   0  -6   1 1028.80   37.00
   0  -6   1 1035.30   33.30
   0  -6   1 1003.80   37.60
  -1   6  -1  583.24   22.30
  -1   6  -1  576.34   23.10
  -1   6  -1  601.74   22.30
  -1   6  -1  557.64   24.50
   1  -6   1  606.24   20.60
   1  -6   1  585.24   23.30
   1  -6   1  578.54   23.70
  -2   6  -1  324.17   15.70
  -2   6  -1  310.67   16.30
  -2   6  -1  290.57   15.90
  -2   6  -1  325.97   11.50
  -2   6  -1  330.87   15.20
   2  -6   1  326.27   15.70
   2  -6   1  336.07   16.80
   2  -6   1  328.97   16.80
   2  -6   1  301.47   17.00
   2  -6   1  317.07   13.60
  -3   6  -1  505.95   21.70
  -3   6  -1  496.95   20.20
  -3   6  -1  487.65   21.90
  -3   6  -1  496.35   21.90
   3  -6   1  497.35   20.50
   3  -6   1  504.75   21.00
   3  -6   1  503.15   19.50
   3  -6   1  461.95   22.40
  -4   6  -1   13.30    7.00
  -4   6  -1   12.40    7.80
  -4   6  -1   16.50    7.60
  -4   6  -1   17.40    6.90
   4  -6   1   17.20    6.50
   4  -6   1   17.70    6.50
   4  -6   1   18.80    7.30
   4  -6   1   28.50    7.70
  -5   6  -1  121.59   15.20
  -5   6  -1  122.49   13.10
  -5   6  -1  107.39   13.50
  -5   6  -1  106.99   11.60
   5  -6   1  117.79   14.20
   5  -6   1  132.99   14.60
   5  -6   1  129.99   12.50
   5  -6   1  127.29   13.40
  -6   6  -1   65.19   11.20
  -6   6  -1   48.70    9.70
  -6   6  -1   59.39   12.20
   6  -6   1   64.09   11.70
   6  -6   1   48.30    9.40
   6  -6   1   50.79    5.00
   6  -6   1   57.99    9.60
  -7   6  -1  112.29   15.00
  -7   6  -1   90.69   14.70
  -7   6  -1  106.99   14.20
  -7   6  -1  106.99   14.30
   7  -6   1  127.59   15.50
   7  -6   1  105.39   13.70
   7  -6   1   96.29    9.40
   7  -6   1  120.89   12.20
  -8   6  -1   -8.50   14.00
  -8   6  -1  -19.80   13.90
  -8   6  -1  -18.10   12.80
  -8   6  -1    5.40   15.20
   8  -6   1    1.90   14.40
   8  -6   1   -2.00    5.40
   8  -6   1   -0.40   10.70
   8  -6   1    6.40    9.90
   8  -6   1   -2.50   14.70
   6   5  -1    8.80   13.40
   6   5  -1   14.90   10.80
   6   5  -1   -4.60    9.90
   6   5  -1    6.50   11.10
  -6  -5   1    5.20   12.50
  -6  -5   1    3.50   11.50
  -6  -5   1  -27.80   10.40
  -6  -5   1   -4.60   11.00
   5   5  -1  153.98   16.30
   5   5  -1  147.29   16.70
   5   5  -1  196.88   18.60
   5   5  -1  201.28   17.90
  -5  -5   1  211.28   17.80
  -5  -5   1  169.98   17.40
  -5  -5   1  172.38   18.90
   4   5  -1  159.68   13.70
   4   5  -1  158.68   14.20
   4   5  -1  149.19   13.00
   4   5  -1  153.08   14.00
  -4  -5   1  168.88   14.60
  -4  -5   1  156.38   14.80
  -4  -5   1  161.48   14.70
  -4  -5   1  164.48   14.40
   3   5  -1   15.00    6.10
   3   5  -1    8.40    6.40
   3   5  -1   13.20    6.10
   3   5  -1   18.60    6.30
  -3  -5   1   17.40    7.70
  -3  -5   1   13.40    6.30
  -3  -5   1   16.60    7.10
  -3  -5   1   17.00    6.70
   2   5  -1  614.94   23.20
   2   5  -1  611.24   22.80
   2   5  -1  576.14   22.20
   2   5  -1  584.94   23.70
  -2  -5   1  565.84   23.10
  -2  -5   1  625.94   23.90
  -2  -5   1  571.44   23.00
  -2  -5   1  594.74   23.00
  -2  -5   1  596.34   23.50
   1   5  -1 1291.37   41.60
   1   5  -1 1211.78   41.20
   1   5  -1 1270.57   42.60
  -1  -5   1 1210.28   42.40
  -1  -5   1 1257.27   38.60
  -1  -5   1 1253.77   41.90
  -1  -5   1 1217.88   41.60
  -1  -5   1 1221.38   42.00
   0   5  -1  399.06   19.50
   0   5  -1  417.76   17.70
   0   5  -1  427.26   16.30
   0   5  -1  394.96   16.10
   0  -5   1  400.46   14.40
   0  -5   1  409.86   16.90
   0  -5   1  410.46   18.10
   0  -5   1  452.45   17.60
   0  -5   1  445.66   18.20
  -1   5  -1 1271.07   41.60
  -1   5  -1 1310.27   43.30
  -1   5  -1 1221.38   41.70
  -1   5  -1 1325.07   41.80
   1  -5   1 1261.27   39.90
   1  -5   1 1249.77   42.50
   1  -5   1 1067.39   43.10
   1  -5   1 1244.28   42.70
  -2   5  -1 1592.34   49.99
  -2   5  -1 1567.44   50.49
  -2   5  -1 1476.05   50.49
  -2   5  -1 1540.45   50.69
   2  -5   1 1488.25   49.90
   2  -5   1 1537.75   48.70
   2  -5   1 1562.54   50.69
   2  -5   1 1356.06   50.79
  -3   5  -1  466.45   19.30
  -3   5  -1  419.26   18.90
  -3   5  -1  468.35   18.10
  -3   5  -1  391.36   18.30
   3  -5   1  404.96   17.70
   3  -5   1  411.16   16.70
   3  -5   1  432.26   18.90
   3  -5   1  408.76   18.20
  -4   5  -1  197.48   14.00
  -4   5  -1  207.88   13.00
  -4   5  -1  186.48   13.10
   4  -5   1  192.68   11.80
   4  -5   1  190.08    7.30
   4  -5   1  204.78   13.50
   4  -5   1  199.78   13.60
   4  -5   1  193.28   12.80
  -5   5  -1  641.04   27.90
  -5   5  -1  653.93   27.20
  -5   5  -1  682.93   27.10
   5  -5   1  659.33   27.60
   5  -5   1  634.44   26.50
   5  -5   1  661.03   27.50
   5  -5   1  607.94   24.70
  -6   5  -1  224.38   18.00
  -6   5  -1  249.97   18.70
  -6   5  -1  235.18   19.30
  -6   5  -1  242.78   17.70
   6  -5   1  257.47   17.40
   6  -5   1  277.67   16.10
   6  -5   1  256.07   18.40
  -7   5  -1    4.30   10.20
  -7   5  -1   22.60   11.00
  -7   5  -1    9.60   10.90
  -7   5  -1   36.50   12.90
   7  -5   1    6.10   10.10
   7  -5   1   12.10   12.30
   7  -5   1   23.60    8.90
  -8   5  -1  144.39   18.20
  -8   5  -1  137.49   17.60
  -8   5  -1  111.29   16.00
  -8   5  -1  105.19   15.70
   8  -5   1  118.79   15.60
   8  -5   1  126.69   17.60
   8  -5   1  106.79   15.90
   8  -5   1  144.69   14.30
   7   4  -1   31.50   15.30
   7   4  -1   23.90   13.60
  -7  -4   1   10.50   12.80
  -7  -4   1   24.50   13.60
  -7  -4   1    3.00   13.20
  -7  -4   1   20.30   14.50
   6   4  -1  515.85   27.30
   6   4  -1  588.34   28.20
   6   4  -1  520.15   29.40
  -6  -4   1  564.14   29.50
  -6  -4   1  541.95   28.50
  -6  -4   1  547.95   28.30
  -6  -4   1  565.94   28.00
   5   4  -1  577.84   25.40
   5   4  -1  628.34   27.30
   5   4  -1  595.04   27.20
   5   4  -1  606.84   28.00
  -5  -4   1  622.54   27.20
  -5  -4   1  523.95   27.80
  -5  -4   1  629.94   27.80
  -5  -4   1  607.04   27.10
   4   4  -1   93.39    9.90
   4   4  -1   93.89   10.90
   4   4  -1   90.09   10.60
   4   4  -1  104.69   11.70
  -4  -4   1   91.99   11.70
  -4  -4   1  101.89   10.50
  -4  -4   1   97.69   10.80
  -4  -4   1  122.09   12.60
   3   4  -1  866.21   32.90
   3   4  -1  898.81   31.20
   3   4  -1  898.61   32.80
   3   4  -1  874.61   32.20
  -3  -4   1  930.11   33.00
  -3  -4   1  884.61   32.50
  -3  -4   1  893.81   32.60
  -3  -4   1  950.30   32.70
   2   4  -1 1913.91   60.49
   2   4  -1 1862.91   61.79
   2   4  -1 1770.42   61.09
   2   4  -1 1962.90   61.29
  -2  -4   1 1844.22   61.19
  -2  -4   1 1894.61   61.49
  -2  -4   1 1928.31   61.69
  -2  -4   1 1969.20   61.39
   1   4  -1  419.86   16.30
   1   4  -1  423.56   16.20
   1   4  -1  420.56   16.70
  -1  -4   1  404.96   17.20
  -1  -4   1  421.96   16.50
  -1  -4   1  438.06   16.80
  -1  -4   1  432.06   16.60
   0   4  -1 1113.59   41.20
   0   4  -1 1244.68   40.10
   0   4  -1 1237.28   39.50
   0   4  -1 1189.08   39.40
   0  -4   1 1251.17   40.00
   0  -4   1 1202.38   40.40
   0  -4   1 1222.68   40.50
   0  -4   1 1209.58   40.10
  -1   4  -1  654.33   24.20
  -1   4  -1  664.73   23.10
  -1   4  -1  630.34   23.30
  -1   4  -1  708.53   23.70
   1  -4   1  564.14   24.30
   1  -4   1  688.93   23.80
   1  -4   1  642.34   24.20
  -2   4  -1  705.43   25.00
  -2   4  -1  653.13   25.40
  -2   4  -1  690.03   24.70
  -2   4  -1  669.03   25.20
   2  -4   1  700.53   23.70
   2  -4   1  728.63   25.30
   2  -4   1  736.13   25.00
   2  -4   1  724.23   25.60
  -3   4  -1  783.32   28.10
  -3   4  -1  716.93   27.30
  -3   4  -1  759.92   27.40
   3  -4   1  815.52   27.50
   3  -4   1  739.23   27.40
   3  -4   1  806.62   27.60
   3  -4   1  753.52   23.90
   3  -4   1  745.03   26.40
  -4   4  -1  192.38   12.50
  -4   4  -1  187.58   12.50
  -4   4  -1  199.28   13.10
   4  -4   1  189.48   12.20
   4  -4   1  205.48   12.60
   4  -4   1  184.98   12.70
   4  -4   1  191.48   11.00
  -5   4  -1  240.88   15.90
  -5   4  -1  255.87   16.60
  -5   4  -1  239.08   15.90
   5  -4   1  247.78   13.70
   5  -4   1  267.77   16.70
   5  -4   1  250.87   16.10
   5  -4   1  265.47   15.80
  -6   4  -1  137.79   13.40
  -6   4  -1  125.79   13.80
  -6   4  -1  144.59   17.00
  -6   4  -1  145.09   15.50
   6  -4   1  140.89   12.30
   6  -4   1  101.69   12.80
   6  -4   1  133.29   15.50
  -7   4  -1    2.30   10.60
  -7   4  -1   12.70   11.30
  -7   4  -1   11.20   11.00
  -7   4  -1    8.80   10.40
   7  -4   1   -7.70   11.10
   7  -4   1    8.70   10.50
   7  -4   1   -5.90    9.90
   7  -4   1   14.50    8.40
  -8   4  -1  106.19   16.50
  -8   4  -1   79.29   15.80
  -8   4  -1   76.89   12.10
  -8   4  -1   94.39   17.50
  -8   4  -1   75.69   14.50
   8  -4   1   79.69   12.00
   8  -4   1   72.19   16.00
   8  -4   1   96.59   15.40
   8  -4   1   92.79   14.20
   7   3  -1  128.69   17.00
   7   3  -1  115.39   16.30
  -7  -3   1  133.59   16.80
  -7  -3   1  138.89   17.50
  -7  -3   1  120.19   17.30
  -7  -3   1  131.39   15.90
   6   3  -1  130.49   16.80
   6   3  -1  120.79   13.50
   6   3  -1  123.39   14.90
  -6  -3   1  140.89   17.60
  -6  -3   1  138.19   14.70
  -6  -3   1  126.19   14.90
  -6  -3   1  168.38   19.30
   5   3  -1   37.90    8.80
   5   3  -1   33.70    9.30
   5   3  -1   31.10   10.00
  -5  -3   1   34.50    9.10
  -5  -3   1   40.30    9.20
  -5  -3   1   37.50    9.50
  -5  -3   1   45.60    9.90
   4   3  -1   62.19    8.40
   4   3  -1   62.39    7.30
   4   3  -1   84.79    9.90
   4   3  -1   52.29    8.10
  -4  -3   1   58.59    8.30
  -4  -3   1   78.39    9.60
  -4  -3   1   52.59    8.00
  -4  -3   1   50.69    7.80
   3   3  -1  512.05   20.70
   3   3  -1  509.45   19.10
   3   3  -1  512.25   21.00
   3   3  -1  544.75   20.60
  -3  -3   1  486.25   20.50
  -3  -3   1  529.55   20.80
  -3  -3   1  499.85   20.50
  -3  -3   1  528.65   20.70
   2   3  -1  112.59    8.50
   2   3  -1  111.49    7.60
   2   3  -1  103.39    6.60
   2   3  -1   91.19    7.40
  -2  -3   1  105.79    8.00
  -2  -3   1  115.29    8.30
  -2  -3   1   93.99    8.20
   1   3  -1  167.78    8.50
   1   3  -1  166.38    8.40
   1   3  -1  172.38    9.00
  -1  -3   1  181.38    8.70
  -1  -3   1  173.48    8.30
  -1  -3   1  172.88    8.40
   0   3  -1 1395.56   45.80
   0   3  -1 1477.35   45.90
   0   3  -1 1408.46   45.90
   0   3  -1 1369.26   47.10
   0  -3   1 1478.35   46.20
   0  -3   1 1451.65   46.40
   0  -3   1 1444.86   46.40
   0  -3   1 1476.65   46.40
  -1   3  -1   -1.20    3.60
  -1   3  -1    0.80    3.10
  -1   3  -1   -2.70    3.50
  -1   3  -1   -1.70    3.30
   1  -3   1   -5.00    4.10
   1  -3   1    2.20    3.60
   1  -3   1   -2.60    3.60
   1  -3   1   -2.50    3.20
  -2   3  -1  550.24   19.40
  -2   3  -1  522.55   18.80
  -2   3  -1  472.25   18.70
  -2   3  -1  510.95   18.70
   2  -3   1  520.95   18.90
   2  -3   1  524.95   18.80
   2  -3   1  508.45   19.00
  -3   3  -1 1835.12   59.29
  -3   3  -1 1836.82   58.89
  -3   3  -1 1785.62   58.89
   3  -3   1 1733.63   58.89
   3  -3   1 1862.41   58.89
   3  -3   1 1847.12   57.99
   3  -3   1 1861.01   59.19
  -4   3  -1   32.40    6.20
  -4   3  -1   35.10    7.20
  -4   3  -1   46.60    7.10
   4  -3   1   39.70    6.80
   4  -3   1   36.80    6.40
   4  -3   1   37.20    5.20
   4  -3   1   36.90    7.20
  -5   3  -1  423.06   20.20
  -5   3  -1  421.66   20.30
  -5   3  -1  440.36   20.80
  -5   3  -1  447.06   20.70
   5  -3   1  469.25   20.80
   5  -3   1  428.56   20.90
   5  -3   1  417.96   18.20
   5  -3   1  440.56   21.10
  -6   3  -1  839.72   36.10
  -6   3  -1  956.60   37.70
  -6   3  -1  957.00   36.80
  -6   3  -1  941.71   37.00
   6  -3   1  990.30   34.00
   6  -3   1  899.91   36.30
   6  -3   1  938.11   36.70
   6  -3   1  948.11   36.40
  -7   3  -1  -17.50    9.70
  -7   3  -1    6.20   10.30
  -7   3  -1   -4.70   10.40
  -7   3  -1   -3.80   10.30
  -7   3  -1   -3.90    8.10
   7  -3   1   -9.70    7.10
   7  -3   1   -7.20    9.60
   7  -3   1   -0.50   11.40
   7  -3   1   -7.50   11.80
  -8   3  -1  -17.30   12.90
  -8   3  -1    8.30   13.50
  -8   3  -1    0.40    9.60
  -8   3  -1  -12.90   13.00
  -8   3  -1  -11.70   12.60
   8  -3   1   -4.50   12.30
   8  -3   1    2.90   14.20
   8  -3   1    9.40   12.70
   8  -3   1   -5.60    9.40
   7   2  -1   53.39   14.20
   7   2  -1   50.69    7.40
   7   2  -1   50.49   13.00
  -7  -2   1   34.20    7.40
  -7  -2   1   54.59   14.30
  -7  -2   1   15.10   12.40
  -7  -2   1   53.19   13.50
  -7  -2   1   31.80   11.90
   6   2  -1  127.69    9.60
   6   2  -1  120.09   13.90
   6   2  -1  127.79   15.80
  -6  -2   1  109.79   13.40
  -6  -2   1  122.49   10.60
  -6  -2   1  109.49   13.30
  -6  -2   1   98.29   12.50
  -6  -2   1  144.39   16.50
   5   2  -1 1591.14   54.29
   5   2  -1 1516.05   54.09
   5   2  -1 1545.05   53.59
   5   2  -1 1583.94   49.70
  -5  -2   1 1530.85   50.39
  -5  -2   1 1587.24   54.09
  -5  -2   1 1531.05   53.69
  -5  -2   1 1518.75   53.69
  -5  -2   1 1545.25   54.29
   4   2  -1   42.20    7.20
   4   2  -1   39.90    7.30
   4   2  -1   39.20    4.20
   4   2  -1   20.40    4.80
   4   2  -1   27.20    6.80
  -4  -2   1   41.10    7.80
  -4  -2   1   34.20    6.90
  -4  -2   1   42.60    4.90
  -4  -2   1   33.50    6.80
  -4  -2   1   26.20    6.70
   3   2  -1   10.70    2.50
   3   2  -1   10.20    4.60
   3   2  -1    8.80    3.50
   3   2  -1    8.50    4.80
   3   2  -1   17.80    5.40
  -3  -2   1   14.70    5.40
  -3  -2   1   15.60    4.90
  -3  -2   1   13.80    4.90
  -3  -2   1   14.40    3.30
  -3  -2   1   10.60    4.70
   2   2  -1 1258.87   42.30
   2   2  -1 1259.17   41.00
   2   2  -1 1342.27   42.40
   2   2  -1 1355.56   42.20
  -2  -2   1 1315.87   42.30
  -2  -2   1 1263.97   42.10
  -2  -2   1 1249.28   40.00
  -2  -2   1 1303.27   42.40
  -2  -2   1 1300.87   42.20
   1   2  -1  414.06   14.60
   1   2  -1  422.46   15.00
   1   2  -1  390.26   14.50
  -1  -2   1  414.36   14.60
  -1  -2   1  415.46   14.90
  -1  -2   1  408.46   14.70
   0   2  -1  763.02   24.70
   0   2  -1  765.42   25.70
   0   2  -1  747.53   25.00
   0   2  -1  738.23   25.00
   0  -2   1  743.93   24.80
   0  -2   1  742.83   25.30
   0  -2   1  751.32   25.20
   0  -2   1  844.12   25.40
  -1   2  -1   11.90    3.10
  -1   2  -1    9.80    3.00
  -1   2  -1   12.00    3.20
  -1   2  -1    8.70    2.50
   1  -2   1    7.60    2.80
   1  -2   1    7.50    2.80
   1  -2   1   12.50    3.00
  -2   2  -1  294.17   11.70
  -2   2  -1  277.67   11.90
  -2   2  -1  291.47   11.60
   2  -2   1  288.27   11.70
   2  -2   1  294.07   11.80
   2  -2   1  285.57   11.70
  -3   2  -1  781.22   27.50
  -3   2  -1  769.92   27.10
  -3   2  -1  760.42   27.30
   3  -2   1  767.62   27.30
   3  -2   1  796.42   27.20
   3  -2   1  761.02   27.10
  -4   2  -1   94.99    9.20
  -4   2  -1   96.89   10.50
  -4   2  -1   99.39   10.00
  -4   2  -1  106.29   10.30
   4  -2   1   97.99    9.40
   4  -2   1   98.29   10.30
   4  -2   1   89.19    7.80
   4  -2   1   92.99   10.70
  -5   2  -1  453.05   21.70
  -5   2  -1  455.85   21.80
  -5   2  -1  480.05   21.30
  -5   2  -1  468.85   21.10
   5  -2   1  461.75   21.10
   5  -2   1  464.95   21.80
   5  -2   1  454.75   18.70
   5  -2   1  470.45   21.30
  -6   2  -1  133.59   13.30
  -6   2  -1  141.59   14.70
  -6   2  -1  103.79   12.70
  -6   2  -1  113.49   11.90
  -6   2  -1  125.89   15.50
   6  -2   1  105.09   13.40
   6  -2   1   95.19   11.40
   6  -2   1  107.39   11.40
   6  -2   1  123.29   14.00
  -7   2  -1  146.39   16.40
  -7   2  -1  144.89   15.40
  -7   2  -1  158.68   15.50
  -7   2  -1  159.68   19.80
  -7   2  -1  175.98   19.00
   7  -2   1  144.59   16.00
   7  -2   1  166.78   20.40
   7  -2   1  156.28   14.10
   7  -2   1  145.99   18.00
  -8   2  -1  135.59   13.40
  -8   2  -1  133.59   18.20
  -8   2  -1  144.89   17.90
  -8   2  -1  189.08   23.10
  -8   2  -1  157.58   18.40
   8  -2   1  166.68   16.50
   8  -2   1  143.39   18.00
   8  -2   1  147.49   18.00
   8  -2   1  168.68   19.40
   8   1  -1  217.58   24.00
   8   1  -1  224.18   16.20
   8   1  -1  231.48   26.30
  -8  -1   1  235.38   24.90
  -8  -1   1  261.87   27.50
  -8  -1   1  254.57   15.60
  -8  -1   1  265.77   25.40
  -8  -1   1  243.78   26.40
   7   1  -1    8.50    6.80
   7   1  -1   -0.50   10.60
   7   1  -1    0.70   12.70
   7   1  -1   -7.70   11.80
  -7  -1   1   18.30   12.40
  -7  -1   1   18.10    6.50
  -7  -1   1    1.00   11.00
  -7  -1   1   17.60   11.50
  -7  -1   1    4.90   10.50
   6   1  -1  225.78   17.50
   6   1  -1  261.97   13.10
   6   1  -1  250.87   18.30
  -6  -1   1  249.48   18.40
  -6  -1   1  267.27   18.30
  -6  -1   1  229.28   19.00
  -6  -1   1  238.58   18.30
  -6  -1   1  260.77   13.20
   5   1  -1  906.71   31.00
   5   1  -1  916.41   35.00
   5   1  -1  905.61   34.50
   5   1  -1  934.81   34.60
  -5  -1   1  955.80   34.80
  -5  -1   1  938.61   34.60
  -5  -1   1  840.22   34.20
  -5  -1   1  917.61   34.70
  -5  -1   1  929.41   31.20
   4   1  -1  190.68   12.60
   4   1  -1  173.48    8.90
   4   1  -1  184.08   12.20
   4   1  -1  185.78   12.30
   4   1  -1  182.98   12.90
  -4  -1   1  176.18   12.10
  -4  -1   1  185.88   12.20
  -4  -1   1  188.38   12.00
  -4  -1   1  170.58    8.90
  -4  -1   1  176.48   11.70
   3   1  -1  317.67   13.80
   3   1  -1  293.87   13.50
   3   1  -1  320.17   13.60
   3   1  -1  295.07   11.20
   3   1  -1  296.87   13.60
  -3  -1   1  306.27   13.70
  -3  -1   1  309.67   13.80
  -3  -1   1  298.87   11.00
  -3  -1   1  284.17   13.40
  -3  -1   1  286.37   13.40
  -3  -1   1  310.17   11.40
   2   1  -1  446.96   15.10
   2   1  -1  462.65   16.60
   2   1  -1  466.95   15.40
   2   1  -1  459.15   16.80
   2   1  -1  471.85   16.70
  -2  -1   1  470.95   16.70
  -2  -1   1  444.76   15.10
  -2  -1   1  472.05   16.70
  -2  -1   1  452.85   15.10
  -2  -1   1  471.95   16.70
  -2  -1   1  445.16   16.70
   1   1  -1 1750.02   54.59
   1   1  -1 1714.63   54.69
   1   1  -1 1733.63   54.69
   1   1  -1 1761.32   53.79
  -1  -1   1 1721.63   53.79
  -1  -1   1 1742.73   54.69
  -1  -1   1 1791.62   54.69
  -1  -1   1 1799.62   54.69
  -1   1  -1  352.96   11.90
  -1   1  -1  340.27   12.00
  -1   1  -1  311.27   11.80
   1  -1   1  348.67   11.90
   1  -1   1  351.26   12.00
   1  -1   1  346.97   12.00
  -2   1  -1   23.40    3.60
  -2   1  -1   16.00    3.50
  -2   1  -1   19.70    3.60
   2  -1   1   21.30    3.50
   2  -1   1   22.30    4.10
   2  -1   1   23.30    4.00
  -3   1  -1 1260.77   41.20
  -3   1  -1 1195.08   41.00
  -3   1  -1 1259.97   41.40
  -3   1  -1 1273.47   41.50
   3  -1   1 1214.68   41.20
   3  -1   1 1239.78   41.20
   3  -1   1 1243.08   41.40
  -4   1  -1  481.65   19.70
  -4   1  -1  445.36   19.40
  -4   1  -1  472.75   19.70
  -4   1  -1  430.76   18.00
  -4   1  -1  473.75   19.60
   4  -1   1  499.15   19.90
   4  -1   1  465.35   19.60
   4  -1   1  478.35   20.10
   4  -1   1  458.25   17.40
  -5   1  -1  241.58   16.20
  -5   1  -1  246.58   15.20
  -5   1  -1  242.48   16.40
  -5   1  -1  246.48   15.70
  -5   1  -1  260.27   13.80
   5  -1   1  248.58   16.20
   5  -1   1  249.28   15.80
   5  -1   1  262.47   15.70
   5  -1   1  239.58   12.40
  -6   1  -1  335.47   17.00
  -6   1  -1  303.57   19.60
  -6   1  -1  325.07   20.70
  -6   1  -1  336.67   19.60
  -6   1  -1  323.57   20.20
   6  -1   1  347.37   19.60
   6  -1   1  309.87   21.20
   6  -1   1  320.67   15.70
   6  -1   1  317.87   19.40
  -7   1  -1   71.59   12.80
  -7   1  -1   86.89   14.90
  -7   1  -1   73.69   13.00
  -7   1  -1   60.19   12.10
  -7   1  -1   77.49   10.40
   7  -1   1  111.49   15.70
   7  -1   1   94.29    9.60
   7  -1   1   78.29   13.30
   7  -1   1   67.49   12.80
  -8   1  -1  281.27   24.80
  -8   1  -1  278.97   19.60
  -8   1  -1  224.48   24.80
  -8   1  -1  286.97   26.20
  -8   1  -1  266.97   23.70
   8  -1   1  254.77   25.50
   8  -1   1  329.17   27.10
   8  -1   1  301.47   18.40
   8  -1   1  235.38   26.60
   8   0  -1  410.36   27.50
   8   0  -1  374.16   20.40
   8   0  -1  395.46   29.30
  -8   0   1  464.05   28.00
  -8   0   1  389.86   29.10
  -8   0   1  405.66   27.00
  -8   0   1  375.56   19.00
  -8   0   1  429.56   27.90
   7   0  -1   28.90   10.90
   7   0  -1   10.50    7.10
   7   0  -1    4.40   10.40
  -7   0   1    6.10   10.60
  -7   0   1   32.50   12.30
  -7   0   1   22.40   11.00
  -7   0   1   17.80    6.40
  -7   0   1   25.20   10.60
   6   0  -1   96.19   11.30
   6   0  -1  133.49   15.70
   6   0  -1  116.49   13.80
   6   0  -1  126.69   10.60
  -6   0   1  115.59   14.50
  -6   0   1  131.09   13.10
  -6   0   1  122.49   10.30
  -6   0   1  114.69   13.00
  -6   0   1  115.79   13.30
   5   0  -1  499.35   22.60
   5   0  -1  538.05   22.60
   5   0  -1  482.15   22.70
   5   0  -1  514.25   19.40
  -5   0   1  539.95   22.40
  -5   0   1  524.75   22.50
  -5   0   1  516.55   19.10
  -5   0   1  484.85   22.30
  -5   0   1  486.55   22.10
   4   0  -1  549.54   22.20
   4   0  -1  576.24   22.50
   4   0  -1  584.84   20.30
   4   0  -1  556.34   22.40
   4   0  -1  562.14   22.60
  -4   0   1  559.44   22.30
  -4   0   1  596.04   22.40
  -4   0   1  553.94   22.30
  -4   0   1  563.94   19.90
  -4   0   1  583.64   22.40
   3   0  -1 1080.19   34.40
   3   0  -1 1082.79   35.80
   3   0  -1 1087.49   36.20
   3   0  -1 1064.29   35.80
   3   0  -1 1029.60   35.70
  -3   0   1 1102.39   35.80
  -3   0   1 1059.19   35.80
  -3   0   1 1008.90   34.10
  -3   0   1 1057.09   34.30
  -3   0   1 1097.09   36.10
  -3   0   1 1071.99   35.80
   2   0  -1    7.40    3.20
   2   0  -1    9.30    2.30
   2   0  -1    9.60    3.00
   2   0  -1   12.10    3.10
   2   0  -1    8.00    3.10
  -2   0   1    8.50    2.80
  -2   0   1    9.50    3.00
  -2   0   1   10.80    3.10
  -2   0   1    9.60    3.00
  -2   0   1   11.30    2.30
   1   0  -1  194.78    7.20
   1   0  -1  188.98    7.20
   1   0  -1  190.68    7.20
  -1   0   1  186.88    7.80
  -1   0   1  189.68    7.20
  -1   0   1  200.08    6.90
  -1   0  -1   11.90    2.00
  -1   0  -1   15.70    2.30
  -1   0  -1   13.60    2.00
  -1   0  -1    5.10    1.80
   1   0   1    8.80    1.90
   1   0   1   17.50    2.20
   1   0   1    9.90    2.00
  -2   0  -1  726.23   24.60
  -2   0  -1  744.33   24.40
  -2   0  -1  714.93   24.60
  -2   0  -1  701.13   24.10
  -2   0  -1  687.13   24.30
   2   0   1  735.43   24.60
   2   0   1  747.53   24.60
   2   0   1  720.23   24.70
  -3   0  -1  257.07   12.10
  -3   0  -1  246.18   12.10
  -3   0  -1  257.27   11.40
  -3   0  -1  253.07   12.70
   3   0   1  238.38   12.20
   3   0   1  275.17   12.50
   3   0   1  267.47   12.60
  -4   0  -1  469.25   20.60
  -4   0  -1  505.15   20.40
  -4   0  -1  482.95   20.10
  -4   0  -1  490.05   20.30
  -4   0  -1  472.85   18.70
   4   0   1  480.75   20.30
   4   0   1  511.05   20.40
   4   0   1  449.36   19.90
   4   0   1  480.95   17.40
  -5   0  -1   33.10    6.70
  -5   0  -1   25.80    8.50
  -5   0  -1   23.60    8.00
  -5   0  -1   30.30    7.90
  -5   0  -1   31.40    8.60
   5   0   1   26.70    7.70
   5   0   1   23.50    8.20
   5   0   1   24.20    7.90
   5   0   1   35.60    5.30
  -6   0  -1  177.98   13.50
  -6   0  -1  174.68   16.10
  -6   0  -1  154.78   15.60
  -6   0  -1  168.68   17.50
  -6   0  -1  145.19   17.00
   6   0   1  153.18   17.00
   6   0   1  159.08   17.10
   6   0   1  155.78   11.30
   6   0   1  151.28   15.40
  -7   0  -1  237.78   21.30
  -7   0  -1  207.88   16.50
  -7   0  -1  198.68   19.50
  -7   0  -1  231.68   21.10
  -7   0  -1  219.88   19.90
   7   0   1  203.78   19.80
   7   0   1  252.37   20.90
   7   0   1  278.87   22.40
   7   0   1  208.48   14.50
  -8   0  -1   68.69   15.00
  -8   0  -1   72.59   10.70
  -8   0  -1  135.49   18.50
  -8   0  -1   75.49   17.50
  -8   0  -1   96.29   17.00
   8   0   1   86.29   10.10
   8   0   1  100.19   16.60
   8   0   1   95.29   18.90
   8   0   1   71.79   15.90
   8  -1  -1   55.29   15.30
   8  -1  -1   40.20   13.50
   8  -1  -1   49.10   15.50
   8  -1  -1   42.10    9.60
  -8   1   1   36.50   15.20
  -8   1   1   49.60   13.60
  -8   1   1    6.40   13.00
  -8   1   1   18.00    7.70
  -8   1   1   35.50   13.30
   7  -1  -1  411.76   23.70
   7  -1  -1  411.06   25.30
   7  -1  -1  401.76   25.20
   7  -1  -1  417.66   19.60
  -7   1   1  396.26   24.00
  -7   1   1  384.46   23.30
  -7   1   1  402.46   24.40
  -7   1   1  407.06   18.30
  -7   1   1  391.96   23.80
   6  -1  -1    8.40    8.60
   6  -1  -1    6.60    8.70
   6  -1  -1    1.00    8.80
   6  -1  -1    4.60    5.90
  -6   1   1    4.00    8.50
  -6   1   1   13.80    8.00
  -6   1   1    5.10    8.90
  -6   1   1   13.70    8.50
  -6   1   1    6.30    5.40
   5  -1  -1   80.69    9.60
   5  -1  -1   87.59    8.80
   5  -1  -1   97.19    9.90
   5  -1  -1   84.79   10.00
  -5   1   1   92.39   10.00
  -5   1   1   68.09    8.60
  -5   1   1   68.79    8.00
  -5   1   1   94.59    9.80
  -5   1   1   80.59   10.00
   4  -1  -1  669.33   23.50
   4  -1  -1  661.63   24.90
   4  -1  -1  650.13   25.00
   4  -1  -1  683.33   25.30
  -4   1   1  673.43   25.00
  -4   1   1  653.23   25.10
  -4   1   1  686.53   25.00
  -4   1   1  703.43   25.50
   3  -1  -1 1831.92   62.39
   3  -1  -1 2025.50   62.69
   3  -1  -1 1951.50   62.29
   3  -1  -1 1985.70   61.49
  -3   1   1 1969.90   62.49
  -3   1   1 1925.61   62.59
  -3   1   1 1974.60   62.39
  -3   1   1 1869.91   61.39
  -3   1   1 2051.59   62.39
   2  -1  -1  259.77   10.10
   2  -1  -1  280.27   10.60
   2  -1  -1  255.87   10.40
   2  -1  -1  272.47   10.50
  -2   1   1  268.77   10.60
  -2   1   1  274.77   10.50
  -2   1   1  263.57   10.10
  -2   1   1  274.97   10.50
   1  -1  -1   70.69    3.80
   1  -1  -1   70.89    3.50
   1  -1  -1   80.99    3.90
  -1   1   1   78.39    3.70
  -1   1   1   72.09    3.50
  -1   1   1   63.19    3.40
  -1   1   1   70.79    3.70
  -1   1   1   72.79    3.60
  -1   1   1   79.39    3.60
   0  -1  -1  278.07    8.60
   0  -1  -1  273.47    8.50
   0   1   1  247.68   10.90
   0   1   1  255.77    9.60
   0   1   1  272.47    8.60
  -1  -1  -1 3373.66  104.19
  -1  -1  -1 3351.66  104.19
  -1  -1  -1 3415.86  104.09
  -1  -1  -1 3404.76  104.19
   1   1   1 3413.76  104.09
   1   1   1 3352.46  104.19
   1   1   1 3405.16  104.19
   1   1   1 3313.67  104.09
   1   1   1 3398.06  104.29
  -2  -1  -1 1175.88   37.70
  -2  -1  -1 1137.79   37.10
  -2  -1  -1 1138.99   37.50
  -2  -1  -1 1107.39   37.30
  -2  -1  -1 1151.88   37.40
   2   1   1 1154.48   37.40
   2   1   1 1163.48   37.30
   2   1   1 1131.19   37.40
   2   1   1 1127.29   37.30
   2   1   1 1172.28   37.70
  -3  -1  -1   -0.40    3.80
  -3  -1  -1    1.40    4.30
  -3  -1  -1    3.60    4.40
  -3  -1  -1   -2.90    4.10
  -3  -1  -1    1.60    4.60
   3   1   1   -2.30    3.80
   3   1   1    0.80    4.60
   3   1   1    3.50    4.10
   3   1   1    2.10    2.40
   3   1   1   -2.90    4.90
  -4  -1  -1 1450.55   48.90
  -4  -1  -1 1356.16   48.30
  -4  -1  -1 1405.06   48.20
  -4  -1  -1 1453.65   47.20
  -4  -1  -1 1424.26   48.40
   4   1   1 1492.95   49.10
   4   1   1 1432.06   45.40
   4   1   1 1449.76   48.60
   4   1   1 1378.06   48.30
  -5  -1  -1  155.88   14.50
  -5  -1  -1  164.38   13.80
  -5  -1  -1  180.98   14.20
  -5  -1  -1  134.49   11.50
  -5  -1  -1  145.39   14.60
   5   1   1  154.78    9.30
   5   1   1  163.18   13.30
   5   1   1  142.09   13.70
   5   1   1  156.88   14.90
  -6  -1  -1  959.40   38.20
  -6  -1  -1  954.00   34.90
  -6  -1  -1  985.30   38.10
  -6  -1  -1  931.71   38.50
  -6  -1  -1  914.41   37.70
   6   1   1  931.41   38.30
   6   1   1  973.70   39.20
   6   1   1  969.20   38.30
   6   1   1  972.70   32.80
  -7  -1  -1  181.78   19.80
  -7  -1  -1  177.18   19.30
  -7  -1  -1  176.48   21.40
  -7  -1  -1  199.48   20.50
  -7  -1  -1  183.38   15.90
   7   1   1  188.48   21.00
   7   1   1  162.58   21.40
   7   1   1  205.08   13.00
  -8  -1  -1    5.50    9.10
  -8  -1  -1    5.30   15.90
  -8  -1  -1   -7.70   13.60
  -8  -1  -1    6.40   15.50
  -8  -1  -1    5.70   14.00
   8   1   1    8.30   15.10
   8   1   1   22.80   14.50
   8   1   1   -3.70    7.60
   8  -2  -1   17.10   11.70
   8  -2  -1   24.80   14.00
   8  -2  -1   16.30   13.60
   8  -2  -1   18.50    9.10
  -8   2   1   10.70    7.60
  -8   2   1   24.40   13.20
  -8   2   1   20.70   14.50
  -8   2   1   11.20   13.10
  -8   2   1    1.20   11.30
   7  -2  -1  946.81   34.40
   7  -2  -1  811.72   37.50
   7  -2  -1  979.30   37.80
   7  -2  -1  962.00   38.80
  -7   2   1  943.21   37.70
  -7   2   1  908.71   38.50
  -7   2   1  914.21   37.70
  -7   2   1  923.21   33.40
  -7   2   1  900.21   37.70
   6  -2  -1  385.26   18.00
   6  -2  -1  399.26   21.50
   6  -2  -1  404.86   20.60
   6  -2  -1  364.66   20.80
  -6   2   1  376.96   20.40
  -6   2   1  361.06   20.30
  -6   2   1  390.16   20.70
  -6   2   1  368.86   21.10
   5  -2  -1 1661.73   56.79
   5  -2  -1 1722.33   56.29
   5  -2  -1 1717.93   56.99
   5  -2  -1 1687.13   54.79
  -5   2   1 1639.24   56.29
  -5   2   1 1640.84   56.29
  -5   2   1 1745.13   56.39
  -5   2   1 1606.94   56.49
   4  -2  -1  821.02   29.00
   4  -2  -1  865.31   30.70
   4  -2  -1  794.92   29.90
   4  -2  -1  868.11   30.70
  -4   2   1  871.51   30.20
  -4   2   1  878.61   30.30
  -4   2   1  850.01   30.40
  -4   2   1  853.91   30.60
   3  -2  -1  272.47   12.10
   3  -2  -1  270.37   11.60
   3  -2  -1  276.27   12.40
   3  -2  -1  286.37   12.50
  -3   2   1  281.57   11.60
  -3   2   1  286.17   12.30
  -3   2   1  283.17   12.40
  -3   2   1  278.97   12.10
  -3   2   1  286.37   12.20
   2  -2  -1 6016.30  186.38
   2  -2  -1 6447.06  187.08
   2  -2  -1 6366.56  187.08
   2  -2  -1 6162.58  186.98
  -2   2   1 6128.79  186.98
  -2   2   1 5989.90  187.08
  -2   2   1 5554.24  186.78
  -2   2   1 6082.39  186.88
   1  -2  -1  192.38    7.10
   1  -2  -1  197.18    7.70
   1  -2  -1  206.08    7.50
  -1   2   1  193.88    7.70
  -1   2   1  194.88    7.90
  -1   2   1  199.28    7.20
  -1   2   1  194.88    7.40
  -1   2   1  190.38    9.00
  -1   2   1  210.18    7.70
   0  -2  -1  120.49    5.00
   0  -2  -1  116.69    6.50
   0  -2  -1  119.39    4.90
   0  -2  -1  130.69    5.00
   0   2   1  117.19    4.70
   0   2   1  121.59    4.80
   0   2   1  114.19    4.90
   0   2   1  130.99    5.40
   0   2   1  117.29    6.40
   0   2   1  128.89    6.00
  -1  -2  -1 3691.73  120.69
  -1  -2  -1 3967.30  120.79
  -1  -2  -1 3958.20  120.99
  -1  -2  -1 3996.60  120.59
  -1  -2  -1 3926.01  121.19
   1   2   1 3943.71  120.99
   1   2   1 3887.41  120.69
   1   2   1 3923.81  120.79
   1   2   1 3954.40  120.59
  -2  -2  -1  742.03   25.70
  -2  -2  -1  767.22   26.20
  -2  -2  -1  760.02   26.10
  -2  -2  -1  751.92   25.80
  -2  -2  -1  748.23   25.90
   2   2   1  801.32   25.90
   2   2   1  742.93   26.00
   2   2   1  728.13   25.90
   2   2   1  748.43   25.90
  -3  -2  -1   36.10    6.30
  -3  -2  -1   42.00    5.90
  -3  -2  -1   42.60    5.40
  -3  -2  -1   41.90    6.40
  -3  -2  -1   36.60    6.30
   3   2   1   25.00    5.30
   3   2   1   46.60    3.80
   3   2   1   36.70    5.40
   3   2   1   37.70    5.60
   3   2   1   35.00    5.80
   3   2   1   39.20    6.70
  -4  -2  -1  311.07   16.60
  -4  -2  -1  311.87   14.60
  -4  -2  -1  305.97   16.30
  -4  -2  -1  338.17   16.40
  -4  -2  -1  318.87   16.20
   4   2   1  314.17   11.80
   4   2   1  321.17   16.80
   4   2   1  304.07   15.60
   4   2   1  315.37   16.40
   4   2   1  307.47   16.60
  -5  -2  -1  507.45   24.60
  -5  -2  -1  542.25   24.40
  -5  -2  -1  531.35   23.70
  -5  -2  -1  508.15   21.40
  -5  -2  -1  492.75   24.00
   5   2   1  519.45   23.30
   5   2   1  509.35   24.20
   5   2   1  514.15   18.50
  -6  -2  -1   92.89   10.00
  -6  -2  -1  117.69   12.90
  -6  -2  -1  116.89   14.20
  -6  -2  -1  101.59   13.30
  -6  -2  -1  126.59   14.60
   6   2   1  121.39    9.00
   6   2   1   99.19   12.90
   6   2   1   98.89   12.90
  -7  -2  -1  -27.20   12.60
  -7  -2  -1   -3.00    8.20
  -7  -2  -1   15.40   12.70
  -7  -2  -1    4.20   13.60
  -7  -2  -1   -1.50   11.90
   7   2   1    0.30   12.00
   7   2   1   -4.30   12.80
   7   2   1    4.40   12.40
   7   2   1    2.80    5.50
   8  -3  -1   14.20   11.50
   8  -3  -1   -3.10   12.00
   8  -3  -1    3.50   13.50
   8  -3  -1    0.20    9.60
  -8   3   1    4.10   12.00
  -8   3   1    6.90   12.10
  -8   3   1   -8.60    8.10
  -8   3   1    1.30   12.70
  -8   3   1    8.80   12.30
   7  -3  -1   70.59    9.80
   7  -3  -1   56.89   10.70
   7  -3  -1   87.39   13.70
  -7   3   1   78.49   13.50
  -7   3   1   84.19   12.40
  -7   3   1   62.29   11.30
  -7   3   1   67.09   12.00
   6  -3  -1 1074.09   40.60
   6  -3  -1 1130.99   40.00
   6  -3  -1 1107.19   38.50
  -6   3   1 1072.29   41.00
  -6   3   1 1073.99   40.00
  -6   3   1 1037.30   40.10
  -6   3   1 1084.49   40.20
   5  -3  -1  665.23   26.20
   5  -3  -1  637.34   25.40
   5  -3  -1  655.13   24.30
   5  -3  -1  619.74   25.30
  -5   3   1  654.33   25.80
  -5   3   1  599.74   25.40
  -5   3   1  624.74   26.20
  -5   3   1  672.13   25.70
   4  -3  -1   72.69    8.90
   4  -3  -1   68.99    6.60
   4  -3  -1   64.89    7.40
   4  -3  -1   83.19    9.20
  -4   3   1   76.99    9.10
  -4   3   1   70.79    8.70
  -4   3   1   81.29    8.70
  -4   3   1   73.79    8.50
   3  -3  -1  125.99    8.30
   3  -3  -1  117.69    8.10
   3  -3  -1  123.69    8.20
   3  -3  -1  131.39    6.60
  -3   3   1  132.59    8.30
  -3   3   1  136.29    8.00
  -3   3   1  127.99    8.20
  -3   3   1  113.29    8.20
   2  -3  -1 3698.03  115.19
   2  -3  -1 3582.34  114.79
   2  -3  -1 3792.22  115.39
   2  -3  -1 3452.75  115.09
   2  -3  -1 3798.32  115.39
  -2   3   1 4041.70  115.69
  -2   3   1 3631.04  115.29
  -2   3   1 3685.83  114.49
  -2   3   1 3767.02  115.39
  -2   3   1 3819.42  115.09
   1  -3  -1  199.58    8.00
   1  -3  -1  177.38    8.60
   1  -3  -1  192.18    9.70
   1  -3  -1  188.58    7.70
  -1   3   1  196.78    8.00
  -1   3   1  203.48    7.60
  -1   3   1  187.88    8.30
  -1   3   1  194.48    8.00
  -1   3   1  193.98    8.10
  -1   3   1  192.88    9.70
   0  -3  -1 2314.37   73.89
   0  -3  -1 2467.35   73.69
   0  -3  -1 2335.37   75.19
   0  -3  -1 2377.16   74.19
   0   3   1 2406.76   73.59
   0   3   1 2329.27   74.69
   0   3   1 2379.86   73.79
   0   3   1 2484.65   73.89
   0   3   1 2384.06   75.59
  -1  -3  -1  796.92   26.30
  -1  -3  -1  789.82   26.50
  -1  -3  -1  782.12   27.30
  -1  -3  -1  808.82   26.50
   1   3   1  811.82   26.40
   1   3   1  786.92   26.80
   1   3   1  809.22   24.70
   1   3   1  807.42   26.70
   1   3   1  742.83   26.20
  -2  -3  -1  117.89    7.80
  -2  -3  -1  109.59    7.90
  -2  -3  -1  127.49    8.40
  -2  -3  -1  129.79    8.60
  -2  -3  -1  123.79    8.40
   2   3   1  123.39    8.60
   2   3   1  112.69    8.00
   2   3   1  118.09    8.50
   2   3   1  121.19    7.90
  -3  -3  -1 2871.51   93.99
  -3  -3  -1 3023.50   94.59
  -3  -3  -1 3094.09   94.69
  -3  -3  -1 3045.50   94.29
  -3  -3  -1 2959.60   93.59
   3   3   1 2962.50   94.59
   3   3   1 2883.31   90.59
   3   3   1 2801.32   93.79
   3   3   1 3103.69   94.49
   3   3   1 2886.71   93.89
  -4  -3  -1  241.88   14.90
  -4  -3  -1  220.48   14.10
  -4  -3  -1  238.48   13.30
  -4  -3  -1  243.88   15.90
  -4  -3  -1  237.38   15.00
   4   3   1  228.78    8.90
   4   3   1  250.67   15.10
   4   3   1  250.47   14.90
   4   3   1  243.68   14.90
   4   3   1  255.57   14.70
  -5  -3  -1  271.87   18.80
  -5  -3  -1  219.08   15.80
  -5  -3  -1  249.28   17.30
  -5  -3  -1  242.38   17.70
  -5  -3  -1  271.77   15.40
   5   3   1  273.67   17.00
   5   3   1  247.88   10.20
   5   3   1  264.17   17.40
  -6  -3  -1  523.05   27.80
  -6  -3  -1  546.95   28.00
  -6  -3  -1  586.84   29.00
  -6  -3  -1  560.14   28.50
  -6  -3  -1  550.34   24.40
   6   3   1  534.55   19.50
   6   3   1  554.94   27.00
   6   3   1  564.94   29.30
  -7  -3  -1  506.65   30.00
  -7  -3  -1  483.15   31.00
  -7  -3  -1  493.35   30.70
  -7  -3  -1  491.05   29.50
   7   3   1  473.25   28.80
   7   3   1  518.75   19.10
   7   3   1  518.75   29.00
   8  -4  -1 1053.79   43.80
   8  -4  -1 1065.49   40.60
   8  -4  -1 1018.70   42.70
  -8   4   1 1052.59   43.10
  -8   4   1 1042.50   45.00
  -8   4   1 1088.69   44.10
  -8   4   1 1051.19   43.90
   7  -4  -1  137.39   15.20
   7  -4  -1  140.99   14.10
   7  -4  -1  134.59   16.10
  -7   4   1  113.59   13.70
  -7   4   1  142.09   14.70
  -7   4   1  133.99   16.80
  -7   4   1  123.19   13.60
   6  -4  -1 1008.90   37.80
   6  -4  -1 1017.20   38.70
   6  -4  -1 1008.90   36.70
   6  -4  -1 1027.40   39.00
  -6   4   1 1035.80   39.30
  -6   4   1 1030.60   38.30
  -6   4   1  995.70   38.30
  -6   4   1 1029.00   38.10
   5  -4  -1 1795.32   59.19
   5  -4  -1 1761.22   57.49
   5  -4  -1 1922.91   60.79
   5  -4  -1 1727.63   59.49
   5  -4  -1 1806.42   60.19
  -5   4   1 1805.72   59.69
  -5   4   1 1814.82   59.99
  -5   4   1 1793.22   60.49
  -5   4   1 1756.92   59.89
   4  -4  -1 2604.54   84.89
   4  -4  -1 2732.53   87.19
   4  -4  -1 2843.92   87.09
   4  -4  -1 2795.92   86.59
   4  -4  -1 2867.81   86.79
  -4   4   1 2581.14   86.79
  -4   4   1 2653.63   86.69
  -4   4   1 2732.33   87.29
   3  -4  -1  970.10   30.80
   3  -4  -1  915.41   32.40
   3  -4  -1  987.90   32.20
   3  -4  -1  929.31   32.00
  -3   4   1  894.11   32.30
  -3   4   1  953.10   32.40
  -3   4   1  969.90   31.90
   2  -4  -1  325.27   12.80
   2  -4  -1  292.17   11.60
   2  -4  -1  294.57   12.00
   2  -4  -1  293.77   12.30
  -2   4   1  291.07   12.60
  -2   4   1  308.17   11.80
  -2   4   1  283.57   14.10
  -2   4   1  287.57   11.30
  -2   4   1  299.77   12.30
  -2   4   1  312.37   12.70
   1  -4  -1 6094.59  182.48
   1  -4  -1 6240.58  182.88
   1  -4  -1 5694.83  182.98
   1  -4  -1 6138.09  184.58
  -1   4   1 5815.62  182.28
  -1   4   1 5817.92  182.38
  -1   4   1 6054.39  182.58
  -1   4   1 5598.14  182.38
  -1   4   1 6056.49  184.48
   0  -4  -1  380.86   14.60
   0  -4  -1  381.26   14.70
   0  -4  -1  376.26   15.60
   0  -4  -1  370.56   13.10
   0  -4  -1  397.16   13.90
   0   4   1  372.86   13.50
   0   4   1  380.26   13.10
   0   4   1  349.57   15.40
   0   4   1  372.56   13.50
   0   4   1  376.76   16.30
  -1  -4  -1   56.09    6.00
  -1  -4  -1   49.40    6.30
  -1  -4  -1   50.49    6.20
   1   4   1   62.29    5.90
   1   4   1   56.09    6.00
   1   4   1   45.50    5.90
   1   4   1   56.29    6.60
  -2  -4  -1 1380.56   45.40
  -2  -4  -1 1315.57   45.00
  -2  -4  -1 1372.46   46.30
  -2  -4  -1 1393.46   45.60
  -2  -4  -1 1325.57   45.20
   2   4   1 1401.06   45.00
   2   4   1 1415.96   45.30
   2   4   1 1330.77   45.60
   2   4   1 1370.86   45.50
  -3  -4  -1  944.31   33.60
  -3  -4  -1  934.81   33.80
  -3  -4  -1  918.51   33.30
  -3  -4  -1  959.80   34.10
   3   4   1  934.31   33.60
   3   4   1  914.31   33.10
   3   4   1  936.31   33.60
   3   4   1  950.20   34.10
  -4  -4  -1   77.89    9.50
  -4  -4  -1   83.89   10.30
  -4  -4  -1   73.89    9.20
  -4  -4  -1   94.39   11.80
   4   4   1   75.49   10.20
   4   4   1   71.09    9.30
   4   4   1   62.79    8.40
   4   4   1   75.69   10.10
  -5  -4  -1   12.50    8.90
  -5  -4  -1    2.40    9.60
  -5  -4  -1   22.50    9.40
   5   4   1   27.00    9.30
   5   4   1   28.80    9.70
   5   4   1   16.70    9.80
  -6  -4  -1  215.58   21.20
  -6  -4  -1  210.38   21.60
  -6  -4  -1  208.28   20.20
  -6  -4  -1  211.98   20.70
   6   4   1  209.78   20.90
   6   4   1  185.08   21.40
  -7  -4  -1  144.69   17.80
  -7  -4  -1   95.79   16.80
  -7  -4  -1   98.09   17.40
   7   4   1  142.89   18.30
   8  -5  -1  108.49   16.50
   8  -5  -1   88.69   15.70
   8  -5  -1  119.49   13.70
   8  -5  -1  114.09   11.20
  -8   5   1   80.89   14.10
  -8   5   1  150.68   17.20
  -8   5   1  105.49   15.80
  -8   5   1   72.69   13.60
   7  -5  -1  148.79   16.00
   7  -5  -1  131.19   16.00
   7  -5  -1  144.99   15.10
   7  -5  -1  140.59   14.90
   7  -5  -1  124.59   11.50
  -7   5   1  114.89   12.80
  -7   5   1  123.29   16.00
  -7   5   1  148.09   14.80
  -7   5   1  118.99   14.50
   6  -5  -1   -0.80    8.80
   6  -5  -1    5.80    7.20
   6  -5  -1   17.00    7.80
   6  -5  -1    8.90    8.80
   6  -5  -1    9.90    5.40
  -6   5   1    1.80    7.80
  -6   5   1    4.20    7.80
  -6   5   1    3.50    7.70
  -6   5   1   11.20    9.30
   5  -5  -1   99.39   11.40
   5  -5  -1   93.39    9.10
   5  -5  -1   80.59    9.50
   5  -5  -1   95.99    7.90
   5  -5  -1   92.29   11.50
  -5   5   1   66.99    8.70
  -5   5   1  101.09   10.00
  -5   5   1   96.59   11.20
  -5   5   1   82.99    9.60
   4  -5  -1  190.18   11.80
   4  -5  -1  185.08    9.20
   4  -5  -1  201.88   11.50
   4  -5  -1  187.38   12.40
  -4   5   1  175.98   11.10
  -4   5   1  182.78   12.70
  -4   5   1  178.58   12.20
   3  -5  -1 2075.59   68.19
   3  -5  -1 2143.89   68.89
   3  -5  -1 2134.29   68.19
   3  -5  -1 2187.28   67.79
  -3   5   1 2273.17   69.19
  -3   5   1 2020.70   70.39
  -3   5   1 2110.89   68.69
  -3   5   1 2125.99   67.89
   2  -5  -1  115.39    8.10
   2  -5  -1  122.59    9.50
   2  -5  -1  121.59    8.30
   2  -5  -1  125.99    7.40
  -2   5   1  107.59    8.50
  -2   5   1  122.49   11.40
  -2   5   1  122.79    7.20
  -2   5   1  108.09    7.70
  -2   5   1  106.89    8.20
   1  -5  -1  597.34   22.30
   1  -5  -1  615.34   21.80
   1  -5  -1  617.44   24.30
   1  -5  -1  624.04   23.40
   1  -5  -1  617.34   21.20
  -1   5   1  657.13   21.90
  -1   5   1  598.54   21.00
  -1   5   1  616.34   21.00
  -1   5   1  590.24   23.80
   0  -5  -1 1369.46   45.50
   0  -5  -1 1401.06   43.50
   0  -5  -1 1445.46   45.70
   0  -5  -1 1389.26   44.40
   0  -5  -1 1300.67   46.10
   0   5   1 1333.27   44.00
   0   5   1 1401.26   44.00
   0   5   1 1426.66   47.10
   0   5   1 1295.17   46.20
  -1  -5  -1 4469.75  138.99
  -1  -5  -1 4464.25  138.39
  -1  -5  -1 4499.45  139.29
  -1  -5  -1 4482.25  138.79
  -1  -5  -1 4395.96  140.09
   1   5   1 4425.66  139.39
   1   5   1 4458.05  139.39
   1   5   1 4588.94  138.49
   1   5   1 4362.86  138.29
  -2  -5  -1  357.26   17.60
  -2  -5  -1  381.06   16.50
  -2  -5  -1  382.36   17.30
  -2  -5  -1  362.76   16.60
  -2  -5  -1  367.46   16.10
   2   5   1  370.86   17.20
   2   5   1  344.07   16.10
   2   5   1  380.96   15.90
   2   5   1  360.76   16.60
  -3  -5  -1   22.20    6.70
  -3  -5  -1   23.60    7.70
  -3  -5  -1   16.80    6.70
  -3  -5  -1   42.50    7.60
  -3  -5  -1   26.40    8.20
   3   5   1   33.00    6.90
   3   5   1   34.80    8.10
   3   5   1   39.70    7.50
   3   5   1   31.70    7.80
  -4  -5  -1 2471.85   81.49
  -4  -5  -1 2443.56   80.89
  -4  -5  -1 2495.45   80.79
  -4  -5  -1 2472.95   81.59
   4   5   1 2487.05   81.69
   4   5   1 2465.75   80.39
   4   5   1 2401.96   80.79
   4   5   1 2356.86   80.59
  -5  -5  -1   -7.20    9.50
  -5  -5  -1   13.70    9.20
  -5  -5  -1   26.60   11.10
   5   5   1   16.00    9.00
   5   5   1   12.50    9.30
   5   5   1    5.00   10.70
   5   5   1   22.30    9.90
  -6  -5  -1   75.79   14.10
  -6  -5  -1   70.89   14.10
  -6  -5  -1   61.89   13.40
  -6  -5  -1   68.19   15.20
   6   5   1   83.29   14.50
   6   5   1   53.39   13.20
   8  -6  -1   10.30    6.20
   8  -6  -1    7.70    8.30
   8  -6  -1  -11.20   10.90
   8  -6  -1    7.60   13.30
   8  -6  -1    7.60   13.80
  -8   6   1    4.40   11.60
  -8   6   1  -11.00   11.50
  -8   6   1    4.50   10.70
  -8   6   1    6.60   14.60
   7  -6  -1 1913.11   61.69
   7  -6  -1 1974.60   67.99
   7  -6  -1 1984.00   66.89
   7  -6  -1 1895.21   65.09
  -7   6   1 1878.11   65.79
  -7   6   1 1913.71   66.29
  -7   6   1 1790.72   67.29
  -7   6   1 1900.51   66.59
   6  -6  -1    0.10    8.20
   6  -6  -1   -0.20    8.20
   6  -6  -1    6.50    7.30
   6  -6  -1    3.80    8.90
   6  -6  -1    4.60    5.20
  -6   6   1    1.30    7.80
  -6   6   1    7.40    9.70
  -6   6   1   -4.10    7.70
  -6   6   1    0.60    7.40
   5  -6  -1  615.64   24.60
   5  -6  -1  625.44   26.30
   5  -6  -1  610.34   24.80
   5  -6  -1  574.84   21.30
   5  -6  -1  621.54   25.60
  -5   6   1  621.54   28.50
  -5   6   1  596.64   26.50
  -5   6   1  653.13   25.90
  -5   6   1  603.74   24.80
   4  -6  -1 2539.65   83.69
   4  -6  -1 2594.94   82.79
   4  -6  -1 2229.58   86.19
   4  -6  -1 2692.13   82.99
  -4   6   1 2700.93   82.59
  -4   6   1 2621.24   85.69
  -4   6   1 2517.95   83.59
  -4   6   1 2717.33   83.69
   3  -6  -1  473.05   18.50
   3  -6  -1  494.45   21.10
   3  -6  -1  512.35   19.80
   3  -6  -1  489.85   19.30
  -3   6   1  487.05   20.00
  -3   6   1  487.55   18.90
  -3   6   1  475.55   20.20
  -3   6   1  478.95   22.20
   2  -6  -1  404.56   18.40
   2  -6  -1  446.26   17.10
   2  -6  -1  438.16   17.30
   2  -6  -1  411.56   16.30
  -2   6   1  399.36   16.70
  -2   6   1  462.65   17.20
  -2   6   1  421.36   17.00
  -2   6   1  442.76   20.90
  -2   6   1  423.66   16.40
   1  -6  -1  269.67   12.20
   1  -6  -1  274.57   13.50
   1  -6  -1  254.87   15.10
   1  -6  -1  270.37   11.70
   1  -6  -1  259.87   15.90
  -1   6   1  265.07   15.40
  -1   6   1  275.57   11.50
  -1   6   1  254.47   12.60
  -1   6   1  278.97   11.50
   0  -6  -1  404.96   19.50
   0  -6  -1  406.76   18.70
   0  -6  -1  435.16   15.10
   0  -6  -1  373.86   18.10
   0  -6  -1  429.26   16.40
   0   6   1  418.46   19.90
   0   6   1  399.46   15.80
   0   6   1  416.36   16.00
   0   6   1  427.46   19.40
  -1  -6  -1   26.00    6.30
  -1  -6  -1   28.00    7.20
  -1  -6  -1   22.90    5.70
  -1  -6  -1   27.20    5.70
  -1  -6  -1   24.20    5.30
   1   6   1   22.20    5.20
   1   6   1   23.00    6.60
   1   6   1   22.30    6.40
   1   6   1   20.40    4.90
  -2  -6  -1  526.95   20.90
  -2  -6  -1  491.45   23.30
  -2  -6  -1  496.95   21.60
  -2  -6  -1  449.56   20.00
   2   6   1  486.75   21.50
   2   6   1  503.05   20.20
   2   6   1  511.45   21.70
   2   6   1  459.15   19.90
  -3  -6  -1  209.98   15.30
  -3  -6  -1  218.88   17.20
  -3  -6  -1  204.48   15.40
  -3  -6  -1  211.18   15.10
  -3  -6  -1  190.38   14.20
   3   6   1  214.78   15.60
   3   6   1  232.38   14.50
   3   6   1  204.58   15.70
   3   6   1  207.98   13.90
  -4  -6  -1   43.20    9.40
  -4  -6  -1   50.29   12.10
  -4  -6  -1   52.59   10.40
  -4  -6  -1   55.99   10.50
   4   6   1   51.69   10.10
   4   6   1   54.49   10.30
   4   6   1   45.80    8.40
   4   6   1   42.70   10.50
  -5  -6  -1  206.38   21.20
  -5  -6  -1  217.08   19.50
  -5  -6  -1  178.38   20.80
  -5  -6  -1  192.38   20.00
   5   6   1  179.08   18.00
   5   6   1  209.48   19.80
   5   6   1  195.88   19.20
  -6  -6  -1  575.94   34.20
  -6  -6  -1  607.94   31.60
  -6  -6  -1  621.24   34.90
   6   6   1  613.44   32.70
   6   6   1  624.54   34.10
   7  -7  -1    9.80   11.10
   7  -7  -1   14.10    4.10
   7  -7  -1   -5.40   12.00
   7  -7  -1    4.70    6.40
   7  -7  -1   11.50    9.90
  -7   7   1   14.20   10.20
  -7   7   1   -3.00    9.50
  -7   7   1   -3.40   14.20
  -7   7   1   11.40   12.40
  -7   7   1    3.80    9.70
   6  -7  -1  193.88   16.70
   6  -7  -1  194.78   16.30
  -6   7   1  190.28   15.80
  -6   7   1  177.68   16.50
  -6   7   1  176.48   17.80
  -6   7   1  177.28   14.80
   5  -7  -1 1038.40   39.20
   5  -7  -1 1007.60   37.40
   5  -7  -1  988.40   37.30
  -5   7   1 1050.09   36.90
  -5   7   1  968.20   38.50
  -5   7   1 1029.10   41.50
  -5   7   1 1042.70   38.70
   4  -7  -1  125.39   14.40
   4  -7  -1  132.79   12.50
   4  -7  -1  139.79   10.40
   4  -7  -1  125.99   11.60
  -4   7   1  127.69   12.50
  -4   7   1  131.49   14.20
  -4   7   1  135.09   10.90
  -4   7   1  130.39   13.60
   3  -7  -1    7.80    6.20
   3  -7  -1    4.00    5.30
   3  -7  -1    2.40    7.30
   3  -7  -1    3.60    4.60
  -3   7   1    7.20    5.00
  -3   7   1   -2.80    5.70
  -3   7   1    9.00    3.60
  -3   7   1    1.10    9.10
  -3   7   1    2.70    5.60
   2  -7  -1 5042.90  152.48
   2  -7  -1 4925.31  152.18
   2  -7  -1 4874.01  152.88
   2  -7  -1 4930.21  153.38
  -2   7   1 4696.23  152.08
  -2   7   1 4724.73  151.98
  -2   7   1 4852.71  152.18
  -2   7   1 5088.09  152.58
  -2   7   1 5011.10  155.78
   1  -7  -1  310.27   15.30
   1  -7  -1  273.07   17.70
   1  -7  -1  288.77   12.80
   1  -7  -1  280.17   13.60
   1  -7  -1  303.57   17.00
  -1   7   1  277.07   12.50
  -1   7   1  256.17   13.80
  -1   7   1  297.17   17.60
  -1   7   1  287.47   12.60
   0  -7  -1 1057.99   40.80
   0  -7  -1 1041.50   40.10
   0  -7  -1 1135.39   36.20
   0  -7  -1 1028.50   39.50
   0  -7  -1 1101.09   37.80
   0   7   1 1167.98   39.60
   0   7   1 1190.58   42.40
   0   7   1 1126.89   37.20
   0   7   1 1103.69   40.30
   0   7   1 1159.48   37.40
  -1  -7  -1 4299.57  132.89
  -1  -7  -1 4214.78  133.89
  -1  -7  -1 4172.58  133.59
  -1  -7  -1 4301.87  132.49
  -1  -7  -1 4230.18  135.19
   1   7   1 4363.66  134.19
   1   7   1 4060.99  132.19
   1   7   1 4236.08  132.19
   1   7   1 4204.78  134.69
  -2  -7  -1  715.73   27.40
  -2  -7  -1  691.03   30.50
  -2  -7  -1  731.13   28.50
   2   7   1  600.84   26.40
   2   7   1  715.43   27.10
   2   7   1  695.43   29.10
   2   7   1  750.42   29.10
  -3  -7  -1  611.64   29.30
  -3  -7  -1  608.04   27.10
  -3  -7  -1  629.34   26.90
   3   7   1  601.44   25.80
   3   7   1  621.84   27.50
   3   7   1  587.04   27.80
   3   7   1  615.94   25.30
  -4  -7  -1   87.29   11.70
  -4  -7  -1   76.69   14.10
  -4  -7  -1   98.09   13.50
  -4  -7  -1   70.89   11.90
   4   7   1  102.49   13.20
   4   7   1   97.59   12.10
   4   7   1  112.69   14.10
  -5  -7  -1  695.83   33.40
  -5  -7  -1  787.82   36.20
  -5  -7  -1  700.03   32.40
  -5  -7  -1  682.73   34.80
   5   7   1  684.03   31.20
   5   7   1  678.23   32.40
   5   7   1  639.84   34.00
   7  -8  -1   47.10   12.40
   7  -8  -1   66.19   13.10
   7  -8  -1   53.29   14.60
  -7   8   1   42.80   11.10
  -7   8   1   67.69   17.30
  -7   8   1   71.39   15.10
  -7   8   1   38.40    9.50
  -7   8   1   53.09   11.40
   6  -8  -1  664.53   29.60
   6  -8  -1  679.83   32.50
   6  -8  -1  677.23   29.10
  -6   8   1  674.63   28.60
  -6   8   1  719.03   31.70
  -6   8   1  639.64   31.70
  -6   8   1  672.03   28.40
  -6   8   1  643.24   34.60
   5  -8  -1   62.99    9.70
   5  -8  -1   49.60    9.50
   5  -8  -1   53.49   11.40
  -5   8   1   40.40   10.00
  -5   8   1   56.39   10.20
  -5   8   1   47.70    8.40
   4  -8  -1  100.59   11.60
   4  -8  -1  101.59   10.20
   4  -8  -1  105.49   12.50
   4  -8  -1  105.39   10.20
  -4   8   1  119.59   12.00
  -4   8   1  103.69   10.80
  -4   8   1  115.59   14.20
  -4   8   1   90.79   10.10
   3  -8  -1  631.34   23.60
   3  -8  -1  652.13   24.60
   3  -8  -1  622.74   26.80
   3  -8  -1  552.34   24.70
  -3   8   1  631.34   29.30
  -3   8   1  623.04   24.70
  -3   8   1  666.73   23.80
  -3   8   1  623.84   24.40
  -3   8   1  638.14   22.60
   2  -8  -1  165.78   12.70
   2  -8  -1  175.58   11.80
   2  -8  -1  143.19   10.50
   2  -8  -1  166.68   12.70
  -2   8   1  149.19   10.60
  -2   8   1  152.88   10.40
  -2   8   1  184.88   11.80
  -2   8   1  177.68   17.40
  -2   8   1  158.78   10.60
   1  -8  -1  204.38   16.20
   1  -8  -1  155.58   17.20
   1  -8  -1  182.48   10.80
   1  -8  -1  171.88   13.30
   1  -8  -1  180.88   12.10
  -1   8   1  178.98   10.80
  -1   8   1  185.38   12.60
  -1   8   1  201.08   11.00
  -1   8   1  197.68   18.00
   0  -8  -1  211.98   17.90
   0  -8  -1  231.38   16.30
   0  -8  -1  238.98   13.50
   0  -8  -1  239.68   18.00
   0  -8  -1  223.88   11.00
   0   8   1  230.08   17.00
   0   8   1  231.98   15.20
   0   8   1  241.98   12.50
   0   8   1  238.98   18.80
   0   8   1  221.68   12.40
  -1  -8  -1    7.50    7.60
  -1  -8  -1    2.80    7.80
  -1  -8  -1    5.00    6.00
  -1  -8  -1   -5.00    9.20
   1   8   1    6.20    8.80
   1   8   1    7.50    5.50
   1   8   1   -2.70    7.90
   1   8   1    0.80    5.40
  -2  -8  -1   24.30    9.30
  -2  -8  -1   22.90    8.30
  -2  -8  -1   15.90   10.90
   2   8   1   10.50    7.30
   2   8   1   20.40    7.20
   2   8   1   20.20    9.70
   2   8   1    7.90    7.70
  -3  -8  -1 1092.99   44.40
  -3  -8  -1 1150.48   41.90
  -3  -8  -1 1136.89   43.40
   3   8   1 1055.09   40.20
   3   8   1 1105.69   43.50
   3   8   1 1119.19   41.00
  -4  -8  -1   78.89   14.70
  -4  -8  -1   93.79   13.30
  -4  -8  -1   94.49   16.30
  -4  -8  -1   81.09   13.60
   4   8   1   67.99   12.00
   4   8   1   62.09   10.00
   4   8   1   64.39   14.40
   4   8   1   88.79   14.50
   6  -9  -1  187.68   19.50
   6  -9  -1  242.48   24.40
  -6   9   1  196.88   20.70
  -6   9   1  188.08   16.70
  -6   9   1  223.78   16.80
  -6   9   1  195.68   20.90
  -6   9   1  233.88   20.50
   5  -9  -1  343.97   20.60
   5  -9  -1  269.07   17.90
  -5   9   1  357.86   18.10
  -5   9   1  320.17   20.40
  -5   9   1  344.97   19.90
  -5   9   1  341.87   26.30
   4  -9  -1 1105.89   38.80
   4  -9  -1  988.10   41.30
   4  -9  -1 1098.19   39.70
  -4   9   1 1146.39   38.10
  -4   9   1 1114.99   38.80
  -4   9   1  975.80   38.90
   3  -9  -1  525.45   22.60
   3  -9  -1  576.94   23.50
   3  -9  -1  559.04   24.60
   3  -9  -1  533.25   21.90
  -3   9   1  536.15   21.30
  -3   9   1  569.54   22.40
  -3   9   1  564.64   22.10
  -3   9   1  556.64   22.30
   2  -9  -1    0.20    6.50
   2  -9  -1   -4.30    5.30
   2  -9  -1    6.90    7.10
   2  -9  -1    1.60    6.50
  -2   9   1    5.80    6.70
  -2   9   1   11.40    5.30
  -2   9   1   -1.90    5.70
  -2   9   1    4.40    5.30
   1  -9  -1 2698.43   86.59
   1  -9  -1 2762.12   88.79
   1  -9  -1 2730.43   92.39
   1  -9  -1 2657.53   87.79
   1  -9  -1 2917.61   90.69
  -1   9   1 2717.43   86.89
  -1   9   1 2700.73   86.89
   0  -9  -1   25.70    9.10
   0  -9  -1   22.00   11.10
   0  -9  -1   42.90    7.90
   0  -9  -1   57.19   11.40
   0   9   1   37.40    6.40
   0   9   1   37.00    6.80
   0   9   1   39.20    9.40
  -1  -9  -1  416.26   24.20
  -1  -9  -1  400.86   23.20
   1   9   1  417.36   23.70
   1   9   1  384.76   18.30
   1   9   1  395.66   18.40
  -2  -9  -1  753.42   33.60
  -2  -9  -1  761.52   33.20
  -2  -9  -1  774.12   36.70
  -2  -9  -1  796.42   36.00
   2   9   1  702.03   29.50
   2   9   1  752.52   33.90
   2   9   1  738.93   29.80
   2   9   1  752.82   32.40
  -3  -9  -1   70.39   13.70
  -3  -9  -1   71.89   15.80
  -3  -9  -1   78.99   12.70
  -3  -9  -1   45.30   10.70
   3   9   1   78.09   11.70
   3   9   1   77.19   14.40
   3   9   1   61.49   11.00
   3   9   1   83.19   14.10
   6 -10  -1    9.90    7.90
   6 -10  -1    9.70   14.70
   6 -10  -1    7.30   10.80
  -6  10   1   -7.00    8.70
  -6  10   1    2.00    9.20
  -6  10   1   24.00   10.80
  -6  10   1    5.20   15.30
   5 -10  -1  192.38   22.10
   5 -10  -1  142.99   14.00
  -5  10   1  145.79   20.60
  -5  10   1  140.39   14.80
  -5  10   1  161.78   17.20
  -5  10   1  146.19   15.00
   4 -10  -1  194.98   16.70
  -4  10   1  182.78   19.50
  -4  10   1  168.88   13.80
  -4  10   1  166.58   13.90
  -4  10   1  157.78   14.90
   3 -10  -1  378.66   19.10
   3 -10  -1  367.56   20.20
  -3  10   1  363.76   17.40
  -3  10   1  316.77   16.90
  -3  10   1  360.76   16.90
  -3  10   1  357.86   17.40
   2 -10  -1   39.50    8.70
   2 -10  -1   36.40    8.10
  -2  10   1   44.70    7.60
  -2  10   1   53.19    7.10
  -2  10   1   76.49    9.60
  -2  10   1   41.40    7.20
   1 -10  -1    5.20    6.10
   1 -10  -1   10.20   12.30
   1 -10  -1    8.50    5.60
   1 -10  -1    9.00    6.90
   1 -10  -1    4.80    7.30
  -1  10   1   11.50    6.00
  -1  10   1    1.30    7.00
  -1  10   1    1.70    5.80
   0 -10  -1  385.36   26.10
   0  10   1  401.96   21.70
   0  10   1  344.37   16.80
   0  10   1  370.36   17.70
   0  10   1  351.26   26.20
  -1 -10  -1  615.04   33.60
  -1 -10  -1  603.84   26.30
  -1 -10  -1  621.84   27.00
   1  10   1  635.64   30.90
   1  10   1  621.14   25.50
   1  10   1  625.14   31.20
   1  10   1  621.44   25.20
  -2 -10  -1   -6.60    7.20
  -2 -10  -1   11.00    8.50
  -2 -10  -1    6.70   14.00
  -2 -10  -1   -1.10    9.80
  -2 -10  -1   22.30   10.00
   2  10   1   10.00   12.10
   2  10   1   11.00    8.70
   2  10   1    5.10   12.50
   2  10   1   -2.90    8.00
   4 -11  -1  287.87   20.20
   4 -11  -1  274.27   21.10
  -4  11   1  261.07   16.70
  -4  11   1  252.07   16.70
  -4  11   1  312.37   29.10
  -4  11   1  278.37   14.90
   3 -11  -1  418.46   25.10
   3 -11  -1  461.35   22.10
  -3  11   1  393.36   18.80
  -3  11   1  452.85   20.00
  -3  11   1  440.16   31.20
  -3  11   1  426.16   19.70
  -3  11   1  386.96   19.70
   2 -11  -1  344.37   18.90
  -2  11   1  363.96   17.90
  -2  11   1  370.96   29.60
  -2  11   1  327.37   17.00
  -2  11   1  357.06   18.20
  -2  11   1  440.16   21.00
   1 -11  -1   16.90    7.00
   1 -11  -1   -0.70    6.10
   1 -11  -1   -5.40   12.90
   1 -11  -1   -3.60    9.50
  -1  11   1    2.40    6.80
  -1  11   1   -2.90   12.10
  -1  11   1    0.60   16.10
  -1  11   1   -9.00    5.60
  -1  11   1  -14.00    7.40
   0 -11  -1  555.74   24.90
   0 -11  -1  576.74   33.50
   0 -11  -1  549.15   25.90
   0  11   1  536.25   22.70
   0  11   1  639.64   27.30
   0  11   1  555.34   23.60
   0  11   1  595.94   30.60
  -1 -11  -1  128.69   13.50
  -1 -11  -1  116.69   15.20
  -1 -11  -1   59.79   18.40
   1  11   1   83.59   19.10
   1  11   1  103.89   14.70
   1  11   1  110.99   11.80
   1  11   1  164.38   20.80
   0  12  -2  685.83   33.90
   0  12  -2  562.54   28.50
   0  12  -2  586.14   28.80
   0 -12   2  536.65   29.30
   0 -12   2  625.04   34.00
  -1  12  -2  133.99   16.30
  -1  12  -2  156.08   18.90
  -1  12  -2  150.28   18.10
   1 -12   2  141.99   15.60
   1 -12   2  152.58   19.30
   1 -12   2  161.68   13.60
  -2  12  -2    3.90    9.80
  -2  12  -2   -3.60    9.90
  -2  12  -2   -8.70   10.60
  -2  12  -2    2.40   15.90
   2 -12   2   -5.50   15.50
   2 -12   2   29.60    8.20
   2 -12   2   12.90   11.60
   2 -12   2   -0.10   12.00
  -3  12  -2  117.39   13.70
  -3  12  -2  162.68   18.00
  -3  12  -2  127.79   14.20
  -3  12  -2  122.09   18.40
   3 -12   2  111.89   16.60
   3 -12   2  147.69   16.20
  -4  12  -2  184.98   19.40
  -4  12  -2  131.89   18.60
  -4  12  -2  108.89   14.20
   4 -12   2  157.68   19.00
   4 -12   2  194.08   15.80
   2  11  -2   27.70    8.30
   2  11  -2   59.89   13.70
   2  11  -2   50.99   16.40
   2  11  -2   46.40   12.20
  -2 -11   2   14.80   11.20
  -2 -11   2   44.10   16.30
  -2 -11   2   63.39   17.50
  -2 -11   2   37.40   12.00
   1  11  -2  248.38   20.10
   1  11  -2  260.87   26.40
   1  11  -2  216.88   21.70
   1  11  -2  184.18   16.90
  -1 -11   2  215.78   24.10
  -1 -11   2  216.28   21.50
  -1 -11   2  216.78   25.00
   0  11  -2  263.87   18.10
   0  11  -2  277.87   19.40
   0  11  -2  225.48   25.20
   0 -11   2  266.47   13.30
   0 -11   2  275.57   24.40
   0 -11   2  280.57   27.60
   0 -11   2  278.47   20.30
  -1  11  -2   -4.50    8.50
  -1  11  -2   -6.90    8.60
  -1  11  -2   10.20   11.70
   1 -11   2    9.60    6.40
   1 -11   2   -6.80    9.80
   1 -11   2   21.30   10.60
   1 -11   2   -8.90   14.80
   1 -11   2    3.70   12.80
  -2  11  -2 1215.18   46.20
  -2  11  -2 1067.29   44.30
  -2  11  -2 1212.68   44.50
  -2  11  -2 1264.87   49.00
   2 -11   2 1269.87   50.69
   2 -11   2 1214.98   46.20
   2 -11   2 1183.38   42.10
   2 -11   2 1239.18   50.19
  -3  11  -2    8.10    9.70
  -3  11  -2   -9.10    9.40
  -3  11  -2    0.10    9.00
  -3  11  -2   26.90   12.50
   3 -11   2   -9.90    7.90
   3 -11   2    7.90    8.10
   3 -11   2   -4.80   12.00
   3 -11   2    2.90   11.80
  -4  11  -2  326.67   25.60
  -4  11  -2  280.27   19.20
  -4  11  -2  268.97   21.60
  -4  11  -2  267.77   22.10
   4 -11   2  240.78   18.70
   4 -11   2  261.87   21.70
   4 -11   2  276.77   27.70
  -5  11  -2  556.74   27.30
  -5  11  -2  535.25   30.00
  -5  11  -2  558.44   32.90
  -5  11  -2  505.95   26.80
   5 -11   2  550.24   35.10
   5 -11   2  594.04   30.40
   5 -11   2  535.55   27.40
   3  10  -2  158.88   19.80
   3  10  -2  197.68   20.00
   3  10  -2  157.58   17.20
   3  10  -2  120.19   17.80
  -3 -10   2  168.68   20.90
  -3 -10   2  167.38   20.30
  -3 -10   2  159.28   18.90
  -3 -10   2  135.99   18.00
   2  10  -2 1190.98   45.30
   2  10  -2 1190.98   49.70
   2  10  -2 1199.78   44.30
   2  10  -2 1236.78   45.30
  -2 -10   2 1303.67   49.50
  -2 -10   2 1169.28   45.30
  -2 -10   2 1156.78   47.10
  -2 -10   2 1127.79   45.60
   1  10  -2   42.40   13.20
   1  10  -2   40.60    9.90
   1  10  -2   37.40    9.10
  -1 -10   2   36.30   12.00
  -1 -10   2   39.30    4.50
  -1 -10   2   27.80   11.90
  -1 -10   2   60.49   13.10
  -1 -10   2    9.20    8.10
   0  10  -2    8.70    8.30
   0  10  -2   -6.40   11.70
   0  10  -2    0.30    7.00
   0 -10   2  -18.90   11.50
   0 -10   2  -11.40   10.10
   0 -10   2    4.20    4.50
   0 -10   2    0.50   10.50
  -1  10  -2  452.25   22.90
  -1  10  -2  552.34   28.10
  -1  10  -2  536.65   23.60
   1 -10   2  499.05   29.80
   1 -10   2  512.95   20.40
   1 -10   2  498.25   28.30
   1 -10   2  543.55   30.80
  -2  10  -2   25.50    9.80
  -2  10  -2   44.80    9.30
  -2  10  -2   28.00    8.30
   2 -10   2   42.50   11.90
   2 -10   2   33.60   13.20
   2 -10   2   37.90    7.50
   2 -10   2   11.20    9.40
   2 -10   2   38.30   13.10
  -3  10  -2  177.88   16.20
  -3  10  -2  165.68   16.50
  -3  10  -2  185.98   17.60
   3 -10   2  182.88   14.20
   3 -10   2  177.48   19.10
  -4  10  -2   17.70    9.90
  -4  10  -2   37.90   11.60
  -4  10  -2   37.20    9.60
   4 -10   2   32.50   10.80
   4 -10   2   38.40    9.60
   4 -10   2   28.40   23.70
  -5  10  -2   66.19   14.30
  -5  10  -2  106.79   13.90
  -5  10  -2   70.09   14.90
  -5  10  -2   63.99   11.90
   5 -10   2  100.99   17.80
   5 -10   2   70.29   11.30
   5 -10   2   89.19   13.70
  -6  10  -2    3.70   10.90
  -6  10  -2   12.30   11.30
  -6  10  -2    7.10   14.70
  -6  10  -2    3.40   14.70
   6 -10   2    0.20    7.30
   6 -10   2  -22.30   16.20
   6 -10   2    2.80   12.80
   6 -10   2  -20.00   10.40
   4   9  -2  400.36   28.50
   4   9  -2  443.46   25.30
   4   9  -2  447.76   26.70
   4   9  -2  457.55   26.90
  -4  -9   2  401.36   27.00
  -4  -9   2  436.76   28.00
  -4  -9   2  385.96   28.10
  -4  -9   2  442.36   27.00
   3   9  -2   12.70   10.20
   3   9  -2   -4.10    8.00
   3   9  -2   15.40   12.00
  -3  -9   2    0.70    9.50
  -3  -9   2  -18.50   11.00
  -3  -9   2   16.50   10.10
  -3  -9   2    9.60   11.40
  -3  -9   2  -11.60    8.10
   2   9  -2  304.77   18.30
   2   9  -2  296.27   19.20
   2   9  -2  282.77   22.40
   2   9  -2  320.17   19.70
  -2  -9   2  289.77   22.00
  -2  -9   2  291.17   22.10
  -2  -9   2  322.27   21.70
   1   9  -2  547.55   24.90
   1   9  -2  529.75   23.60
   1   9  -2  522.25   28.60
  -1  -9   2  569.04   27.50
  -1  -9   2  548.05   25.10
  -1  -9   2  551.54   18.60
  -1  -9   2  531.45   27.40
  -1  -9   2  545.25   28.00
   0   9  -2 2751.32   89.39
   0   9  -2 2657.53   83.59
   0   9  -2 2409.06   83.49
   0  -9   2 2424.76   87.19
   0  -9   2 2560.54   80.39
   0  -9   2 2569.54   86.49
   0  -9   2 2536.05   84.39
   0  -9   2 2604.14   87.89
  -1   9  -2  633.74   26.40
  -1   9  -2  673.33   29.70
  -1   9  -2  685.33   27.00
  -1   9  -2  628.04   31.10
   1  -9   2  674.93   29.80
   1  -9   2  645.94   33.80
   1  -9   2  670.33   24.10
   1  -9   2  667.63   28.10
   1  -9   2  599.74   32.00
  -2   9  -2  253.27   17.60
  -2   9  -2  232.28   16.30
  -2   9  -2  227.88   15.70
  -2   9  -2  228.18   17.10
   2  -9   2  262.97   20.90
   2  -9   2  261.67   21.80
   2  -9   2  212.28   18.20
   2  -9   2  250.37   19.90
   2  -9   2  255.37   13.70
  -3   9  -2 2963.30   95.49
  -3   9  -2 2911.11   96.09
  -3   9  -2 2930.41   96.49
  -3   9  -2 2861.11   95.99
   3  -9   2 2878.91   95.59
   3  -9   2 3054.49   97.19
   3  -9   2 2910.01   93.49
   3  -9   2 2874.31   98.29
  -4   9  -2    2.60    8.90
  -4   9  -2   17.50   10.80
  -4   9  -2   12.40    8.20
  -4   9  -2   12.60   10.00
   4  -9   2   -1.20   10.60
   4  -9   2    9.40    8.20
   4  -9   2   -3.10    8.50
   4  -9   2   -2.90    8.90
  -5   9  -2   96.19   13.40
  -5   9  -2  108.29   15.30
  -5   9  -2  120.89   12.90
   5  -9   2   85.59   11.10
   5  -9   2  108.89   26.60
   5  -9   2   86.69   12.50
  -6   9  -2  790.42   35.10
  -6   9  -2  915.71   39.60
  -6   9  -2  780.72   37.00
  -6   9  -2  828.92   40.10
   6  -9   2  805.52   33.90
   6  -9   2  797.32   39.60
   6  -9   2  734.73   35.40
  -7   9  -2  117.19   17.30
  -7   9  -2  109.19   15.20
  -7   9  -2  131.69   20.60
  -7   9  -2  114.09   15.00
   7  -9   2  127.59   17.90
   7  -9   2  121.09   19.40
   5   8  -2 1071.79   44.20
   5   8  -2 1058.49   45.70
  -5  -8   2 1085.59   43.90
  -5  -8   2  950.70   43.20
  -5  -8   2 1008.00   44.90
  -5  -8   2 1019.70   43.60
   4   8  -2  207.28   21.00
   4   8  -2  230.78   20.20
   4   8  -2  214.18   18.60
   4   8  -2  211.98   18.90
  -4  -8   2  223.78   20.70
  -4  -8   2  207.68   21.70
  -4  -8   2  195.48   21.50
  -4  -8   2  234.58   19.70
   3   8  -2  127.79   15.50
   3   8  -2   97.89   11.20
   3   8  -2  121.89   14.00
   3   8  -2  115.59   14.30
  -3  -8   2   96.49   12.60
  -3  -8   2  108.99   13.80
  -3  -8   2   95.79   12.00
  -3  -8   2  127.89   14.80
   2   8  -2  483.95   25.10
   2   8  -2  471.15   22.90
   2   8  -2  479.65   22.10
   2   8  -2  461.85   22.00
  -2  -8   2  510.55   23.40
  -2  -8   2  518.05   25.00
  -2  -8   2  523.45   24.60
  -2  -8   2  434.16   23.70
   1   8  -2  826.12   30.80
   1   8  -2  776.92   30.20
   1   8  -2  824.12   34.70
  -1  -8   2  783.72   32.70
  -1  -8   2  791.62   25.90
  -1  -8   2  809.62   31.30
  -1  -8   2  778.72   32.90
  -1  -8   2  786.52   32.80
   0   8  -2   93.99   10.60
   0   8  -2   73.49   13.00
   0   8  -2   87.29   11.00
   0  -8   2  133.59   16.00
   0  -8   2   90.89   11.90
   0  -8   2   67.89   10.60
   0  -8   2   98.69    7.60
  -1   8  -2  106.79   11.20
  -1   8  -2   96.89   13.30
  -1   8  -2   83.69   10.40
  -1   8  -2  101.79   11.20
   1  -8   2   60.89   12.10
   1  -8   2   89.49    8.50
   1  -8   2   97.09   10.70
   1  -8   2  101.19   12.40
   1  -8   2   77.19   13.20
  -2   8  -2    0.80    7.00
  -2   8  -2   -5.50    6.50
  -2   8  -2  -10.80    7.60
  -2   8  -2   -1.70    7.70
   2  -8   2    0.40    9.90
   2  -8   2   -1.10    8.80
   2  -8   2    6.60    8.40
   2  -8   2  -10.20    7.90
   2  -8   2   -3.40    5.10
  -3   8  -2   87.49   11.20
  -3   8  -2  102.99   10.70
  -3   8  -2  101.09   11.60
  -3   8  -2   86.29   10.90
   3  -8   2  107.89   13.40
   3  -8   2   98.29   10.60
   3  -8   2   88.09   13.00
   3  -8   2   86.29   11.30
  -4   8  -2  361.06   20.90
  -4   8  -2  320.47   18.60
  -4   8  -2  306.17   21.00
  -4   8  -2  319.37   20.30
   4  -8   2  366.36   19.70
   4  -8   2  352.56   23.10
   4  -8   2  334.97   17.70
   4  -8   2  377.56   20.60
  -5   8  -2  525.65   26.90
  -5   8  -2  555.24   25.60
  -5   8  -2  549.54   26.80
  -5   8  -2  523.15   28.00
   5  -8   2  532.05   23.90
   5  -8   2  472.65   24.40
   5  -8   2  535.55   26.00
  -6   8  -2  193.68   20.10
  -6   8  -2  220.18   22.10
  -6   8  -2  194.28   18.30
   6  -8   2  193.68   20.10
   6  -8   2  217.28   17.90
   6  -8   2  202.78   18.80
   6  -8   2  190.78   22.50
  -7   8  -2    0.40   15.50
  -7   8  -2  -14.20   13.70
  -7   8  -2    0.20   11.80
  -7   8  -2    3.30   12.40
   7  -8   2  -12.20    8.10
   7  -8   2   20.90   15.50
   7  -8   2    8.20   10.80
   7  -8   2    8.00   13.00
   5   7  -2   75.99   15.40
   5   7  -2   86.69   13.50
   5   7  -2   81.89   12.90
   5   7  -2   78.89   13.00
  -5  -7   2   73.19   14.00
  -5  -7   2   86.79   13.50
  -5  -7   2   96.19   14.70
  -5  -7   2   70.49   13.20
   4   7  -2   36.60   10.50
   4   7  -2   33.30    8.90
   4   7  -2   54.09   12.20
   4   7  -2   36.30    9.70
  -4  -7   2   27.40   10.50
  -4  -7   2   23.70   10.50
  -4  -7   2   31.50   11.60
  -4  -7   2   38.00   10.10
   3   7  -2 2126.29   71.99
   3   7  -2 2053.29   69.89
   3   7  -2 2107.69   70.69
   3   7  -2 2163.28   69.39
  -3  -7   2 2095.79   71.39
  -3  -7   2 2044.60   70.89
  -3  -7   2 2177.78   70.69
  -3  -7   2 2020.70   71.49
   2   7  -2   28.10    7.00
   2   7  -2   26.10    9.40
   2   7  -2   33.20    7.20
   2   7  -2   17.90    7.00
  -2  -7   2   24.30    7.80
  -2  -7   2   22.20    8.80
  -2  -7   2   32.20    8.20
  -2  -7   2   17.10    8.50
   1   7  -2  203.88   13.40
   1   7  -2  227.78   16.40
   1   7  -2  211.98   13.20
  -1  -7   2  214.78   15.70
  -1  -7   2  232.28   15.50
  -1  -7   2  226.18   15.70
  -1  -7   2  196.88   13.90
  -1  -7   2  216.98    8.80
   0   7  -2 3703.53  115.99
   0   7  -2 3822.42  116.39
   0   7  -2 3484.25  119.59
   0  -7   2 3573.74  117.29
   0  -7   2 3656.13  118.69
   0  -7   2 3735.73  116.89
   0  -7   2 3769.42  118.79
   0  -7   2 3618.84  113.59
  -1   7  -2  998.90   38.90
  -1   7  -2 1107.29   35.70
  -1   7  -2 1005.40   35.20
  -1   7  -2 1012.30   35.70
   1  -7   2  808.12   38.00
   1  -7   2  807.62   38.60
   1  -7   2  997.00   32.90
   1  -7   2 1033.80   36.80
   1  -7   2 1032.20   37.10
  -2   7  -2  628.24   26.70
  -2   7  -2  624.54   27.10
  -2   7  -2  664.63   27.30
  -2   7  -2  718.73   26.90
   2  -7   2  664.43   24.20
   2  -7   2  708.83   28.60
   2  -7   2  668.63   28.20
   2  -7   2  683.03   29.40
   2  -7   2  661.43   28.90
  -3   7  -2  217.88   14.40
  -3   7  -2  194.38   15.30
  -3   7  -2  189.38   15.40
  -3   7  -2  236.38   15.30
   3  -7   2  196.28   14.80
   3  -7   2  215.88   12.50
   3  -7   2  196.68   17.00
   3  -7   2  215.18   15.80
  -4   7  -2 1774.02   61.69
  -4   7  -2 1706.93   59.49
  -4   7  -2 1697.23   60.89
  -4   7  -2 1828.62   60.29
   4  -7   2 1858.81   60.79
   4  -7   2 1763.82   59.49
   4  -7   2 1720.43   61.59
   4  -7   2 1720.63   58.19
  -5   7  -2  252.47   18.60
  -5   7  -2  221.68   19.70
  -5   7  -2  213.38   16.40
  -5   7  -2  222.08   18.30
   5  -7   2  258.57   15.90
   5  -7   2  266.07   18.50
   5  -7   2  237.08   16.70
   5  -7   2  202.58   18.70
  -6   7  -2   33.60   11.50
  -6   7  -2   48.50   10.70
  -6   7  -2   40.40   13.10
  -6   7  -2   51.19   11.20
   6  -7   2   26.10   10.60
   6  -7   2   40.10    9.50
   6  -7   2   41.40   10.90
  -7   7  -2  146.59   18.70
  -7   7  -2  175.98   21.80
  -7   7  -2  136.09   16.00
  -7   7  -2  156.08   17.00
   7  -7   2  136.19   13.60
   7  -7   2  145.89   17.20
   7  -7   2  151.18   15.50
   7  -7   2  101.69   15.80
   6   6  -2  219.68   21.40
   6   6  -2  262.37   23.30
   6   6  -2  213.68   21.90
   6   6  -2  248.08   24.70
  -6  -6   2  219.58   23.80
  -6  -6   2  216.08   24.30
  -6  -6   2  212.68   24.70
  -6  -6   2  234.08   23.00
   5   6  -2  123.09   14.90
   5   6  -2  165.98   16.70
   5   6  -2  165.48   17.20
   5   6  -2  163.18   18.00
  -5  -6   2  157.08   19.70
  -5  -6   2  135.49   15.00
  -5  -6   2  166.58   16.00
  -5  -6   2  148.19   15.10
   4   6  -2  187.78   15.40
   4   6  -2  164.88   15.40
   4   6  -2  211.58   14.90
   4   6  -2  210.18   18.10
  -4  -6   2  175.08   17.80
  -4  -6   2  193.18   16.40
  -4  -6   2  187.88   16.60
   3   6  -2   64.49    7.80
   3   6  -2   79.19   10.50
   3   6  -2   79.89    9.30
   3   6  -2   75.49    9.50
  -3  -6   2   84.19    9.70
  -3  -6   2   88.69   10.80
  -3  -6   2   79.39    9.30
   2   6  -2 1022.20   36.40
   2   6  -2 1017.80   35.30
   2   6  -2 1056.79   37.90
   2   6  -2 1027.70   36.20
  -2  -6   2 1042.40   37.10
  -2  -6   2  980.30   36.80
  -2  -6   2 1009.60   36.80
  -2  -6   2 1018.30   37.30
   1   6  -2  386.76   17.40
   1   6  -2  410.76   19.60
   1   6  -2  413.16   17.90
  -1  -6   2  413.56   18.90
  -1  -6   2  388.66   18.20
  -1  -6   2  429.26   19.20
  -1  -6   2  403.56   18.30
   0   6  -2   -0.40    7.70
   0   6  -2   -2.10    4.80
   0   6  -2   -0.40    4.50
   0  -6   2    0.20    6.80
   0  -6   2    2.00    5.70
   0  -6   2    6.60    6.50
   0  -6   2    4.50    5.40
  -1   6  -2  494.15   24.00
  -1   6  -2  496.65   20.80
  -1   6  -2  564.84   21.30
  -1   6  -2  518.35   20.60
   1  -6   2  567.14   22.20
   1  -6   2  446.36   24.10
   1  -6   2  430.26   23.60
   1  -6   2  529.55   22.50
  -2   6  -2 2806.22   87.59
  -2   6  -2 2861.41   88.59
  -2   6  -2 2747.72   88.69
  -2   6  -2 2499.55   88.19
   2  -6   2 2739.33   89.29
   2  -6   2 2524.35   89.29
   2  -6   2 2762.62   88.59
   2  -6   2 2915.21   89.19
  -3   6  -2    2.70    7.20
  -3   6  -2   -0.10    6.00
  -3   6  -2   -7.20    6.40
  -3   6  -2    0.80    5.80
   3  -6   2    4.60    4.80
   3  -6   2   -1.50    6.80
   3  -6   2    2.00    7.60
   3  -6   2    3.90    6.10
  -4   6  -2  135.69   13.60
  -4   6  -2  151.98   12.20
  -4   6  -2  155.68   13.60
  -4   6  -2  150.48   15.20
   4  -6   2  153.48   13.20
   4  -6   2  140.49   14.10
   4  -6   2  137.69   14.00
   4  -6   2  146.89   11.50
  -5   6  -2 1508.65   53.19
  -5   6  -2 1560.04   53.49
  -5   6  -2 1579.64   53.99
  -5   6  -2 1414.06   53.79
   5  -6   2 1481.65   53.99
   5  -6   2 1580.34   54.09
   5  -6   2 1526.05   52.89
   5  -6   2 1536.25   51.59
  -6   6  -2  619.44   28.90
  -6   6  -2  664.23   30.90
  -6   6  -2  616.44   29.20
   6  -6   2  617.04   28.70
   6  -6   2  626.94   28.40
   6  -6   2  632.34   26.60
  -7   6  -2  406.16   25.80
  -7   6  -2  409.86   25.90
  -7   6  -2  402.06   25.00
  -7   6  -2  379.76   26.20
   7  -6   2  421.16   24.60
   7  -6   2  409.36   30.40
   7  -6   2  402.56   22.10
   7  -6   2  395.06   25.30
  -8   6  -2  125.59   17.90
  -8   6  -2  135.09   19.50
  -8   6  -2  128.89   16.90
  -8   6  -2  127.99   17.90
   8  -6   2  153.88   18.30
   8  -6   2  175.08   21.20
   8  -6   2  164.88   20.00
   8  -6   2  172.58   15.70
   6   5  -2  688.43   33.90
   6   5  -2  705.63   34.70
   6   5  -2  706.03   32.90
  -6  -5   2  665.23   33.20
  -6  -5   2  678.73   33.70
  -6  -5   2  677.03   32.80
  -6  -5   2  691.83   34.00
   5   5  -2  536.05   24.40
   5   5  -2  565.74   26.60
   5   5  -2  538.25   27.50
   5   5  -2  554.44   26.90
  -5  -5   2  550.04   26.80
  -5  -5   2  579.04   27.10
  -5  -5   2  547.15   26.70
  -5  -5   2  554.04   26.70
   4   5  -2  209.38   15.30
   4   5  -2  192.88   16.10
   4   5  -2  210.48   16.60
   4   5  -2  191.18   13.10
  -4  -5   2  190.18   15.40
  -4  -5   2  216.48   15.60
  -4  -5   2  177.98   14.70
  -4  -5   2  203.98   15.40
   3   5  -2  510.05   22.60
   3   5  -2  502.35   21.20
   3   5  -2  481.95   21.00
   3   5  -2  495.75   19.50
  -3  -5   2  495.55   21.50
  -3  -5   2  476.75   21.50
  -3  -5   2  480.05   21.30
  -3  -5   2  472.85   21.20
   2   5  -2 3160.68  100.99
   2   5  -2 3294.97  101.59
   2   5  -2 3331.97  102.29
   2   5  -2 3230.38  100.09
  -2  -5   2 3131.49  101.29
  -2  -5   2 3104.29  101.59
  -2  -5   2 3071.89  101.39
   1   5  -2   84.89    8.80
   1   5  -2   74.09    8.00
   1   5  -2   91.19    8.40
  -1  -5   2   94.49    9.40
  -1  -5   2   79.79    9.10
  -1  -5   2   81.19    8.00
  -1  -5   2   75.49    9.30
   0   5  -2  420.06   17.10
   0   5  -2  429.46   17.20
   0   5  -2  400.06   20.00
   0  -5   2  444.36   18.90
   0  -5   2  414.66   17.30
   0  -5   2  409.26   18.80
   0  -5   2  404.46   17.80
  -1   5  -2 2367.26   84.19
  -1   5  -2 2720.43   83.09
  -1   5  -2 2634.34   82.99
  -1   5  -2 2544.35   81.89
   1  -5   2 2423.26   84.09
   1  -5   2 2616.54   84.09
   1  -5   2 2573.04   84.69
   1  -5   2 2780.52   83.09
  -2   5  -2  174.28   10.50
  -2   5  -2  171.88   11.50
  -2   5  -2  159.48   11.70
  -2   5  -2  187.98   12.50
   2  -5   2  137.19   12.60
   2  -5   2  167.98   12.00
   2  -5   2  167.88   12.60
  -3   5  -2 2530.95   85.39
  -3   5  -2 2736.13   85.29
  -3   5  -2 2686.53   84.39
  -3   5  -2 2619.54   84.79
   3  -5   2 2744.33   85.39
   3  -5   2 2613.64   84.59
   3  -5   2 2527.55   85.19
  -4   5  -2   -5.90    6.20
  -4   5  -2   -0.80    6.50
  -4   5  -2    2.60    7.40
  -4   5  -2    5.70    6.10
   4  -5   2    7.40    6.60
   4  -5   2    1.90    5.40
   4  -5   2    6.20    6.20
   4  -5   2    4.90    6.40
  -5   5  -2  187.38   15.50
  -5   5  -2  193.08   15.30
  -5   5  -2  191.68   14.40
   5  -5   2  178.78   16.50
   5  -5   2  201.98   15.60
   5  -5   2  189.68   13.20
   5  -5   2  208.48   15.70
  -6   5  -2  665.63   30.10
  -6   5  -2  709.33   30.50
  -6   5  -2  718.03   30.70
   6  -5   2  691.53   31.10
   6  -5   2  664.03   30.00
   6  -5   2  655.13   27.30
  -7   5  -2  442.36   26.60
  -7   5  -2  465.75   28.20
  -7   5  -2  463.75   25.40
  -7   5  -2  492.75   27.00
   7  -5   2  432.56   25.80
   7  -5   2  447.56   22.50
   7  -5   2  470.85   27.50
   7  -5   2  437.56   26.50
  -8   5  -2   23.00   16.40
  -8   5  -2   20.50   12.80
  -8   5  -2   12.70   15.00
  -8   5  -2    1.50   14.60
   8  -5   2   -5.10   12.20
   8  -5   2   21.70   11.00
   8  -5   2   -0.80   14.20
   8  -5   2    0.40   13.80
   7   4  -2   58.09   14.50
   7   4  -2  108.89   16.30
   7   4  -2   85.39   16.50
  -7  -4   2   71.69   15.40
  -7  -4   2   76.59   16.50
  -7  -4   2   52.79   15.50
  -7  -4   2   41.20   14.80
   6   4  -2   77.89   12.60
   6   4  -2   87.79   14.20
   6   4  -2   62.29   13.30
  -6  -4   2   71.09   12.70
  -6  -4   2   86.59   13.60
  -6  -4   2   66.19   12.70
  -6  -4   2   99.89   14.20
   5   4  -2  419.16   22.60
   5   4  -2  456.95   23.80
   5   4  -2  447.76   23.90
   5   4  -2  437.56   20.20
  -5  -4   2  481.45   23.40
  -5  -4   2  463.55   24.10
  -5  -4   2  428.76   23.50
  -5  -4   2  394.96   22.70
   4   4  -2  485.75   22.50
   4   4  -2  510.45   20.70
   4   4  -2  524.85   23.20
   4   4  -2  538.95   23.70
  -4  -4   2  522.55   23.80
  -4  -4   2  509.65   22.90
  -4  -4   2  522.55   23.60
  -4  -4   2  537.55   23.20
   3   4  -2   18.20    6.10
   3   4  -2   19.50    5.90
   3   4  -2   16.20    6.30
   3   4  -2   18.90    4.50
  -3  -4   2   26.40    6.40
  -3  -4   2   15.90    6.20
  -3  -4   2   24.20    7.00
  -3  -4   2   17.80    6.30
  -3  -4   2   24.60    2.20
   2   4  -2  101.69    9.20
   2   4  -2  110.09    9.70
   2   4  -2  109.59    7.20
   2   4  -2  100.09    8.60
  -2  -4   2  106.49    4.80
  -2  -4   2  128.69    9.40
  -2  -4   2  122.79    9.10
  -2  -4   2  106.19    8.70
   1   4  -2 1398.86   43.00
   1   4  -2 1260.27   43.50
   1   4  -2 1248.48   42.90
  -1  -4   2 1350.06   43.50
  -1  -4   2 1299.47   43.10
  -1  -4   2 1254.07   43.10
   0   4  -2 1676.53   52.29
   0   4  -2 1619.54   54.09
   0   4  -2 1603.14   52.09
   0  -4   2 1559.14   51.89
   0  -4   2 1632.14   52.89
   0  -4   2 1648.54   52.89
   0  -4   2 1498.05   52.79
  -1   4  -2   18.90    5.70
  -1   4  -2   18.20    3.60
  -1   4  -2   18.50    5.10
  -1   4  -2   15.90    5.10
   1  -4   2   28.90    5.10
   1  -4   2   22.10    6.80
   1  -4   2   29.70    6.40
   1  -4   2   13.60    5.90
  -2   4  -2  478.95   20.20
  -2   4  -2  531.85   20.00
  -2   4  -2  503.45   19.60
  -2   4  -2  500.15   18.40
   2  -4   2  499.35   19.60
   2  -4   2  468.35   19.40
   2  -4   2  462.65   19.70
  -3   4  -2 3474.35  103.79
  -3   4  -2 3188.48  103.89
  -3   4  -2 3227.98  103.59
  -3   4  -2 3191.48  102.79
   3  -4   2 3192.68  103.69
   3  -4   2 3372.66  103.49
   3  -4   2 3247.18  103.79
  -4   4  -2   92.59   10.80
  -4   4  -2   84.99    9.80
  -4   4  -2   96.89   11.50
   4  -4   2   85.99   10.30
   4  -4   2   89.09   10.50
   4  -4   2   91.99   11.10
  -5   4  -2  279.37   16.90
  -5   4  -2  255.07   16.40
  -5   4  -2  266.87   16.10
   5  -4   2  267.07   16.60
   5  -4   2  253.47   14.10
   5  -4   2  261.47   16.60
   5  -4   2  249.88   17.00
  -6   4  -2  990.70   38.60
  -6   4  -2 1042.80   39.50
  -6   4  -2  980.50   39.00
  -6   4  -2 1000.60   40.00
   6  -4   2 1007.60   36.20
   6  -4   2 1001.40   39.10
   6  -4   2 1011.20   39.60
   6  -4   2  977.70   39.80
  -7   4  -2  210.48   20.70
  -7   4  -2  210.98   19.60
  -7   4  -2  214.58   20.60
  -7   4  -2  200.38   22.10
   7  -4   2  234.38   22.00
   7  -4   2  236.18   21.90
   7  -4   2  233.58   16.70
   7  -4   2  251.87   20.60
  -8   4  -2  462.75   25.60
  -8   4  -2  418.36   30.10
  -8   4  -2  443.66   29.10
  -8   4  -2  421.66   28.50
  -8   4  -2  497.15   30.20
   8  -4   2  478.25   28.60
   8  -4   2  462.85   30.60
   8  -4   2  458.15   24.10
   8  -4   2  380.36   29.20
   7   3  -2   -7.00   12.50
   7   3  -2  -18.90   12.90
  -7  -3   2    8.50   12.50
  -7  -3   2   17.90   12.40
  -7  -3   2    5.10   12.10
  -7  -3   2   17.90   12.30
   6   3  -2  217.98   20.70
   6   3  -2  230.38   18.50
   6   3  -2  211.98   19.20
  -6  -3   2  195.48   18.10
  -6  -3   2  241.18   20.30
  -6  -3   2  225.48   19.30
  -6  -3   2  195.68   18.10
   5   3  -2 1549.34   53.59
   5   3  -2 1491.55   53.59
   5   3  -2 1548.84   54.49
  -5  -3   2 1569.84   54.09
  -5  -3   2 1580.94   53.89
  -5  -3   2 1345.57   53.09
  -5  -3   2 1620.54   53.89
   4   3  -2  395.16   18.70
   4   3  -2  393.06   19.40
   4   3  -2  405.66   16.40
   4   3  -2  399.76   19.80
  -4  -3   2  418.16   19.20
  -4  -3   2  425.06   19.80
  -4  -3   2  373.36   18.70
  -4  -3   2  384.56   19.00
   3   3  -2 2124.99   68.19
   3   3  -2 2174.08   66.19
   3   3  -2 2105.89   67.89
   3   3  -2 2114.89   68.29
  -3  -3   2 2132.49   68.19
  -3  -3   2 1990.00   67.69
  -3  -3   2 2057.99   64.69
  -3  -3   2 2098.09   67.89
  -3  -3   2 2039.90   68.09
   2   3  -2   15.40    4.40
   2   3  -2   17.80    3.00
   2   3  -2   22.60    4.80
   2   3  -2   19.80    5.20
  -2  -3   2   21.80    2.30
  -2  -3   2   13.30    4.40
  -2  -3   2   16.40    4.50
  -2  -3   2   14.50    4.80
   1   3  -2 3173.18   97.09
   1   3  -2 3040.50   96.79
   1   3  -2 2999.50   97.19
  -1  -3   2 3148.28   96.99
  -1  -3   2 3069.39   96.99
  -1  -3   2 3179.98   97.29
   0   3  -2 3683.53  113.39
   0   3  -2 3461.15  111.99
   0   3  -2 3683.03  112.19
   0  -3   2 3579.14  112.49
   0  -3   2 3624.94  112.79
   0  -3   2 3631.64  112.49
   0  -3   2 3510.55  111.39
  -1   3  -2  328.67   14.60
  -1   3  -2  364.26   15.10
  -1   3  -2  351.96   12.70
  -1   3  -2  357.16   11.60
  -1   3  -2  352.96   14.60
   1  -3   2  344.87   14.90
   1  -3   2  363.86   13.50
   1  -3   2  314.47   14.60
   1  -3   2  348.77   15.20
  -2   3  -2  250.97   11.60
  -2   3  -2  245.28   12.20
  -2   3  -2  231.28   11.60
  -2   3  -2  247.78   10.60
   2  -3   2  252.47   11.60
   2  -3   2  254.57   12.00
   2  -3   2  275.07   12.50
   2  -3   2  256.07    8.90
  -3   3  -2  151.98   10.70
  -3   3  -2  158.08   10.50
  -3   3  -2  182.98   10.90
   3  -3   2  160.68   10.30
   3  -3   2  146.39   10.30
   3  -3   2  163.08    9.90
  -4   3  -2 2046.90   66.99
  -4   3  -2 1975.20   66.39
  -4   3  -2 2007.60   66.59
   4  -3   2 2011.40   66.79
   4  -3   2 2029.10   66.49
   4  -3   2 2091.89   66.89
  -5   3  -2   39.30    8.10
  -5   3  -2   42.30    8.40
  -5   3  -2   41.30    9.10
   5  -3   2   41.00    8.80
   5  -3   2   38.00    8.90
   5  -3   2   43.00    8.60
   5  -3   2   47.10    6.70
  -6   3  -2    0.80    8.90
  -6   3  -2    8.10    9.20
  -6   3  -2   -1.30    9.60
  -6   3  -2   -0.10    8.50
   6  -3   2    5.80    8.70
   6  -3   2    2.20    6.70
   6  -3   2    6.60   10.50
   6  -3   2    6.40    9.10
  -7   3  -2   86.09   13.80
  -7   3  -2   70.29   10.70
  -7   3  -2   82.59   13.40
  -7   3  -2   76.59   14.80
  -7   3  -2   57.69   12.90
   7  -3   2   58.99   12.80
   7  -3   2   70.49   14.90
   7  -3   2   71.89    9.70
   7  -3   2   47.80   11.90
  -8   3  -2  170.18   18.80
  -8   3  -2  163.38   19.20
  -8   3  -2  125.09   17.50
  -8   3  -2  124.19   14.10
  -8   3  -2  135.39   18.90
   8  -3   2  133.19   16.80
   8  -3   2  178.68   20.20
   8  -3   2  166.38   17.30
   8  -3   2  110.99   18.20
   8   2  -2  208.48   27.20
   8   2  -2  203.28   26.00
  -8  -2   2  216.48   24.40
  -8  -2   2  237.98   26.30
  -8  -2   2  179.78   23.20
  -8  -2   2  218.28   26.40
   7   2  -2  372.56   24.50
   7   2  -2  333.57   23.90
  -7  -2   2  360.86   25.50
  -7  -2   2  345.37   24.20
  -7  -2   2  381.26   25.00
  -7  -2   2  363.46   25.70
   6   2  -2   66.39   11.30
   6   2  -2   84.79   12.90
   6   2  -2   79.59   11.60
   6   2  -2   81.79    7.50
  -6  -2   2   72.99   11.30
  -6  -2   2   81.59   11.90
  -6  -2   2  100.49   13.00
  -6  -2   2  108.79    9.00
  -6  -2   2   97.69   12.10
   5   2  -2  177.98   15.60
   5   2  -2  171.38   15.10
   5   2  -2  174.78   15.70
   5   2  -2  173.58    9.90
  -5  -2   2  188.48   15.70
  -5  -2   2  159.58   14.70
  -5  -2   2  183.58    9.50
  -5  -2   2  168.08   14.20
  -5  -2   2  163.58   14.70
   4   2  -2  260.97   14.20
   4   2  -2  230.28   13.90
   4   2  -2  243.18   14.00
   4   2  -2  237.78   10.50
  -4  -2   2  229.28   13.90
  -4  -2   2  235.78   14.60
  -4  -2   2  244.28   14.80
  -4  -2   2  247.98   10.10
  -4  -2   2  257.07   14.50
   3   2  -2  365.06   16.20
   3   2  -2  371.26   13.90
   3   2  -2  387.56   16.30
   3   2  -2  390.16   16.40
  -3  -2   2  400.76   16.50
  -3  -2   2  396.26   16.30
  -3  -2   2  381.36   16.40
  -3  -2   2  374.56   16.30
  -3  -2   2  390.36   13.50
   2   2  -2  287.27   12.70
   2   2  -2  317.27   12.60
   2   2  -2  269.57   12.20
   2   2  -2  297.47   10.40
  -2  -2   2  288.47   12.40
  -2  -2   2  292.67   12.40
  -2  -2   2  272.77   12.20
  -2  -2   2  293.57   10.30
  -2  -2   2  279.67   12.40
   1   2  -2  182.18    8.40
   1   2  -2  185.08    8.40
   1   2  -2  197.88    8.80
  -1  -2   2  187.28    8.60
  -1  -2   2  190.98    8.50
  -1  -2   2  193.58    9.00
   0   2  -2   10.40    3.30
   0   2  -2    7.90    4.00
   0   2  -2   15.20    3.70
   0  -2   2   21.00    4.10
   0  -2   2   12.10    3.40
   0  -2   2   11.70    3.80
  -1   2  -2 2923.91   91.79
  -1   2  -2 2971.80   91.69
  -1   2  -2 2847.11   90.19
  -1   2  -2 2921.11   91.49
   1  -2   2 3056.49   91.59
   1  -2   2 2997.40   91.69
   1  -2   2 2897.21   91.69
   1  -2   2 2857.61   90.19
  -2   2  -2  192.78    9.60
  -2   2  -2  185.58    9.40
  -2   2  -2  191.68    9.90
   2  -2   2  198.28    9.70
   2  -2   2  199.28    9.70
   2  -2   2  198.18    9.80
  -3   2  -2    9.90    4.80
  -3   2  -2   10.60    5.20
  -3   2  -2    3.50    4.40
   3  -2   2    9.00    4.90
   3  -2   2    5.60    4.70
   3  -2   2    5.80    4.60
  -4   2  -2 1284.07   43.80
  -4   2  -2 1269.87   43.90
  -4   2  -2 1228.98   43.90
   4  -2   2 1281.57   44.10
   4  -2   2 1295.37   43.80
   4  -2   2 1304.07   44.40
  -5   2  -2  213.98   15.00
  -5   2  -2  212.38   14.70
  -5   2  -2  205.58   15.10
  -5   2  -2  209.58   15.70
   5  -2   2  201.18   16.20
   5  -2   2  214.48   12.20
   5  -2   2  202.88   15.30
   5  -2   2  202.68   15.50
  -6   2  -2  427.76   22.80
  -6   2  -2  466.35   23.30
  -6   2  -2  447.26   23.50
  -6   2  -2  447.76   21.00
  -6   2  -2  433.76   23.10
   6  -2   2  445.66   24.60
   6  -2   2  430.76   23.10
   6  -2   2  452.55   23.90
   6  -2   2  431.46   19.30
  -7   2  -2  267.87   21.00
  -7   2  -2  263.27   21.10
  -7   2  -2  265.67   21.60
  -7   2  -2  299.77   22.30
  -7   2  -2  248.48   18.80
   7  -2   2  252.27   21.50
   7  -2   2  255.27   23.10
   7  -2   2  220.28   22.20
   7  -2   2  265.77   16.60
  -8   2  -2  -12.10    9.90
  -8   2  -2   16.10   14.10
  -8   2  -2  -19.60   14.70
  -8   2  -2   -5.40   15.20
  -8   2  -2   -6.20   12.50
   8  -2   2   -3.70   13.60
   8  -2   2    1.30   13.90
   8  -2   2  -11.70   12.90
   8  -2   2    7.50    9.10
   8   1  -2   13.10   14.90
   8   1  -2   -1.50   13.60
   8   1  -2   16.90    8.20
  -8  -1   2    8.90   13.40
  -8  -1   2   17.90   14.00
  -8  -1   2   16.20   15.30
  -8  -1   2    8.40    6.30
  -8  -1   2   10.20   13.50
   7   1  -2  769.92   34.60
   7   1  -2  698.23   33.10
   7   1  -2  703.23   27.60
  -7  -1   2  735.63   33.40
  -7  -1   2  741.23   26.10
  -7  -1   2  745.83   33.20
  -7  -1   2  683.23   34.10
  -7  -1   2  717.83   32.90
   6   1  -2  164.98   16.60
   6   1  -2  191.98   16.50
   6   1  -2  186.48   16.10
   6   1  -2  180.68   11.90
  -6  -1   2  186.18   10.50
  -6  -1   2  185.58   16.30
  -6  -1   2  206.58   16.50
  -6  -1   2  192.48   16.10
  -6  -1   2  185.78   16.90
   5   1  -2  668.93   24.10
   5   1  -2  652.73   27.20
   5   1  -2  704.13   27.60
   5   1  -2  670.23   27.40
   5   1  -2  707.93   27.80
  -5  -1   2  661.83   23.10
  -5  -1   2  696.53   27.50
  -5  -1   2  646.54   27.40
  -5  -1   2  663.83   27.40
  -5  -1   2  679.13   27.50
   4   1  -2  742.13   28.60
   4   1  -2  808.82   28.80
   4   1  -2  792.32   28.90
   4   1  -2  767.22   28.60
   4   1  -2  771.22   26.20
  -4  -1   2  770.22   28.80
  -4  -1   2  767.42   28.50
  -4  -1   2  796.52   28.80
  -4  -1   2  776.62   28.70
  -4  -1   2  779.32   25.40
  -4  -1   2  738.23   25.90
   3   1  -2  324.77   12.40
   3   1  -2  323.67   14.50
   3   1  -2  346.87   14.40
   3   1  -2  315.97   14.20
  -3  -1   2  328.77   12.20
  -3  -1   2  333.17   14.10
  -3  -1   2  339.97   14.20
  -3  -1   2  311.17   14.00
  -3  -1   2  335.37   11.40
  -3  -1   2  325.07   14.60
   2   1  -2 3048.69   94.39
   2   1  -2 3073.19   94.59
   2   1  -2 2958.20   92.59
   2   1  -2 2993.00   94.49
  -2  -1   2 3054.29   93.29
  -2  -1   2 3012.40   94.39
  -2  -1   2 3057.69   94.59
  -2  -1   2 2964.40   94.29
  -2  -1   2 3082.29   94.49
   1   1  -2   45.20    4.00
   1   1  -2   47.20    3.80
   1   1  -2   49.10    4.00
  -1  -1   2   47.40    4.20
  -1  -1   2   49.80    4.00
  -1  -1   2   47.30    4.30
   0   1  -2   26.20    3.70
   0   1  -2   27.70    3.40
   0   1  -2   32.90    3.60
   0  -1   2   32.00    3.00
   0  -1   2   24.50    3.80
   0  -1   2   25.60    3.20
  -1   1  -2 1630.04   49.80
  -1   1  -2 1594.84   49.60
  -1   1  -2 1574.84   49.70
   1  -1   2 1530.45   49.70
   1  -1   2 1585.64   49.60
   1  -1   2 1529.75   49.60
  -2   1  -2 1557.34   49.30
  -2   1  -2 1527.15   49.00
  -2   1  -2 1526.85   49.20
   2  -1   2 1554.34   49.10
   2  -1   2 1483.15   49.00
   2  -1   2 1523.15   49.30
  -3   1  -2   92.09    7.90
  -3   1  -2   96.59    8.10
  -3   1  -2   95.89    8.30
   3  -1   2   89.29    8.90
   3  -1   2   85.99    8.40
   3  -1   2   96.39    8.70
  -4   1  -2  420.26   17.20
  -4   1  -2  419.26   18.40
  -4   1  -2  391.96   17.90
  -4   1  -2  422.76   18.90
  -4   1  -2  393.96   18.10
   4  -1   2  411.46   18.40
   4  -1   2  390.96   18.60
   4  -1   2  398.16   18.90
  -5   1  -2  337.87   16.40
  -5   1  -2  267.97   16.90
  -5   1  -2  333.47   18.40
  -5   1  -2  332.47   17.80
  -5   1  -2  324.27   17.70
   5  -1   2  312.17   18.30
   5  -1   2  321.27   14.30
   5  -1   2  289.77   18.60
   5  -1   2  293.57   18.00
  -6   1  -2  324.87   21.00
  -6   1  -2  343.57   21.50
  -6   1  -2  310.57   20.00
  -6   1  -2  306.77   21.30
  -6   1  -2  334.27   18.00
   6  -1   2  342.87   21.10
   6  -1   2  337.37   16.10
   6  -1   2  332.97   21.90
   6  -1   2  324.67   21.20
  -7   1  -2  114.39   14.40
  -7   1  -2  114.59   14.70
  -7   1  -2  126.89   14.90
  -7   1  -2  126.79   12.70
  -7   1  -2  109.79   14.70
   7  -1   2  107.99   15.60
   7  -1   2  117.59   14.50
   7  -1   2   79.69   13.90
   7  -1   2  121.19   13.40
  -8   1  -2   83.79   15.90
  -8   1  -2   48.00   11.80
  -8   1  -2   51.39   15.60
  -8   1  -2   37.50   15.60
  -8   1  -2   24.80   14.60
   8  -1   2   58.99   16.10
   8  -1   2   41.00   15.20
   8  -1   2   70.89   10.70
   8  -1   2   68.69   16.50
   8   0  -2  -13.70   13.30
   8   0  -2   30.90   14.40
   8   0  -2   12.80    8.60
  -8   0   2    2.80    6.10
  -8   0   2   -0.10   12.30
  -8   0   2   24.90   15.00
  -8   0   2    4.60   13.40
  -8   0   2    4.10   12.80
   7   0  -2  499.35   26.10
   7   0  -2  502.65   21.90
   7   0  -2  480.75   27.40
  -7   0   2  465.55   26.20
  -7   0   2  482.55   27.50
  -7   0   2  509.35   27.50
  -7   0   2  476.85   26.20
  -7   0   2  486.05   19.10
   6   0  -2  360.86   20.60
   6   0  -2  392.96   21.40
   6   0  -2  333.47   16.30
  -6   0   2  296.67   20.10
  -6   0   2  352.06   20.10
  -6   0   2  346.47   20.20
  -6   0   2  369.16   14.70
  -6   0   2  364.26   21.00
   5   0  -2   42.40    5.80
   5   0  -2   40.60    7.70
   5   0  -2   39.00    8.10
   5   0  -2   36.90    7.60
  -5   0   2   39.70    8.10
  -5   0   2   34.60    8.40
  -5   0   2   40.80    4.60
  -5   0   2   40.00    7.80
  -5   0   2   37.10    8.20
   4   0  -2  824.72   31.30
   4   0  -2  877.71   29.60
   4   0  -2  863.91   31.50
   4   0  -2  866.81   31.40
   4   0  -2  887.01   31.30
  -4   0   2  880.21   31.30
  -4   0   2  885.41   31.40
  -4   0   2  897.71   28.50
  -4   0   2  870.11   29.50
  -4   0   2  895.21   31.60
  -4   0   2  915.01   31.40
   3   0  -2   78.29    7.30
   3   0  -2   66.29    5.90
   3   0  -2   84.69    7.80
   3   0  -2   78.29    7.40
   3   0  -2   64.29    7.20
  -3   0   2   66.09    7.40
  -3   0   2   75.99    7.20
  -3   0   2   77.49    4.30
  -3   0   2   68.49    6.60
  -3   0   2   68.19    7.10
  -3   0   2   69.69    5.70
   2   0  -2 1128.89   35.70
   2   0  -2 1122.19   36.10
   2   0  -2 1102.29   36.20
   2   0  -2 1126.89   36.10
  -2   0   2 1058.99   36.10
  -2   0   2 1124.59   36.10
  -2   0   2 1103.89   36.10
  -2   0   2 1116.19   35.60
  -2   0   2 1159.18   36.10
   1   0  -2  753.22   23.70
   1   0  -2  720.03   24.10
   1   0  -2  754.42   23.80
   1   0  -2  754.22   23.80
  -1   0   2  736.13   23.80
  -1   0   2  758.72   23.80
  -1   0   2  733.83   23.00
  -1   0   2  761.22   23.70
  -1   0   2  716.03   23.80
   0   0  -2    8.50    1.60
   0   0  -2    6.80    2.20
   0   0  -2    9.20    2.00
   0   0  -2    8.00    1.90
   0   0   2    9.70    2.50
   0   0   2   12.80    1.90
   0   0   2    7.20    2.20
   0   0   2    3.80    1.30
  -1   0  -2  860.51   27.90
  -1   0  -2  855.81   27.70
  -1   0  -2  879.31   27.80
  -1   0  -2  852.31   27.60
   1   0   2  834.12   27.90
   1   0   2  870.81   27.80
   1   0   2  832.72   27.60
   1   0   2  840.02   27.60
  -2   0  -2  489.75   18.10
  -2   0  -2  506.85   18.40
  -2   0  -2  506.35   18.10
  -2   0  -2  522.55   18.50
   2   0   2  499.25   18.20
   2   0   2  511.45   18.30
   2   0   2  513.15   18.30
  -3   0  -2 1367.26   46.30
  -3   0  -2 1428.66   46.20
  -3   0  -2 1452.55   46.60
  -3   0  -2 1409.06   46.90
  -3   0  -2 1427.36   46.90
   3   0   2 1438.46   46.70
   3   0   2 1410.46   46.80
   3   0   2 1337.17   46.60
  -4   0  -2    7.10    6.00
  -4   0  -2    8.20    6.10
  -4   0  -2   14.30    5.80
  -4   0  -2    5.70    5.70
  -4   0  -2   14.40    5.50
   4   0   2   11.90    6.00
   4   0   2   16.70    6.10
   4   0   2   10.40    6.20
  -5   0  -2  144.19   12.30
  -5   0  -2  137.49   13.90
  -5   0  -2  155.08   14.60
  -5   0  -2  137.69   14.50
  -5   0  -2  162.98   15.20
   5   0   2  158.48   15.30
   5   0   2  146.69    9.80
   5   0   2  167.88   14.90
   5   0   2  164.58   14.70
  -6   0  -2 1177.28   44.80
  -6   0  -2 1197.08   42.20
  -6   0  -2 1162.98   44.40
  -6   0  -2 1083.79   43.70
  -6   0  -2 1248.98   44.70
   6   0   2 1199.98   39.80
   6   0   2 1201.28   45.40
   6   0   2 1143.49   44.10
   6   0   2 1145.29   44.50
  -7   0  -2   37.00   12.90
  -7   0  -2   77.29   11.30
  -7   0  -2   50.09   13.70
  -7   0  -2   59.69   13.60
  -7   0  -2   40.10   12.80
   7   0   2   76.89   14.50
   7   0   2   59.39   14.80
   7   0   2   76.89   14.80
   7   0   2   64.39    8.60
  -8   0  -2   49.10   11.30
  -8   0  -2   86.99   16.20
  -8   0  -2   59.99   16.00
  -8   0  -2   86.89   17.80
   8   0   2   50.49   16.40
   8   0   2   68.19   15.80
   8   0   2   66.19   10.00
   8   0   2   63.69   15.30
   8  -1  -2  208.28   17.30
   8  -1  -2  230.98   22.10
   8  -1  -2  227.88   25.00
  -8   1   2  229.18   22.20
  -8   1   2  242.68   13.70
  -8   1   2  235.48   23.50
  -8   1   2  235.48   21.30
  -8   1   2  245.78   23.40
   7  -1  -2   15.30    7.50
   7  -1  -2   13.90   10.10
   7  -1  -2    7.50    9.10
   7  -1  -2    2.40   11.10
  -7   1   2   30.90    5.90
  -7   1   2    8.60   10.30
  -7   1   2   13.90   10.40
  -7   1   2   16.80    9.80
  -7   1   2   17.30   10.30
   6  -1  -2   71.29   11.10
   6  -1  -2   78.39   10.70
   6  -1  -2   93.39   11.90
   6  -1  -2   96.19   10.90
  -6   1   2   75.39   10.40
  -6   1   2   76.59    8.40
  -6   1   2   74.19   10.80
  -6   1   2   77.59   11.40
  -6   1   2   80.69   10.70
   5  -1  -2 1569.64   51.59
   5  -1  -2 1509.15   49.80
   5  -1  -2 1531.85   51.79
   5  -1  -2 1428.56   51.39
  -5   1   2 1530.05   51.49
  -5   1   2 1496.75   51.99
  -5   1   2 1574.14   51.89
  -5   1   2 1494.85   51.49
  -5   1   2 1490.45   48.50
   4  -1  -2 1439.16   48.40
   4  -1  -2 1434.16   47.90
   4  -1  -2 1471.55   48.50
   4  -1  -2 1454.35   47.00
  -4   1   2 1444.56   48.00
  -4   1   2 1442.56   48.40
  -4   1   2 1414.86   46.80
  -4   1   2 1423.76   47.90
  -4   1   2 1468.85   48.20
   3  -1  -2  992.70   32.00
   3  -1  -2  955.10   32.00
   3  -1  -2  953.60   31.50
   3  -1  -2  963.10   32.20
   3  -1  -2  934.71   32.00
  -3   1   2  937.31   31.50
  -3   1   2  942.81   31.90
  -3   1   2  943.71   32.20
  -3   1   2  954.20   32.00
  -3   1   2  954.90   31.90
   2  -1  -2 2427.16   75.49
   2  -1  -2 2465.05   75.49
   2  -1  -2 2371.06   75.39
   2  -1  -2 2425.06   75.39
   2  -1  -2 2370.26   75.29
  -2   1   2 2457.65   75.39
  -2   1   2 2417.86   75.29
  -2   1   2 2446.36   75.39
  -2   1   2 2256.37   75.19
  -2   1   2 2544.55   75.49
   1  -1  -2 1904.11   58.09
   1  -1  -2 1908.41   58.39
   1  -1  -2 1863.41   57.39
   1  -1  -2 1897.01   57.29
  -1   1   2 1902.01   57.29
  -1   1   2 1934.51   58.09
  -1   1   2 1840.02   57.59
  -1   1   2 1872.61   57.29
  -1   1   2 1671.03   57.29
  -1   1   2 1858.51   57.29
  -1   1   2 1824.22   58.39
   0  -1  -2   99.49    5.40
   0  -1  -2   97.39    5.40
   0  -1  -2  100.29    4.00
   0  -1  -2   96.39    4.00
   0   1   2   99.49    5.30
   0   1   2   92.09    4.00
   0   1   2   93.79    4.00
   0   1   2   96.69    3.90
   0   1   2  106.49    5.70
  -1  -1  -2  763.72   25.10
  -1  -1  -2  798.22   25.20
  -1  -1  -2  761.42   25.20
  -1  -1  -2  763.82   25.00
  -1  -1  -2  767.02   25.70
   1   1   2  767.02   25.20
   1   1   2  778.02   25.70
   1   1   2  769.02   25.10
   1   1   2  782.92   25.10
  -2  -1  -2  992.70   33.80
  -2  -1  -2  982.40   33.50
  -2  -1  -2 1057.39   33.90
  -2  -1  -2 1056.79   33.80
  -2  -1  -2 1012.70   33.50
   2   1   2  976.90   33.50
   2   1   2  997.80   33.60
   2   1   2 1041.90   33.90
   2   1   2 1007.10   33.80
  -3  -1  -2   42.60    5.70
  -3  -1  -2   58.19    6.60
  -3  -1  -2   67.19    8.20
  -3  -1  -2   55.59    6.20
  -3  -1  -2   58.49    7.00
   3   1   2   48.40    6.00
   3   1   2   62.39    6.60
   3   1   2   46.70    6.60
   3   1   2   55.69    6.40
  -4  -1  -2  197.28   12.80
  -4  -1  -2  203.68   12.80
  -4  -1  -2  197.38   13.20
  -4  -1  -2  202.48   13.10
  -4  -1  -2  196.48   12.10
   4   1   2  198.88   14.00
   4   1   2  220.98   13.80
   4   1   2  183.28   13.40
  -5  -1  -2    4.10    8.70
  -5  -1  -2   -0.20    7.60
  -5  -1  -2    3.30    7.80
  -5  -1  -2    6.90    7.90
  -5  -1  -2   -0.20    6.40
   5   1   2   -6.90    8.40
   5   1   2   -2.30    4.20
   5   1   2   -4.20    8.30
   5   1   2   -7.10    7.50
  -6  -1  -2   66.19   10.70
  -6  -1  -2   64.59   11.50
  -6  -1  -2   59.99   12.30
  -6  -1  -2   39.00    8.80
  -6  -1  -2   51.89   11.30
   6   1   2   54.89   11.60
   6   1   2   47.40   11.50
   6   1   2   69.69   12.30
   6   1   2   66.89    6.80
  -7  -1  -2   60.89   13.60
  -7  -1  -2   82.69   13.80
  -7  -1  -2   70.09   13.30
  -7  -1  -2   66.99   10.60
  -7  -1  -2   65.29   13.50
   7   1   2   77.79   14.70
   7   1   2   66.09   13.40
   7   1   2   65.29    8.30
   7   1   2   65.29   13.50
   8  -2  -2   76.69   15.70
   8  -2  -2   71.49   14.40
   8  -2  -2   88.99   11.70
   8  -2  -2   71.59   13.30
  -8   2   2   79.69   14.00
  -8   2   2   76.69   14.50
  -8   2   2   87.79   15.10
  -8   2   2   77.09   14.80
  -8   2   2  113.79   11.30
   7  -2  -2   94.49   14.00
   7  -2  -2  117.89   13.00
   7  -2  -2  116.69   13.20
  -7   2   2   85.09   12.20
  -7   2   2   78.49   12.10
  -7   2   2   97.79   13.10
  -7   2   2   93.59   14.10
  -7   2   2  106.19   10.70
   6  -2  -2   29.30    9.30
   6  -2  -2   23.90    9.40
   6  -2  -2   18.90    7.00
   6  -2  -2   25.60    8.80
  -6   2   2   18.90    7.90
  -6   2   2   30.40    8.20
  -6   2   2   17.20    8.70
  -6   2   2   31.50    9.40
   5  -2  -2  185.98   13.90
   5  -2  -2  205.98   13.30
   5  -2  -2  201.08   13.80
   5  -2  -2  213.38   12.20
  -5   2   2  200.78   13.20
  -5   2   2  179.88   13.90
  -5   2   2  192.68   13.40
  -5   2   2  196.38   13.40
   4  -2  -2  419.16   17.20
   4  -2  -2  416.06   17.60
   4  -2  -2  404.16   17.60
   4  -2  -2  389.86   16.50
  -4   2   2  410.56   16.70
  -4   2   2  416.06   17.20
  -4   2   2  411.96   17.30
  -4   2   2  417.36   17.10
  -4   2   2  415.96   17.50
   3  -2  -2   59.39    5.80
   3  -2  -2   47.20    5.50
   3  -2  -2   56.09    6.00
   3  -2  -2   55.29    6.70
  -3   2   2   57.39    6.70
  -3   2   2   55.39    6.70
  -3   2   2   63.69    6.40
  -3   2   2   60.19    6.40
  -3   2   2   56.89    6.50
   2  -2  -2 1401.76   44.20
   2  -2  -2 1401.16   44.80
   2  -2  -2 1420.16   44.40
   2  -2  -2 1367.96   44.70
   2  -2  -2 1398.96   44.40
  -2   2   2 1414.76   44.50
  -2   2   2 1358.66   44.80
  -2   2   2 1387.66   44.50
  -2   2   2 1415.06   44.30
  -2   2   2 1450.35   44.40
  -2   2   2 1421.06   44.30
   1  -2  -2 1604.84   49.60
   1  -2  -2 1596.54   49.70
   1  -2  -2 1600.24   49.70
   1  -2  -2 1637.24   50.79
   1  -2  -2 1592.54   51.29
  -1   2   2 1574.64   51.39
  -1   2   2 1661.13   49.60
  -1   2   2 1566.14   49.70
  -1   2   2 1622.44   49.70
  -1   2   2 1653.23   50.79
  -1   2   2 1640.64   51.89
  -1   2   2 1636.64   49.50
   0  -2  -2  275.37   11.60
   0  -2  -2  282.77    9.70
   0  -2  -2  306.17    9.90
   0  -2  -2  305.77    9.70
   0   2   2  298.57    9.70
   0   2   2  282.77   11.80
   0   2   2  289.67   10.50
   0   2   2  306.97    9.90
   0   2   2  289.47   11.20
   0   2   2  295.37    9.70
  -1  -2  -2 2335.07   71.09
  -1  -2  -2 2276.07   70.99
  -1  -2  -2 2135.49   70.99
  -1  -2  -2 2304.87   71.79
  -1  -2  -2 2263.67   71.49
  -1  -2  -2 2334.87   70.89
   1   2   2 2292.87   71.69
   1   2   2 2236.88   70.79
   1   2   2 2292.27   70.99
   1   2   2 2309.17   70.99
  -2  -2  -2  506.25   18.40
  -2  -2  -2  494.25   18.40
  -2  -2  -2  494.55   18.50
  -2  -2  -2  511.55   18.70
  -2  -2  -2  494.75   18.20
   2   2   2  491.45   18.30
   2   2   2  485.55   18.40
   2   2   2  496.65   18.90
   2   2   2  495.35   18.50
  -3  -2  -2  784.92   28.20
  -3  -2  -2  778.42   28.40
  -3  -2  -2  751.82   27.80
  -3  -2  -2  769.62   27.80
  -3  -2  -2  811.52   27.90
   3   2   2  787.62   28.10
   3   2   2  737.83   28.00
   3   2   2  805.12   28.30
   3   2   2  760.22   28.40
  -4  -2  -2 1247.98   44.40
  -4  -2  -2 1280.27   44.30
  -4  -2  -2 1319.77   44.20
  -4  -2  -2 1334.97   43.70
  -4  -2  -2 1267.07   44.50
   4   2   2 1279.07   45.00
   4   2   2 1238.78   44.00
   4   2   2 1209.88   43.90
   4   2   2 1261.67   44.50
   4   2   2 1291.87   40.50
  -5  -2  -2   54.09    9.20
  -5  -2  -2   41.40    9.80
  -5  -2  -2   56.59    8.20
  -5  -2  -2   54.49    9.40
  -5  -2  -2   47.60    9.50
   5   2   2   45.10    9.70
   5   2   2   48.00    5.20
   5   2   2   31.80    8.50
   5   2   2   44.40    9.60
  -6  -2  -2  201.78   19.10
  -6  -2  -2  207.78   15.50
  -6  -2  -2  191.78   19.80
  -6  -2  -2  177.48   18.90
  -6  -2  -2  225.98   19.10
   6   2   2  198.78   19.70
   6   2   2  187.18   17.20
   6   2   2  194.18   11.10
  -7  -2  -2  472.45   30.20
  -7  -2  -2  531.45   31.20
  -7  -2  -2  546.65   29.90
  -7  -2  -2  442.76   28.30
   7   2   2  467.45   28.00
   7   2   2  522.55   19.80
   7   2   2  479.45   29.40
   8  -3  -2   24.50   13.40
   8  -3  -2   12.20   10.60
   8  -3  -2   29.70   12.30
   8  -3  -2   23.30   10.00
  -8   3   2   23.10    7.70
  -8   3   2    8.20   12.00
  -8   3   2   30.00   12.50
  -8   3   2   33.50   14.20
  -8   3   2   24.90   12.70
   7  -3  -2  522.35   27.00
   7  -3  -2  524.75   25.80
   7  -3  -2  522.35   23.80
  -7   3   2  530.55   26.40
  -7   3   2  505.75   25.80
  -7   3   2  540.25   26.80
  -7   3   2  529.85   26.20
   6  -3  -2   26.30    9.20
   6  -3  -2   25.30    9.20
   6  -3  -2   32.10    8.30
   6  -3  -2   32.00    7.80
  -6   3   2   35.60    8.60
  -6   3   2   30.00    8.20
  -6   3   2   30.80    8.50
  -6   3   2   45.20    9.60
   5  -3  -2   63.99    7.90
   5  -3  -2   73.29    8.70
   5  -3  -2   79.09    9.30
   5  -3  -2   65.39    8.00
   5  -3  -2   52.39    8.10
  -5   3   2   52.69    7.40
  -5   3   2   68.79    8.00
  -5   3   2   71.59    8.50
  -5   3   2   62.49    8.70
   4  -3  -2 1761.22   54.79
   4  -3  -2 1789.62   55.69
   4  -3  -2 1669.93   55.99
   4  -3  -2 1709.73   55.99
   4  -3  -2 1722.23   55.49
  -4   3   2 1673.03   55.49
  -4   3   2 1741.93   55.79
  -4   3   2 1676.63   55.79
  -4   3   2 1610.94   55.89
  -4   3   2 1731.73   55.59
   3  -3  -2  142.89    9.00
   3  -3  -2  148.89    8.20
   3  -3  -2  156.88    8.80
   3  -3  -2  147.39    8.40
  -3   3   2  156.98    8.30
  -3   3   2  154.38    8.80
  -3   3   2  147.99    9.20
  -3   3   2  153.38    8.80
  -3   3   2  142.89    8.40
   2  -3  -2   69.89    4.70
   2  -3  -2   72.59    6.50
   2  -3  -2   74.59    5.30
   2  -3  -2   71.89    5.90
  -2   3   2   75.29    6.40
  -2   3   2   68.49    5.70
  -2   3   2   70.09    4.80
  -2   3   2   85.09    5.60
  -2   3   2   70.99    5.40
   1  -3  -2 2751.42   84.69
   1  -3  -2 2838.22   85.69
   1  -3  -2 2880.51   85.09
   1  -3  -2 2727.43   84.49
  -1   3   2 2587.54   84.39
  -1   3   2 2827.02   85.69
  -1   3   2 2620.84   84.49
  -1   3   2 2774.42   86.39
  -1   3   2 2813.72   84.39
  -1   3   2 2717.53   87.19
   0  -3  -2 1035.80   31.80
   0  -3  -2  948.61   33.50
   0  -3  -2 1018.40   31.60
   0   3   2  980.10   31.50
   0   3   2 1008.70   32.00
   0   3   2 1009.40   33.20
   0   3   2  991.60   32.20
   0   3   2  989.70   31.50
   0   3   2 1042.40   34.30
  -1  -3  -2  331.17   13.50
  -1  -3  -2  322.67   12.50
  -1  -3  -2  314.77   12.40
  -1  -3  -2  324.27   12.20
  -1  -3  -2  327.87   12.30
  -1  -3  -2  316.17   13.50
   1   3   2  316.27   12.50
   1   3   2  322.87   12.20
   1   3   2  331.27   11.20
   1   3   2  323.17   12.30
   1   3   2  320.77   13.40
  -2  -3  -2 1549.24   50.09
  -2  -3  -2 1548.05   50.39
  -2  -3  -2 1535.75   50.59
  -2  -3  -2 1552.64   49.70
  -2  -3  -2 1507.25   49.99
   2   3   2 1506.05   49.60
   2   3   2 1536.85   50.39
   2   3   2 1529.05   49.80
   2   3   2 1550.94   50.19
  -3  -3  -2  388.66   17.00
  -3  -3  -2  393.26   17.50
  -3  -3  -2  384.26   16.80
  -3  -3  -2  368.46   17.10
  -3  -3  -2  396.16   17.00
   3   3   2  340.67   17.10
   3   3   2  359.36   16.40
   3   3   2  390.36   17.30
   3   3   2  368.76   16.80
   3   3   2  383.86   17.40
  -4  -3  -2   19.50    7.30
  -4  -3  -2   33.10    7.00
  -4  -3  -2   20.90    6.70
  -4  -3  -2   22.00    7.00
  -4  -3  -2   12.70    7.60
   4   3   2   24.20    7.50
   4   3   2   18.60    7.30
   4   3   2   28.80    3.30
   4   3   2    7.60    7.60
   4   3   2   19.90    7.80
  -5  -3  -2  245.08   16.20
  -5  -3  -2  243.08   17.80
  -5  -3  -2  259.77   17.60
  -5  -3  -2  236.98   17.60
   5   3   2  258.67   18.80
   5   3   2  250.07   18.50
   5   3   2  243.48   17.90
   5   3   2  248.18   10.30
  -6  -3  -2  128.79   15.30
  -6  -3  -2  160.48   18.90
  -6  -3  -2  175.98   19.10
  -6  -3  -2  160.78   18.20
   6   3   2  132.29   15.40
   6   3   2  153.98    8.70
   6   3   2  157.68   19.10
  -7  -3  -2    5.80   13.80
  -7  -3  -2   -6.90    9.90
  -7  -3  -2    4.30   13.30
  -7  -3  -2   -0.40   11.90
  -7  -3  -2   10.60   12.90
   7   3   2    5.60    4.80
   7   3   2  -21.40   14.20
   7   3   2  -11.40   13.80
   8  -4  -2   44.70   10.00
   8  -4  -2   30.20   13.50
   8  -4  -2   49.99   11.60
   8  -4  -2   41.30   14.80
  -8   4   2   46.90   13.00
  -8   4   2   27.40   13.10
  -8   4   2   47.60   14.50
  -8   4   2   34.50   12.40
   7  -4  -2   18.70   10.20
   7  -4  -2   16.30    8.90
   7  -4  -2   18.90   11.30
   7  -4  -2    3.50    9.40
   7  -4  -2   13.70    7.50
  -7   4   2   18.80    9.80
  -7   4   2   24.20   10.80
  -7   4   2    3.20    8.90
  -7   4   2   20.40   10.60
   6  -4  -2  312.67   17.40
   6  -4  -2  309.97   19.00
   6  -4  -2  307.57   15.50
   6  -4  -2  282.67   17.20
   6  -4  -2  330.07   19.00
  -6   4   2  325.87   19.10
  -6   4   2  312.57   17.70
  -6   4   2  326.47   18.10
  -6   4   2  331.77   18.60
   5  -4  -2   87.09    9.10
   5  -4  -2  123.99   10.80
   5  -4  -2  112.89    9.00
   5  -4  -2   87.39   11.40
   5  -4  -2  108.49   11.50
  -5   4   2   92.09   11.10
  -5   4   2  108.29   10.90
  -5   4   2   99.59   11.00
  -5   4   2   97.39   11.50
   4  -4  -2  155.98   10.90
   4  -4  -2  159.58    9.40
   4  -4  -2  145.59   11.00
   4  -4  -2  165.78   11.20
  -4   4   2  150.58   10.90
  -4   4   2  151.78   10.00
  -4   4   2  140.09   10.30
  -4   4   2  137.29   11.20
  -4   4   2  162.08    9.90
   3  -4  -2  327.77   14.00
   3  -4  -2  343.97   14.60
   3  -4  -2  337.37   13.70
   3  -4  -2  332.17   13.70
   3  -4  -2  334.47   13.20
  -3   4   2  328.17   14.50
  -3   4   2  327.67   14.00
  -3   4   2  322.17   13.90
  -3   4   2  340.67   13.30
   2  -4  -2  926.61   29.70
   2  -4  -2  887.51   30.50
   2  -4  -2  925.31   31.00
  -2   4   2  932.41   31.20
  -2   4   2  915.01   33.10
  -2   4   2  959.20   29.80
  -2   4   2  921.51   31.00
  -2   4   2  911.21   30.40
   1  -4  -2  891.41   32.30
   1  -4  -2  914.41   29.80
   1  -4  -2  933.41   30.50
   1  -4  -2  897.51   29.60
  -1   4   2  926.41   31.30
  -1   4   2  948.41   29.40
  -1   4   2  940.61   29.40
  -1   4   2  919.41   29.30
  -1   4   2  949.31   30.60
  -1   4   2  952.10   33.00
   0  -4  -2   54.79    6.30
   0  -4  -2   50.59    4.70
   0  -4  -2   48.60    5.50
   0   4   2   63.79    7.50
   0   4   2   51.39    6.60
   0   4   2   59.19    5.90
   0   4   2   41.00    4.30
   0   4   2   46.70    4.20
   0   4   2   50.79    4.80
  -1  -4  -2  871.01   29.40
  -1  -4  -2  848.12   29.10
  -1  -4  -2  871.81   31.10
  -1  -4  -2  884.71   29.40
  -1  -4  -2  914.71   29.70
   1   4   2  897.41   30.80
   1   4   2  864.01   29.20
   1   4   2  868.41   29.80
   1   4   2  900.41   28.00
   1   4   2  857.11   29.00
  -2  -4  -2   60.09    7.60
  -2  -4  -2   64.89    8.40
  -2  -4  -2   64.59    7.90
  -2  -4  -2   75.59    8.30
   2   4   2   69.89    7.40
   2   4   2   65.99    7.90
   2   4   2   73.89    3.70
   2   4   2   66.99    8.00
   2   4   2   71.29    8.50
  -3  -4  -2  113.69   10.50
  -3  -4  -2  125.59   11.50
  -3  -4  -2  129.89   11.20
  -3  -4  -2  115.69   11.10
  -3  -4  -2  116.19   12.50
  -3  -4  -2  112.09   10.90
   3   4   2  143.99   12.40
   3   4   2  103.79   10.10
   3   4   2  119.19   11.90
   3   4   2  107.59   10.20
  -4  -4  -2  712.73   28.30
  -4  -4  -2  717.53   28.60
  -4  -4  -2  685.23   27.80
  -4  -4  -2  734.23   28.90
  -4  -4  -2  735.43   29.60
   4   4   2  619.84   28.70
   4   4   2  752.72   29.40
   4   4   2  705.63   28.50
  -5  -4  -2    2.50    8.60
  -5  -4  -2    6.80    9.10
  -5  -4  -2   10.30   10.10
  -5  -4  -2    8.60    8.10
   5   4   2    3.00    9.70
   5   4   2    7.10    9.00
   5   4   2    3.70    9.60
  -6  -4  -2  -16.90   10.10
  -6  -4  -2   15.40   11.20
  -6  -4  -2    9.30   11.30
  -6  -4  -2   -3.20   10.80
  -6  -4  -2   10.30    9.70
   6   4   2    3.20   11.00
   6   4   2   -9.10   12.40
   8  -5  -2   12.70    8.10
   8  -5  -2   16.40   13.70
   8  -5  -2   11.80   10.70
   8  -5  -2   33.60   14.10
   8  -5  -2    9.30    8.90
  -8   5   2   -2.60   12.00
  -8   5   2    8.50   12.10
  -8   5   2   23.40   14.60
  -8   5   2    8.50   11.30
   7  -5  -2  359.86   20.20
   7  -5  -2  360.06   22.00
   7  -5  -2  349.07   23.00
   7  -5  -2  326.67   17.00
  -7   5   2  309.97   21.10
  -7   5   2  358.66   20.70
  -7   5   2  324.67   22.60
  -7   5   2  346.07   21.20
   6  -5  -2   37.60    8.90
   6  -5  -2   34.20    9.50
   6  -5  -2   29.90    9.30
   6  -5  -2   28.40    6.50
   6  -5  -2   29.40    7.50
  -6   5   2   41.90    8.70
  -6   5   2   33.40    9.00
  -6   5   2   31.00    8.20
  -6   5   2   36.60    9.70
   5  -5  -2    1.60    6.90
   5  -5  -2    0.10    5.80
   5  -5  -2    5.70    5.20
   5  -5  -2    1.20    6.90
   5  -5  -2    4.30    6.90
  -5   5   2    4.30    6.20
  -5   5   2    4.60    5.90
  -5   5   2    4.40    7.10
  -5   5   2    6.40    6.70
   4  -5  -2 1127.19   37.80
   4  -5  -2 1142.89   39.20
   4  -5  -2 1117.39   39.40
   4  -5  -2 1108.99   38.30
   4  -5  -2 1185.28   38.90
  -4   5   2 1153.58   38.40
  -4   5   2 1165.98   39.30
  -4   5   2 1140.79   39.40
  -4   5   2 1131.69   38.50
   3  -5  -2  135.19   10.10
   3  -5  -2  136.29    8.90
   3  -5  -2  134.69    8.00
   3  -5  -2  132.79    9.70
  -3   5   2  140.79    8.30
  -3   5   2  132.89    9.60
  -3   5   2  142.29   13.30
  -3   5   2  136.39   10.30
  -3   5   2  132.89    9.30
  -3   5   2  158.88    8.00
   2  -5  -2  449.56   17.00
   2  -5  -2  431.26   15.30
   2  -5  -2  411.86   16.90
  -2   5   2  422.36   17.40
  -2   5   2  432.06   15.90
  -2   5   2  453.95   17.10
  -2   5   2  418.76   19.90
  -2   5   2  437.76   15.30
  -2   5   2  420.26   15.90
   1  -5  -2  701.03   23.50
   1  -5  -2  713.23   23.40
   1  -5  -2  684.83   26.70
   1  -5  -2  688.43   24.00
  -1   5   2  678.13   23.00
  -1   5   2  721.63   22.90
  -1   5   2  699.73   22.80
  -1   5   2  683.53   27.00
  -1   5   2  701.73   24.10
   0  -5  -2  101.79    8.40
   0  -5  -2   87.29   10.10
   0  -5  -2   78.69    7.90
   0  -5  -2   92.99    6.60
   0   5   2   94.09    6.10
   0   5   2   80.89    6.20
   0   5   2   87.69    9.00
   0   5   2   90.59    5.90
   0   5   2   85.99    8.50
   0   5   2   88.29    9.40
  -1  -5  -2  992.20   33.30
  -1  -5  -2 1021.70   33.50
  -1  -5  -2  978.50   35.40
  -1  -5  -2  999.30   33.00
  -1  -5  -2  995.60   33.80
   1   5   2  987.70   31.50
   1   5   2  953.20   32.70
   1   5   2  998.40   34.90
   1   5   2  982.70   34.10
   1   5   2  978.50   33.00
  -2  -5  -2  101.19    9.50
  -2  -5  -2  106.99   10.60
  -2  -5  -2  104.69   11.90
  -2  -5  -2  114.79    9.40
   2   5   2  113.79   11.60
   2   5   2  109.99    9.50
   2   5   2  105.29    9.60
   2   5   2  115.09   10.60
  -3  -5  -2  106.49   11.80
  -3  -5  -2  109.49   11.30
  -3  -5  -2  119.89   12.10
  -3  -5  -2  109.39   11.10
  -3  -5  -2  111.89   13.90
   3   5   2  113.99   11.00
   3   5   2   85.89   10.40
   3   5   2   99.09   10.40
   3   5   2  108.49   13.00
  -4  -5  -2  469.35   24.00
  -4  -5  -2  453.55   22.80
  -4  -5  -2  467.45   22.40
  -4  -5  -2  448.86   22.20
  -4  -5  -2  448.46   21.80
   4   5   2  442.36   23.00
   4   5   2  453.45   21.30
   4   5   2  412.86   21.60
   4   5   2  476.55   23.20
  -5  -5  -2    5.80    9.80
  -5  -5  -2    8.90   11.20
  -5  -5  -2   20.60   11.70
  -5  -5  -2    6.80   10.80
  -5  -5  -2    4.50    9.30
   5   5   2   -8.50    9.20
   5   5   2   10.10    9.80
   5   5   2   -4.30    8.90
  -6  -5  -2  103.59   16.00
  -6  -5  -2   81.99   14.30
  -6  -5  -2   94.99   15.50
  -6  -5  -2   53.09   12.70
   6   5   2   56.39   13.50
   6   5   2   51.29   13.60
   8  -6  -2   73.69   16.00
   8  -6  -2   93.29   13.70
   8  -6  -2  112.59   16.60
  -8   6   2  118.09   19.70
  -8   6   2  127.09   17.60
  -8   6   2   49.60   16.60
  -8   6   2   81.69   13.40
   7  -6  -2  195.58   20.20
   7  -6  -2  151.78   18.00
   7  -6  -2  180.08   17.40
   7  -6  -2  179.88   13.20
  -7   6   2  173.08   20.30
  -7   6   2  154.98   17.40
  -7   6   2  185.68   17.70
  -7   6   2  174.28   17.30
   6  -6  -2  153.58   15.50
   6  -6  -2  182.08   15.50
   6  -6  -2  140.19   13.50
   6  -6  -2  176.78   11.40
  -6   6   2  170.28   16.10
  -6   6   2  131.39   14.00
  -6   6   2  152.68   16.20
  -6   6   2  146.59   14.20
   5  -6  -2  153.98   10.50
   5  -6  -2  163.68   12.30
   5  -6  -2  177.08   14.10
   5  -6  -2  160.88   12.60
   5  -6  -2  145.89   14.50
  -5   6   2  161.58   14.00
  -5   6   2  179.38   14.30
  -5   6   2  157.48   12.50
  -5   6   2  158.68   18.20
  -5   6   2  168.58   12.20
   4  -6  -2  881.31   32.20
   4  -6  -2  911.11   31.40
   4  -6  -2  910.51   30.90
   4  -6  -2  909.61   32.60
  -4   6   2  933.61   31.00
  -4   6   2  903.21   32.10
  -4   6   2  865.31   35.60
  -4   6   2  752.92   31.70
   3  -6  -2  536.65   21.00
   3  -6  -2  531.15   19.60
   3  -6  -2  499.35   21.40
   3  -6  -2  505.35   18.90
  -3   6   2  525.15   20.30
  -3   6   2  508.35   20.30
  -3   6   2  537.65   19.10
  -3   6   2  522.85   23.90
  -3   6   2  523.65   19.30
   2  -6  -2  212.48   11.70
   2  -6  -2  210.88    9.60
   2  -6  -2  205.08   11.60
  -2   6   2  229.38   15.20
  -2   6   2  215.48   10.10
  -2   6   2  214.28   12.50
  -2   6   2  209.08   11.80
  -2   6   2  230.38    9.70
  -2   6   2  224.58   10.10
   1  -6  -2  228.38   10.70
   1  -6  -2  232.48   15.30
   1  -6  -2  230.08   11.10
   1  -6  -2  234.78   11.30
  -1   6   2  262.27   10.70
  -1   6   2  250.37   10.10
  -1   6   2  240.08   11.60
  -1   6   2  226.48   15.40
  -1   6   2  252.47   10.20
   0  -6  -2  543.15   19.40
   0  -6  -2  494.35   21.30
   0  -6  -2  521.35   23.00
   0  -6  -2  536.05   21.00
   0   6   2  569.24   21.80
   0   6   2  516.75   21.40
   0   6   2  535.95   18.90
   0   6   2  521.75   18.70
   0   6   2  508.95   24.20
   0   6   2  529.05   18.70
  -1  -6  -2  151.68   10.60
  -1  -6  -2  147.89   10.40
  -1  -6  -2  166.98   14.20
  -1  -6  -2  137.99    9.50
  -1  -6  -2  160.98   11.40
   1   6   2  157.68   12.10
   1   6   2  142.69    9.20
   1   6   2  151.88   12.00
   1   6   2  153.38    9.50
  -2  -6  -2  342.97   19.90
  -2  -6  -2  381.76   17.50
  -2  -6  -2  357.76   16.70
  -2  -6  -2  378.86   18.30
  -2  -6  -2  381.86   17.50
   2   6   2  365.56   16.90
   2   6   2  372.26   16.80
   2   6   2  384.96   18.70
   2   6   2  389.46   18.70
  -3  -6  -2    1.20    7.70
  -3  -6  -2   10.10    7.40
  -3  -6  -2    2.40    7.50
  -3  -6  -2   -8.60    9.20
   3   6   2   -1.80    6.50
   3   6   2    8.50    7.80
   3   6   2    2.00    8.50
   3   6   2   -4.90    6.00
  -4  -6  -2  179.38   17.40
  -4  -6  -2  179.28   19.10
  -4  -6  -2  159.58   15.30
   4   6   2  183.18   15.90
   4   6   2  190.18   16.80
   4   6   2  198.98   14.70
  -5  -6  -2  378.96   26.20
  -5  -6  -2  391.56   24.80
  -5  -6  -2  409.36   24.20
  -5  -6  -2  424.26   26.60
   5   6   2  431.66   24.50
   5   6   2  474.15   27.20
   5   6   2  455.45   26.60
   7  -7  -2  110.39   14.00
   7  -7  -2   94.49   12.80
   7  -7  -2  101.79   15.20
  -7   7   2  117.29   13.20
  -7   7   2   90.99   12.00
  -7   7   2  130.89   19.10
  -7   7   2  113.59   15.00
  -7   7   2  137.89   15.90
   6  -7  -2  422.96   21.40
   6  -7  -2  429.96   22.30
  -6   7   2  401.66   20.50
  -6   7   2  454.35   23.50
  -6   7   2  391.16   20.50
  -6   7   2  388.86   25.80
  -6   7   2  427.16   22.90
   5  -7  -2   24.80    8.40
   5  -7  -2   30.20    9.20
   5  -7  -2   18.40    7.50
   5  -7  -2   20.90    6.70
  -5   7   2   20.80    6.90
  -5   7   2   21.80    9.40
  -5   7   2   20.50    8.00
  -5   7   2   27.70    7.90
  -5   7   2   23.10    6.50
   4  -7  -2   34.30    8.10
   4  -7  -2   35.10    8.80
   4  -7  -2   28.00    6.50
   4  -7  -2   36.90    5.80
  -4   7   2   26.80    7.10
  -4   7   2   38.40    6.00
  -4   7   2   27.00    7.10
  -4   7   2   36.10   11.10
   3  -7  -2 1030.10   35.50
   3  -7  -2  999.10   36.20
   3  -7  -2  995.40   34.10
   3  -7  -2 1014.30   33.60
  -3   7   2 1003.30   38.90
  -3   7   2 1058.79   33.70
  -3   7   2  977.20   34.30
  -3   7   2  975.90   34.50
  -3   7   2  972.50   34.40
   2  -7  -2  166.78   10.60
   2  -7  -2  158.48   10.00
   2  -7  -2  158.08   11.10
   2  -7  -2  159.68    9.00
  -2   7   2  174.98   12.10
  -2   7   2  177.98   16.60
  -2   7   2  169.78    9.10
  -2   7   2  172.18    9.50
  -2   7   2  167.68    9.20
   1  -7  -2  428.76   16.80
   1  -7  -2  400.76   16.80
   1  -7  -2  371.46   21.50
   1  -7  -2  416.66   18.80
   1  -7  -2  438.46   16.40
  -1   7   2  427.96   15.60
  -1   7   2  436.96   16.20
  -1   7   2  425.16   15.80
  -1   7   2  356.66   21.20
   0  -7  -2  115.69   12.30
   0  -7  -2  147.99   13.00
   0  -7  -2  132.59    9.50
   0  -7  -2  122.79   11.50
   0   7   2  154.48   16.80
   0   7   2  127.49   12.70
   0   7   2  120.49   12.20
   0   7   2  135.79    8.70
   0   7   2  137.79    8.60
  -1  -7  -2    9.20    8.70
  -1  -7  -2    8.80    6.00
  -1  -7  -2    7.60    5.20
  -1  -7  -2   12.50    5.90
  -1  -7  -2   11.00    7.10
   1   7   2    9.60    4.80
   1   7   2    9.90    7.30
   1   7   2   14.10    5.00
   1   7   2    2.10    7.20
  -2  -7  -2  706.93   28.90
  -2  -7  -2  728.43   31.20
  -2  -7  -2  697.93   27.40
  -2  -7  -2  728.13   28.10
   2   7   2  687.23   26.70
   2   7   2  702.23   29.80
   2   7   2  728.23   27.00
   2   7   2  718.33   29.20
  -3  -7  -2   -7.80    7.50
  -3  -7  -2   11.20    9.00
  -3  -7  -2    9.10   11.20
   3   7   2   15.00    8.80
   3   7   2    7.00    7.90
   3   7   2   11.30    7.60
  -4  -7  -2   38.50   11.00
  -4  -7  -2   52.29   10.90
  -4  -7  -2   56.89   12.50
  -4  -7  -2   49.10   13.20
   4   7   2   64.79   11.00
   4   7   2   49.80    9.60
   4   7   2   67.19   12.50
   4   7   2   69.99   12.60
  -5  -7  -2  220.08   21.10
  -5  -7  -2  230.78   20.70
  -5  -7  -2  273.37   26.30
  -5  -7  -2  238.48   25.20
   5   7   2  189.18   19.00
   5   7   2  193.58   23.70
   5   7   2  281.27   21.80
   7  -8  -2   24.60   11.60
   7  -8  -2    7.40    8.80
   7  -8  -2    8.80   13.20
  -7   8   2   14.40    9.70
  -7   8   2   -3.90   14.40
  -7   8   2   17.50   12.30
  -7   8   2    8.00   11.60
  -7   8   2   24.60    9.50
   6  -8  -2  486.95   25.60
   6  -8  -2  567.94   27.60
  -6   8   2  512.75   25.60
  -6   8   2  493.15   22.90
  -6   8   2  482.55   31.90
  -6   8   2  525.85   26.20
  -6   8   2  510.45   23.10
   5  -8  -2  290.17   20.50
   5  -8  -2  297.87   19.10
   5  -8  -2  305.27   17.00
  -5   8   2  296.67   17.90
  -5   8   2  284.77   17.30
  -5   8   2  294.67   15.70
  -5   8   2  302.47   28.60
  -5   8   2  282.17   15.70
   4  -8  -2   86.29   11.30
   4  -8  -2   88.89   10.90
   4  -8  -2   93.29    9.60
   4  -8  -2   98.29   10.30
  -4   8   2   98.59   11.00
  -4   8   2   84.69    8.90
  -4   8   2   77.59    9.70
   3  -8  -2  304.87   14.20
   3  -8  -2  266.07   16.40
   3  -8  -2  297.77   13.20
   3  -8  -2  288.77   16.60
  -3   8   2  307.07   13.50
  -3   8   2  279.17   13.80
  -3   8   2  280.17   14.20
  -3   8   2  258.37   15.10
   2  -8  -2  239.88   12.70
   2  -8  -2  215.68   11.20
   2  -8  -2  234.38   13.60
   2  -8  -2  215.08   12.70
  -2   8   2  232.28   11.30
  -2   8   2  223.38   14.80
  -2   8   2  230.88   11.50
  -2   8   2  230.98   11.20
   1  -8  -2  174.68   14.50
   1  -8  -2  200.18   16.90
   1  -8  -2  214.08   11.60
   1  -8  -2  194.78   11.90
   1  -8  -2  209.58   12.00
  -1   8   2  209.98   11.30
  -1   8   2  202.88   15.60
  -1   8   2  198.28   10.30
  -1   8   2  210.88   10.80
  -1   8   2  174.78   17.50
   0  -8  -2   -7.00    6.50
   0  -8  -2   -0.60    5.30
   0  -8  -2    4.40    5.00
   0  -8  -2   10.80   10.00
   0  -8  -2   -1.20    8.30
   0   8   2   -3.00    4.40
   0   8   2    0.80    4.40
   0   8   2   -9.50    6.50
   0   8   2    3.80   11.10
  -1  -8  -2   38.60   11.60
  -1  -8  -2   22.80    7.70
  -1  -8  -2   21.10    8.70
  -1  -8  -2   30.60    7.20
  -1  -8  -2   29.10    6.00
   1   8   2   25.10    5.70
   1   8   2   34.40    6.10
   1   8   2   -5.50    9.30
   1   8   2   31.80    9.30
  -2  -8  -2  566.24   29.40
  -2  -8  -2  600.14   26.10
   2   8   2  552.84   23.50
   2   8   2  580.74   23.80
   2   8   2  583.24   27.20
  -3  -8  -2    5.40    8.40
  -3  -8  -2    0.70    8.80
  -3  -8  -2  -17.50   12.50
  -3  -8  -2   -6.10   10.50
   3   8   2    2.40   10.20
   3   8   2    0.90    8.50
   3   8   2    5.40    7.80
   3   8   2   -5.50   10.90
  -4  -8  -2  224.98   24.40
  -4  -8  -2  204.78   20.70
  -4  -8  -2  203.38   18.20
  -4  -8  -2  229.88   22.00
   4   8   2  247.48   15.80
   4   8   2  239.98   22.40
   4   8   2  195.48   19.80
   4   8   2  221.08   21.70
   6  -9  -2   90.19   13.30
   6  -9  -2  122.29   15.80
  -6   9   2  121.09   13.40
  -6   9   2  133.39   16.30
  -6   9   2  114.69   14.70
  -6   9   2  107.69   10.80
  -6   9   2  105.69   18.50
   5  -9  -2    7.00    9.70
   5  -9  -2   -2.10    4.60
   5  -9  -2  -13.90    5.20
  -5   9   2  -15.50   12.70
  -5   9   2   -0.50    6.80
  -5   9   2    2.40    8.30
  -5   9   2   -8.10    7.30
   4  -9  -2 1036.60   39.30
   4  -9  -2 1077.69   38.60
  -4   9   2 1033.70   35.50
  -4   9   2  951.50   35.90
  -4   9   2 1006.20   36.30
   3  -9  -2  115.89   12.80
   3  -9  -2  116.29    9.90
   3  -9  -2  143.39   13.60
  -3   9   2  116.99   10.20
  -3   9   2  102.39   10.90
  -3   9   2  124.59   10.90
  -3   9   2  120.59   10.00
   2  -9  -2   40.40    8.00
   2  -9  -2   41.90    6.10
   2  -9  -2   36.60    7.30
   2  -9  -2   39.10    6.90
  -2   9   2   54.09    8.80
  -2   9   2   44.10    6.10
  -2   9   2   40.40    5.90
  -2   9   2   37.60    5.70
   1  -9  -2  911.01   32.30
   1  -9  -2  902.71   38.50
   1  -9  -2  937.51   32.70
   1  -9  -2  932.51   32.90
   1  -9  -2  994.30   35.00
  -1   9   2  916.41   31.60
  -1   9   2  909.51   31.40
  -1   9   2  883.41   39.40
  -1   9   2  907.01   32.10
   0  -9  -2  748.93   33.10
   0  -9  -2  703.83   30.50
   0   9   2  727.33   29.00
   0   9   2  730.13   26.30
   0   9   2  744.33   26.40
  -1  -9  -2   14.10   11.70
  -1  -9  -2   16.70    6.80
  -1  -9  -2    7.50    7.30
  -1  -9  -2   24.30    6.90
  -1  -9  -2   14.30    6.70
   1   9   2   14.90    6.20
   1   9   2   19.20    6.00
   1   9   2   18.10    9.60
   1   9   2   23.90   11.00
  -2  -9  -2  179.38   15.40
  -2  -9  -2  227.78   16.30
  -2  -9  -2  202.18   21.40
   2   9   2  203.28   18.00
   2   9   2  218.88   19.50
   2   9   2  220.28   15.10
   2   9   2  190.28   14.40
  -3  -9  -2  409.06   22.70
  -3  -9  -2  413.06   30.60
  -3  -9  -2  454.85   24.60
   3   9   2  452.65   22.50
   3   9   2  500.45   27.70
   3   9   2  397.86   26.90
   3   9   2  438.16   22.50
   5 -10  -2  129.19   13.90
   5 -10  -2  165.28   20.60
  -5  10   2  143.69   15.60
  -5  10   2  140.19   19.40
  -5  10   2  129.49   12.10
  -5  10   2  116.69   12.70
   4 -10  -2  171.18   16.90
  -4  10   2  182.98   12.40
  -4  10   2  158.08   12.70
  -4  10   2  171.68   14.30
  -4  10   2  174.58   19.20
   3 -10  -2   -5.00    4.10
   3 -10  -2    4.80    8.40
   3 -10  -2   -3.10    5.00
   3 -10  -2   18.20    7.90
  -3  10   2   17.80    5.60
  -3  10   2   18.20    6.10
  -3  10   2   17.70   15.50
  -3  10   2   15.00    6.00
  -3  10   2    3.40    8.80
   2 -10  -2  123.09   13.20
   2 -10  -2   99.99   12.10
  -2  10   2  101.59   17.30
  -2  10   2  101.19    9.90
  -2  10   2  126.59    9.70
  -2  10   2  120.99   10.50
  -2  10   2  159.68   15.50
   1 -10  -2  140.19   16.60
   1 -10  -2  149.99   12.90
  -1  10   2  164.98   10.90
  -1  10   2  142.99   11.80
  -1  10   2  163.88   11.30
  -1  10   2  166.38   19.30
  -1  10   2  151.68   19.50
   0 -10  -2   20.70    7.90
   0 -10  -2   47.60   14.50
   0 -10  -2   39.30    7.50
   0  10   2   40.10    7.20
   0  10   2   31.30   12.20
   0  10   2   42.00    8.20
   0  10   2   27.30    6.50
  -1 -10  -2  486.45   22.40
  -1 -10  -2  505.15   31.70
  -1 -10  -2  500.55   23.10
   1  10   2  509.55   21.50
   1  10   2  497.55   21.70
   1  10   2  567.54   29.70
   1  10   2  506.65   26.50
  -2 -10  -2   20.70   10.20
  -2 -10  -2   33.60   14.70
  -2 -10  -2   33.90   10.20
   2  10   2   36.80   13.90
   2  10   2   56.79   13.50
   2  10   2   30.00    8.30
   2  10   2   27.00    8.00
   4 -11  -2    1.30    9.50
   4 -11  -2   15.20   11.00
   4 -11  -2   -1.30    5.00
  -4  11   2   14.40    6.60
  -4  11   2    7.10    6.80
   3 -11  -2 1290.27   44.40
  -3  11   2 1195.98   51.79
  -3  11   2 1052.59   43.60
  -3  11   2 1225.78   40.50
  -3  11   2 1229.08   40.90
  -3  11   2 1289.67   40.80
   2 -11  -2   19.90    8.20
   2 -11  -2    5.30    5.20
   2 -11  -2    3.20    6.10
  -2  11   2   43.00   11.10
  -2  11   2    3.40    6.00
  -2  11   2    8.10    5.80
  -2  11   2    1.70    5.60
  -2  11   2    9.30   11.40
  -2  11   2   16.60   14.10
   1 -11  -2   18.00    7.20
   1 -11  -2   11.80    5.90
   1 -11  -2    8.60   14.10
   1 -11  -2    7.30    6.70
  -1  11   2   23.20   12.80
  -1  11   2   14.20    6.40
  -1  11   2   30.30   11.00
  -1  11   2   25.60    7.20
  -1  11   2   15.30    6.00
  -1  11   2   24.40   17.10
   0 -11  -2  633.34   26.90
   0 -11  -2  610.04   25.60
   0 -11  -2  597.14   35.70
   0  11   2  744.33   27.70
   0  11   2  632.74   31.30
   0  11   2  640.74   24.80
   0  12  -3  149.29   15.90
   0  12  -3  145.09   19.90
   0  12  -3  138.49   15.30
   0 -12   3  178.58   23.20
   0 -12   3  109.99   10.90
   0 -12   3  129.09   19.60
   0 -12   3  154.18   20.10
  -1  12  -3   -2.90   13.50
  -1  12  -3   10.60   10.70
  -1  12  -3    5.00    8.80
   1 -12   3   -9.70   17.80
   1 -12   3  -14.90   15.10
   1 -12   3  -10.20    6.90
   1 -12   3  -20.90   11.80
  -2  12  -3   18.10   11.50
  -2  12  -3   10.30    8.80
  -2  12  -3   16.20   12.90
   2 -12   3   23.70   17.30
   2 -12   3    0.00    9.80
   2 -12   3   16.70   16.50
   2 -12   3   18.20    8.30
   2 -12   3   13.50   13.60
  -3  12  -3  176.18   21.20
  -3  12  -3  164.48   16.20
  -3  12  -3  165.38   20.50
  -3  12  -3  138.09   18.90
   3 -12   3  152.58   20.20
   3 -12   3  154.88   19.10
   3 -12   3  185.98   17.00
  -4  12  -3   14.20   13.50
  -4  12  -3   -2.00   11.20
  -4  12  -3   14.10   10.60
  -4  12  -3    3.50   14.40
   4 -12   3   -4.10   13.40
   4 -12   3    8.90   15.60
   4 -12   3   33.00   11.40
   4 -12   3   -3.30   14.80
   2  11  -3  170.38   20.30
   2  11  -3  169.28   18.20
   2  11  -3  149.59   16.20
   2  11  -3  159.88   19.90
  -2 -11   3  164.58   17.70
  -2 -11   3  192.08   23.40
  -2 -11   3  166.38   20.50
   1  11  -3    0.30    9.10
   1  11  -3   -7.90   10.10
   1  11  -3   31.40   16.40
  -1 -11   3   10.50    3.10
  -1 -11   3   -1.70   14.70
  -1 -11   3   20.00   10.40
  -1 -11   3    7.70   11.70
  -1 -11   3   -2.90   13.10
   0  11  -3   52.69   10.40
   0  11  -3   38.30   11.10
   0  11  -3   88.49   17.30
   0 -11   3   56.09   12.20
   0 -11   3   81.09   14.50
   0 -11   3   65.69    7.20
   0 -11   3   72.49   17.00
  -1  11  -3   20.60   12.90
  -1  11  -3   -3.40    7.60
  -1  11  -3    4.90    9.30
   1 -11   3   -5.70   15.30
   1 -11   3    9.70   13.20
   1 -11   3   17.10    9.90
   1 -11   3    7.90    6.30
   1 -11   3   10.70   11.10
  -2  11  -3   -2.10    8.50
  -2  11  -3   27.70   11.90
  -2  11  -3   -3.80    9.20
  -2  11  -3    5.10   12.80
   2 -11   3   12.60   11.60
   2 -11   3    1.00    8.80
   2 -11   3    1.30   13.80
   2 -11   3   -0.30    7.20
   2 -11   3    3.60   14.80
  -3  11  -3    1.50   10.70
  -3  11  -3    9.80   10.70
  -3  11  -3   17.40    9.30
  -3  11  -3    2.10   11.00
   3 -11   3   18.10   14.50
   3 -11   3   11.20    8.50
   3 -11   3    0.90   13.10
   3 -11   3   11.90    8.80
  -4  11  -3    6.50   11.70
  -4  11  -3   13.40   12.70
  -4  11  -3   -0.30   10.50
  -4  11  -3   20.70   11.30
   4 -11   3   -2.00    9.30
   4 -11   3   27.20   13.80
   4 -11   3   16.20   16.20
   4 -11   3    7.00    8.20
  -5  11  -3  148.89   18.10
  -5  11  -3  111.19   14.60
  -5  11  -3  156.88   19.60
  -5  11  -3   99.39   15.60
   5 -11   3   93.89   13.00
   5 -11   3  104.09   20.30
   5 -11   3  123.39   17.10
   3  10  -3  103.29   13.30
   3  10  -3   83.89   14.10
   3  10  -3   79.09   12.90
   3  10  -3   50.19   16.60
  -3 -10   3   92.09   17.40
  -3 -10   3   86.99   14.90
  -3 -10   3   77.19   15.00
   2  10  -3  138.29   16.40
   2  10  -3  189.18   23.00
   2  10  -3  138.59   17.70
  -2 -10   3  145.79   17.80
  -2 -10   3  141.59   16.70
  -2 -10   3  135.69   15.70
   1  10  -3  305.97   18.60
   1  10  -3  342.47   20.40
   1  10  -3  259.97   24.70
  -1 -10   3  286.57   12.40
  -1 -10   3  303.77   23.40
  -1 -10   3  349.17   21.80
  -1 -10   3  319.17   23.90
  -1 -10   3  310.27   24.40
   0  10  -3  204.98   22.50
   0  10  -3  177.08   16.20
   0  10  -3  177.68   15.30
   0 -10   3  172.58   19.80
   0 -10   3  186.78   10.90
   0 -10   3  174.58   21.90
   0 -10   3  186.18   19.40
  -1  10  -3   49.10    9.10
  -1  10  -3   33.80    9.60
  -1  10  -3   34.30   13.00
   1 -10   3   42.10    6.90
   1 -10   3   38.50   15.40
   1 -10   3   41.90   11.90
   1 -10   3   26.30   14.10
  -2  10  -3  141.29   17.90
  -2  10  -3  137.09   16.80
  -2  10  -3  126.29   14.30
  -2  10  -3  129.59   14.90
   2 -10   3  152.18   17.60
   2 -10   3  114.29   17.30
   2 -10   3  121.79   15.60
   2 -10   3  120.49   12.50
  -3  10  -3  215.98   19.00
  -3  10  -3  213.98   19.10
  -3  10  -3  256.37   19.40
  -3  10  -3  245.38   19.10
   3 -10   3  232.48   16.10
   3 -10   3  267.47   22.40
   3 -10   3  277.77   24.70
  -4  10  -3   80.89   12.50
  -4  10  -3   97.79   14.40
  -4  10  -3   74.39   12.40
   4 -10   3   98.49   17.50
   4 -10   3   83.09   11.20
   4 -10   3   77.39   14.10
  -5  10  -3    3.70   13.30
  -5  10  -3   37.50   11.20
  -5  10  -3   21.60   12.30
   5 -10   3   23.90   13.10
   5 -10   3   15.00    8.00
   5 -10   3    9.70    9.90
   5 -10   3   20.90   15.90
  -6  10  -3  269.67   25.50
  -6  10  -3  246.58   21.50
  -6  10  -3  236.38   27.40
   6 -10   3  225.38   24.10
   6 -10   3  244.68   29.00
   6 -10   3  211.38   21.30
   4   9  -3   22.20   14.40
   4   9  -3   10.90   11.60
   4   9  -3   11.90   11.60
  -4  -9   3    8.30   13.40
  -4  -9   3  -16.70   11.60
  -4  -9   3  -16.90   10.30
  -4  -9   3   -4.70   13.10
  -4  -9   3   -8.50   12.10
   3   9  -3   89.09   11.50
   3   9  -3  113.59   13.90
   3   9  -3   88.69   11.60
   3   9  -3  101.19   15.10
  -3  -9   3   80.89   14.10
  -3  -9   3   89.39   15.00
  -3  -9   3  112.39   15.70
  -3  -9   3   92.49   12.70
   2   9  -3  302.47   18.30
   2   9  -3  286.77   18.70
   2   9  -3  254.17   17.80
   2   9  -3  269.77   22.50
  -2  -9   3  315.47   22.50
  -2  -9   3  261.47   21.30
  -2  -9   3  305.47   21.60
   1   9  -3    2.60    7.20
   1   9  -3    4.40    8.40
   1   9  -3   -8.20   10.10
  -1  -9   3    3.40    3.70
  -1  -9   3    6.40   10.70
  -1  -9   3   -1.80    9.90
  -1  -9   3   -0.10   10.20
  -1  -9   3   -3.20    7.50
   0   9  -3  567.64   25.00
   0   9  -3  569.04   25.60
   0   9  -3  624.04   31.70
   0  -9   3  620.94   30.60
   0  -9   3  598.84   21.50
   0  -9   3  592.64   30.80
   0  -9   3  643.84   29.00
   0  -9   3  531.05   26.40
  -1   9  -3   18.30    7.30
  -1   9  -3   14.10    8.70
  -1   9  -3    0.80    7.90
  -1   9  -3    5.40   11.20
   1  -9   3    7.90    5.40
   1  -9   3   15.70    9.60
   1  -9   3   12.30    9.60
   1  -9   3  -20.70   10.80
   1  -9   3   -4.00   12.60
  -2   9  -3   16.40   10.50
  -2   9  -3   20.20    8.50
  -2   9  -3   20.50    9.20
  -2   9  -3   33.70    9.50
   2  -9   3   14.50   11.40
   2  -9   3    7.30    9.90
   2  -9   3   15.10   10.70
   2  -9   3   27.30    6.40
   2  -9   3    6.30   12.70
  -3   9  -3  469.05   23.30
  -3   9  -3  430.06   24.10
  -3   9  -3  451.95   23.60
  -3   9  -3  428.16   24.00
   3  -9   3  428.56   20.20
   3  -9   3  431.66   27.10
   3  -9   3  485.75   25.60
   3  -9   3  469.65   27.20
  -4   9  -3   57.59   12.60
  -4   9  -3   48.20   10.50
  -4   9  -3   50.59   11.10
  -4   9  -3   45.20   10.70
   4  -9   3   49.50    8.70
   4  -9   3   37.70   10.40
   4  -9   3   53.39   12.70
   4  -9   3   20.70   11.00
  -5   9  -3   27.20   10.70
  -5   9  -3    3.60    9.80
  -5   9  -3   16.40   13.10
  -5   9  -3   -6.60   10.40
   5  -9   3   -4.60    8.80
   5  -9   3   -5.70    9.70
   5  -9   3    2.80   10.70
   5  -9   3  -12.60   13.30
  -6   9  -3  155.58   20.00
  -6   9  -3  149.79   17.40
  -6   9  -3  186.78   19.20
   6  -9   3  130.29   13.90
   6  -9   3  152.38   19.80
   6  -9   3  172.08   18.30
  -7   9  -3  209.98   25.10
  -7   9  -3  170.38   18.90
  -7   9  -3  240.48   28.80
  -7   9  -3  123.39   17.60
   7  -9   3  161.38   20.10
   7  -9   3  100.19   26.70
   5   8  -3   64.99   14.20
   5   8  -3   84.79   14.20
   5   8  -3   83.49   15.50
   5   8  -3   68.19   16.40
  -5  -8   3   79.29   15.10
  -5  -8   3   45.10   15.50
  -5  -8   3   81.89   15.20
  -5  -8   3   67.89   14.10
  -5  -8   3   63.99   14.30
   4   8  -3  305.17   21.90
   4   8  -3  261.37   20.70
   4   8  -3  280.57   19.20
   4   8  -3  287.27   23.50
  -4  -8   3  347.37   23.80
  -4  -8   3  304.47   22.80
  -4  -8   3  296.57   23.40
  -4  -8   3  263.57   21.80
   3   8  -3   50.39    9.10
   3   8  -3   63.39   12.70
   3   8  -3   48.50   10.00
   3   8  -3   45.60    9.70
  -3  -8   3   69.29   11.80
  -3  -8   3   61.09   12.80
  -3  -8   3   61.39   11.60
  -3  -8   3   45.10   10.30
   2   8  -3   25.40    7.70
   2   8  -3   18.40    7.60
   2   8  -3   21.10    7.80
   2   8  -3   32.30   10.40
  -2  -8   3   20.90    9.90
  -2  -8   3   25.90    2.70
  -2  -8   3   33.10   10.70
  -2  -8   3   20.70    9.30
   1   8  -3  159.28   14.30
   1   8  -3  150.78   18.20
   1   8  -3  153.28   13.50
  -1  -8   3  161.98   16.30
  -1  -8   3  172.78   16.80
  -1  -8   3  175.88   15.20
  -1  -8   3  164.98    8.40
  -1  -8   3  157.08   16.00
   0   8  -3  177.68   20.30
   0   8  -3  186.48   13.80
   0   8  -3  201.28   13.60
   0  -8   3  192.78   15.70
   0  -8   3  195.18   18.80
   0  -8   3  206.28   18.40
   0  -8   3  195.98   16.70
  -1   8  -3   -4.60   10.40
  -1   8  -3    5.90    7.60
  -1   8  -3   15.40    7.60
  -1   8  -3   17.30    6.60
   1  -8   3   16.20   12.30
   1  -8   3   -5.30   10.60
   1  -8   3   12.30    7.70
   1  -8   3   12.00    9.00
  -2   8  -3  121.09    6.20
  -2   8  -3  126.79   14.20
  -2   8  -3  128.79   12.80
  -2   8  -3  122.69   13.40
  -2   8  -3  121.39   14.10
   2  -8   3  112.19   15.50
   2  -8   3  146.39   15.90
   2  -8   3  108.29   13.10
   2  -8   3  113.59   13.80
  -3   8  -3  465.65   22.70
  -3   8  -3  405.36   23.00
  -3   8  -3  424.46   22.80
  -3   8  -3  399.46   21.00
   3  -8   3  437.96   24.60
   3  -8   3  484.85   23.80
   3  -8   3  406.36   18.90
   3  -8   3  388.86   25.10
  -4   8  -3  163.68   15.70
  -4   8  -3  164.88   16.00
  -4   8  -3  157.58   17.60
  -4   8  -3  171.28   18.50
   4  -8   3  156.58   13.80
   4  -8   3  160.78   19.70
   4  -8   3  164.68   16.70
   4  -8   3  163.18   17.60
  -5   8  -3   91.59   13.20
  -5   8  -3   80.89   11.90
  -5   8  -3   90.89   14.70
  -5   8  -3   72.19   11.10
   5  -8   3   85.19   10.70
   5  -8   3   90.59   12.90
   5  -8   3   87.59   12.60
  -6   8  -3   -3.70   12.80
  -6   8  -3   -2.90   10.80
  -6   8  -3  -10.10   10.60
  -6   8  -3   -7.30   10.70
   6  -8   3    7.60    9.70
   6  -8   3  -21.40   11.70
   6  -8   3    7.80    9.10
  -7   8  -3   97.89   17.10
  -7   8  -3   71.29   13.70
  -7   8  -3   97.59   18.10
   7  -8   3   89.99   18.10
   7  -8   3   60.79   15.80
   7  -8   3   85.19   13.60
   6   7  -3  256.87   25.10
   6   7  -3  269.67   26.70
  -6  -7   3  283.47   27.80
  -6  -7   3  297.77   27.20
  -6  -7   3  247.48   26.10
  -6  -7   3  179.48   26.80
   5   7  -3  -12.50   11.80
   5   7  -3   -4.00   12.60
   5   7  -3    9.00   11.60
   5   7  -3   11.00    9.80
  -5  -7   3    7.90   11.80
  -5  -7   3   -5.00   11.10
  -5  -7   3  -11.20   11.50
  -5  -7   3  -12.60   10.10
   4   7  -3  987.80   39.70
   4   7  -3  904.61   38.00
   4   7  -3  987.90   36.50
   4   7  -3  928.41   38.80
  -4  -7   3  999.20   39.00
  -4  -7   3 1048.90   40.30
  -4  -7   3  954.80   39.00
   3   7  -3  918.91   32.80
   3   7  -3  823.72   34.00
   3   7  -3  820.22   34.10
   3   7  -3  932.41   36.70
  -3  -7   3  898.61   35.50
  -3  -7   3  895.41   34.70
  -3  -7   3  962.40   36.30
  -3  -7   3  831.82   35.50
   2   7  -3  968.10   35.50
   2   7  -3  989.90   36.20
   2   7  -3  995.50   37.90
  -2  -7   3  940.31   35.80
  -2  -7   3  917.81   36.40
  -2  -7   3  966.00   36.80
  -2  -7   3  917.51   36.20
   1   7  -3  796.72   32.30
   1   7  -3  710.93   28.40
   1   7  -3  741.13   28.60
  -1  -7   3  776.42   30.20
  -1  -7   3  765.22   30.40
  -1  -7   3  693.33   29.70
  -1  -7   3  762.52   29.80
   0   7  -3  294.67   15.80
   0   7  -3  324.77   21.20
   0   7  -3  279.37   15.20
   0  -7   3  309.27   17.10
   0  -7   3  310.27   19.50
   0  -7   3  299.27   17.30
   0  -7   3  284.67   19.20
  -1   7  -3 2313.27   76.19
  -1   7  -3 2085.99   79.09
  -1   7  -3 2472.35   75.79
  -1   7  -3 2597.84   76.89
   1  -7   3 2279.87   79.69
   1  -7   3 2167.38   78.99
   1  -7   3 2364.46   76.99
   1  -7   3 2245.18   77.19
  -2   7  -3  134.79   15.10
  -2   7  -3  135.19   13.80
  -2   7  -3  142.59   12.10
  -2   7  -3  156.58    6.50
  -2   7  -3  151.78   14.00
   2  -7   3  166.58   15.90
   2  -7   3  163.48   14.90
   2  -7   3  132.29   16.00
   2  -7   3  163.08   16.30
  -3   7  -3   33.50    9.10
  -3   7  -3   49.10    8.80
  -3   7  -3   50.19    8.10
  -3   7  -3   54.29    9.80
   3  -7   3   44.20   10.00
   3  -7   3   55.39    9.70
   3  -7   3   47.00   10.20
  -4   7  -3  720.13   29.50
  -4   7  -3  742.73   32.10
  -4   7  -3  745.83   32.00
  -4   7  -3  758.92   30.90
   4  -7   3  815.92   32.40
   4  -7   3  737.33   28.60
   4  -7   3  704.43   30.60
   4  -7   3  773.92   32.90
  -5   7  -3   76.79   13.70
  -5   7  -3   76.59   10.60
  -5   7  -3   76.79   12.20
  -5   7  -3   46.60   10.90
   5  -7   3   78.89   12.60
   5  -7   3   53.19   10.10
   5  -7   3   86.69   10.40
  -6   7  -3   17.10   10.00
  -6   7  -3   11.70   10.90
  -6   7  -3    5.40   10.70
  -6   7  -3   17.80   13.00
   6  -7   3   -4.40    8.40
   6  -7   3    6.60   11.20
   6  -7   3   -6.50   10.00
  -7   7  -3   44.40   13.20
  -7   7  -3  101.19   16.30
  -7   7  -3   75.79   17.00
   7  -7   3   64.89   15.20
   7  -7   3   86.99   16.70
   7  -7   3   70.49   14.00
   7  -7   3   41.10   11.40
   6   6  -3  231.08   19.70
   6   6  -3  238.28   25.80
   6   6  -3  204.08   23.20
   6   6  -3  264.17   24.60
  -6  -6   3  233.18   23.60
  -6  -6   3  262.47   25.10
  -6  -6   3  223.08   23.00
  -6  -6   3  240.28   24.60
   5   6  -3    4.80    8.30
   5   6  -3    4.10   10.80
   5   6  -3   11.80   11.50
   5   6  -3   10.30   10.50
  -5  -6   3    6.70   10.10
  -5  -6   3   14.20   10.90
  -5  -6   3    7.40   11.30
  -5  -6   3  -16.10    9.50
   4   6  -3  249.88   17.10
   4   6  -3  209.38   17.10
   4   6  -3  232.38   18.80
   4   6  -3  234.58   14.90
  -4  -6   3  239.58   18.60
  -4  -6   3  217.18   17.40
  -4  -6   3  235.48   18.80
  -4  -6   3  197.38   17.20
   3   6  -3  869.61   34.20
   3   6  -3  860.51   34.60
   3   6  -3  897.91   33.70
   3   6  -3  883.61   31.70
  -3  -6   3  844.12   33.80
  -3  -6   3  873.31   34.50
  -3  -6   3  915.51   34.50
  -3  -6   3  967.20   35.20
   2   6  -3  519.55   21.90
   2   6  -3  504.25   22.90
   2   6  -3  505.65   21.80
  -2  -6   3  537.85   23.20
  -2  -6   3  535.55   22.90
  -2  -6   3  492.95   22.50
  -2  -6   3  525.45   23.00
   1   6  -3   42.30    8.10
   1   6  -3   45.60    7.00
   1   6  -3   43.20    7.10
  -1  -6   3   45.90    7.70
  -1  -6   3   58.99    8.40
  -1  -6   3   48.40    7.60
  -1  -6   3   49.50    7.80
   0   6  -3  119.49   10.10
   0   6  -3  144.09   15.10
   0   6  -3  138.29   10.90
   0  -6   3  139.89   11.50
   0  -6   3  131.79   12.40
   0  -6   3  131.69   13.50
   0  -6   3  141.19   14.00
  -1   6  -3 1414.16   57.29
  -1   6  -3 1656.83   55.39
  -1   6  -3 1693.73   53.79
  -1   6  -3 1687.93   55.29
   1  -6   3 1777.82   55.39
   1  -6   3 1465.05   56.99
   1  -6   3 1623.34   57.79
   1  -6   3 1701.33   56.89
  -2   6  -3  154.58   14.00
  -2   6  -3  145.99   12.90
  -2   6  -3  146.39   13.40
  -2   6  -3  126.29   10.40
   2  -6   3  130.69   13.20
   2  -6   3  124.69   14.10
   2  -6   3  134.79   15.20
   2  -6   3  125.99   12.20
  -3   6  -3  655.03   28.10
  -3   6  -3  670.93   28.60
  -3   6  -3  641.64   25.40
  -3   6  -3  726.53   27.60
   3  -6   3  662.73   27.50
   3  -6   3  644.04   27.20
   3  -6   3  683.93   28.70
  -4   6  -3  217.88   14.10
  -4   6  -3  203.68   16.20
  -4   6  -3  198.98   16.00
  -4   6  -3  215.08   15.80
   4  -6   3  210.48   15.50
   4  -6   3  227.08   16.70
   4  -6   3  214.38   16.80
  -5   6  -3   13.50    9.60
  -5   6  -3   10.30    8.40
  -5   6  -3   20.40    7.90
  -5   6  -3   19.40    8.50
   5  -6   3   15.30    7.60
   5  -6   3   18.70    8.70
   5  -6   3   11.50    2.90
   5  -6   3   27.00   10.10
   5  -6   3   18.40    8.70
  -6   6  -3  790.02   34.40
  -6   6  -3  817.32   37.10
  -6   6  -3  829.82   36.00
   6  -6   3  846.32   32.70
   6  -6   3  851.51   35.10
   6  -6   3  886.01   35.90
  -7   6  -3   22.10   11.80
  -7   6  -3   39.40   13.40
  -7   6  -3   31.50   12.80
  -7   6  -3   30.20   14.90
   7  -6   3   20.20   12.50
   7  -6   3   12.90   13.90
   7  -6   3   38.80   14.20
   7  -6   3    7.90    9.70
  -8   6  -3   24.00   16.00
  -8   6  -3    5.80   14.10
  -8   6  -3   -3.10   18.50
  -8   6  -3    3.80   17.50
   8  -6   3   15.50   16.20
   8  -6   3    2.80   17.10
   8  -6   3  -11.80   10.50
   8  -6   3   -3.50   23.40
   7   5  -3   98.39   18.00
   7   5  -3  130.69   17.40
   7   5  -3   98.19   16.90
  -7  -5   3   84.09   16.40
  -7  -5   3  108.69   18.00
  -7  -5   3   81.69   17.30
  -7  -5   3   76.89   18.30
   6   5  -3   39.30   14.10
   6   5  -3   34.80   12.30
   6   5  -3   47.20   14.40
  -6  -5   3   49.20   12.60
  -6  -5   3   44.10   12.30
  -6  -5   3   42.50   13.70
  -6  -5   3   49.10   13.90
   5   5  -3 1983.10   69.89
   5   5  -3 1970.30   65.79
   5   5  -3 1950.20   68.49
   5   5  -3 2030.80   68.99
  -5  -5   3 2033.70   68.79
  -5  -5   3 2051.59   69.79
  -5  -5   3 1970.80   68.69
  -5  -5   3 1947.71   68.99
   4   5  -3   -1.40    7.70
   4   5  -3   -6.00    5.70
   4   5  -3    2.10    7.30
   4   5  -3    2.50    8.10
  -4  -5   3    3.10    7.90
  -4  -5   3   -4.30    7.70
  -4  -5   3    8.50    8.60
  -4  -5   3   -6.30    7.40
   3   5  -3  415.46   20.20
   3   5  -3  395.96   18.80
   3   5  -3  397.06   19.40
   3   5  -3  404.16   16.40
  -3  -5   3  381.36   19.00
  -3  -5   3  384.06   13.30
  -3  -5   3  412.36   19.30
  -3  -5   3  367.46   19.60
   2   5  -3 3140.79  103.09
   2   5  -3 3236.68  102.39
   2   5  -3 3244.78  102.69
  -2  -5   3 3216.18  102.59
  -2  -5   3 3235.88  102.89
  -2  -5   3 3240.48  102.89
   1   5  -3 1232.88   39.60
   1   5  -3 1164.68   40.50
   1   5  -3 1087.49   39.50
  -1  -5   3 1108.59   39.90
  -1  -5   3 1126.79   40.00
  -1  -5   3 1136.29   39.80
  -1  -5   3 1210.08   39.80
   0   5  -3  230.68   12.50
   0   5  -3  220.58   12.60
   0   5  -3  234.68   15.80
   0  -5   3  248.88   13.60
   0  -5   3  228.58   14.30
   0  -5   3  247.48   14.80
   0  -5   3  229.08   12.50
  -1   5  -3 1021.70   36.60
  -1   5  -3 1068.09   36.90
  -1   5  -3 1067.79   34.60
  -1   5  -3  887.81   38.10
   1  -5   3 1063.59   35.90
   1  -5   3 1061.39   37.90
   1  -5   3 1005.80   38.40
   1  -5   3 1031.80   38.50
  -2   5  -3 1518.45   48.80
  -2   5  -3 1436.66   48.60
  -2   5  -3 1304.37   48.40
  -2   5  -3 1426.16   46.20
   2  -5   3 1374.06   48.80
   2  -5   3 1406.66   48.50
   2  -5   3 1399.26   49.10
  -3   5  -3   10.90    6.90
  -3   5  -3   20.30    6.60
  -3   5  -3   19.30    5.30
  -3   5  -3    8.60    6.30
   3  -5   3   20.80    6.70
   3  -5   3   21.40    6.80
   3  -5   3   15.30    6.80
  -4   5  -3   35.90    6.80
  -4   5  -3   29.00    7.90
  -4   5  -3   35.20    8.70
  -4   5  -3   30.90    8.90
   4  -5   3   38.40    3.80
   4  -5   3   28.80    8.00
   4  -5   3   36.80    8.30
   4  -5   3   28.00    7.50
  -5   5  -3   87.69   11.10
  -5   5  -3   93.29   12.10
  -5   5  -3   85.09   10.80
   5  -5   3   84.89   11.30
   5  -5   3  112.49   13.00
   5  -5   3   71.09   10.20
   5  -5   3   92.99    9.70
  -6   5  -3  282.77   19.20
  -6   5  -3  255.27   21.30
  -6   5  -3  258.07   20.60
   6  -5   3  276.57   21.10
   6  -5   3  283.07   20.40
   6  -5   3  284.47   17.00
   6  -5   3  254.17   21.50
  -7   5  -3    7.10   12.50
  -7   5  -3    8.60   13.30
  -7   5  -3    4.30   11.90
  -7   5  -3    5.10   12.70
   7  -5   3  -23.80   11.00
   7  -5   3    1.30   11.50
   7  -5   3    1.90   13.20
   7  -5   3   14.40    9.50
  -8   5  -3   12.90   15.10
  -8   5  -3   -1.70   14.60
  -8   5  -3    0.20   14.60
  -8   5  -3   11.80   14.90
   8  -5   3   29.70   11.40
   8  -5   3   16.20   14.00
   8  -5   3   18.90   14.70
   8  -5   3   10.00   16.10
   7   4  -3   46.40   14.90
   7   4  -3   14.80   13.10
   7   4  -3   38.80   13.90
  -7  -4   3   35.20   14.00
  -7  -4   3    8.30   13.20
  -7  -4   3   44.50   14.80
  -7  -4   3   31.60   13.50
   6   4  -3  499.85   26.30
   6   4  -3  472.15   27.30
   6   4  -3  395.66   25.30
  -6  -4   3  450.15   25.30
  -6  -4   3  444.06   25.30
  -6  -4   3  421.66   25.80
  -6  -4   3  430.76   25.20
   5   4  -3    6.90    8.70
   5   4  -3   11.30    9.30
   5   4  -3   14.90    9.30
   5   4  -3   15.40    6.00
  -5  -4   3   23.20    9.00
  -5  -4   3   11.90    8.90
  -5  -4   3   14.70    9.40
  -5  -4   3    4.50    9.40
   4   4  -3    6.40    4.70
   4   4  -3    4.80    7.40
   4   4  -3   -0.60    6.60
   4   4  -3    4.90    7.40
  -4  -4   3    3.20    2.70
  -4  -4   3   14.40    7.30
  -4  -4   3    6.00    7.10
  -4  -4   3   -6.10    6.80
  -4  -4   3    4.50    7.10
   3   4  -3   91.29   10.40
   3   4  -3  121.69    7.80
   3   4  -3  103.59   11.50
   3   4  -3  105.69   10.20
  -3  -4   3   94.89   10.90
  -3  -4   3  102.19   10.30
  -3  -4   3  101.79    5.60
  -3  -4   3  103.09   11.20
   2   4  -3 1059.19   37.00
   2   4  -3 1124.09   37.90
   2   4  -3 1059.89   37.30
  -2  -4   3 1094.39   37.20
  -2  -4   3 1063.69   37.20
  -2  -4   3 1071.99   37.60
   1   4  -3  344.57   15.20
   1   4  -3  338.07   14.60
   1   4  -3  323.47   14.50
  -1  -4   3  335.87   14.90
  -1  -4   3  329.57   14.60
  -1  -4   3  327.67   15.00
   0   4  -3 2630.54   85.59
   0   4  -3 2603.84   86.99
   0   4  -3 2919.51   85.99
   0  -4   3 2686.63   84.59
   0  -4   3 2709.63   86.19
   0  -4   3 2619.54   86.39
   0  -4   3 2625.44   85.99
  -1   4  -3   82.69   10.00
  -1   4  -3   91.29    9.80
  -1   4  -3  103.19    5.30
  -1   4  -3   94.29    9.80
  -1   4  -3   92.89    6.50
   1  -4   3   85.69   10.70
   1  -4   3  101.19    8.00
   1  -4   3   88.09    9.30
   1  -4   3   88.09   11.00
  -2   4  -3 1863.51   60.49
  -2   4  -3 1890.81   62.69
  -2   4  -3 1925.51   62.79
  -2   4  -3 1881.91   63.09
   2  -4   3 1908.81   58.99
   2  -4   3 1914.01   62.59
   2  -4   3 1887.71   62.89
   2  -4   3 2013.00   63.09
  -3   4  -3 2106.79   71.89
  -3   4  -3 2214.78   70.49
  -3   4  -3 2291.17   72.49
  -3   4  -3 2247.88   72.79
   3  -4   3 2207.58   68.89
   3  -4   3 2195.08   72.39
   3  -4   3 2293.17   72.49
   3  -4   3 2174.28   71.99
  -4   4  -3 1589.44   54.49
  -4   4  -3 1608.54   54.39
  -4   4  -3 1581.64   54.99
   4  -4   3 1631.14   54.49
   4  -4   3 1574.14   54.59
   4  -4   3 1620.34   54.69
  -5   4  -3  840.32   33.90
  -5   4  -3  886.51   34.40
  -5   4  -3  885.71   35.00
   5  -4   3  884.71   34.50
   5  -4   3  962.00   34.80
   5  -4   3  805.42   34.30
  -6   4  -3   99.09   14.00
  -6   4  -3  117.99   13.90
  -6   4  -3   94.79   12.50
  -6   4  -3  122.89   13.90
   6  -4   3   98.79   10.20
   6  -4   3   93.09   12.50
   6  -4   3   88.29   13.60
   6  -4   3  124.19   14.80
  -7   4  -3  736.83   34.60
  -7   4  -3  744.83   34.70
  -7   4  -3  753.52   34.30
  -7   4  -3  781.82   36.30
   7  -4   3  743.73   35.20
   7  -4   3  761.52   30.40
   7  -4   3  757.82   34.80
   7  -4   3  718.83   34.10
  -8   4  -3  -12.00   13.80
  -8   4  -3   11.80   11.70
  -8   4  -3   -2.20   14.30
  -8   4  -3  -27.20   14.70
  -8   4  -3   -0.60   15.40
   8  -4   3    0.90   10.20
   8  -4   3   -7.10   13.70
   8  -4   3   31.70   14.60
   8  -4   3  -20.50   16.00
   7   3  -3 1048.10   45.50
   7   3  -3 1051.69   45.10
   7   3  -3 1098.79   44.50
  -7  -3   3 1072.09   45.00
  -7  -3   3 1040.00   44.00
  -7  -3   3 1024.30   43.80
  -7  -3   3 1085.19   44.60
   6   3  -3  226.48   18.90
   6   3  -3  240.88   19.20
   6   3  -3  242.68   19.80
  -6  -3   3  248.48   20.60
  -6  -3   3  227.48   20.60
  -6  -3   3  251.17   20.40
  -6  -3   3  214.98   19.10
   5   3  -3   76.19   10.60
   5   3  -3   50.59   10.70
   5   3  -3   56.89   10.50
  -5  -3   3   49.00    9.80
  -5  -3   3   64.09   10.50
  -5  -3   3   58.99   10.00
  -5  -3   3   47.80    9.60
   4   3  -3 5341.87  166.48
   4   3  -3 5532.05  169.98
   4   3  -3 5305.57  169.58
   4   3  -3 5211.18  169.08
  -4  -3   3 5544.85  169.38
  -4  -3   3 5456.35  169.78
  -4  -3   3 5386.16  169.28
  -4  -3   3 5282.17  165.88
  -4  -3   3 5529.35  169.98
   3   3  -3  193.98   11.60
   3   3  -3  197.78   12.70
   3   3  -3  191.88   12.00
   3   3  -3  185.18    8.70
  -3  -3   3  201.88   11.80
  -3  -3   3  191.38   11.70
  -3  -3   3  193.38   12.20
  -3  -3   3  182.78    8.30
  -3  -3   3  189.48   11.90
   2   3  -3  228.28   11.50
   2   3  -3  246.68   11.80
   2   3  -3  240.98   12.50
  -2  -3   3  240.88   11.80
  -2  -3   3  242.38   11.70
  -2  -3   3  239.08   12.40
   1   3  -3 7562.84  229.18
   1   3  -3 7501.45  228.88
   1   3  -3 7292.67  228.68
  -1  -3   3 7584.54  229.28
  -1  -3   3 7196.58  228.68
  -1  -3   3 7421.46  228.58
   0   3  -3  713.83   26.00
   0   3  -3  715.13   26.10
   0   3  -3  773.12   27.50
   0  -3   3  713.83   24.40
   0  -3   3  718.43   26.80
   0  -3   3  742.83   26.50
   0  -3   3  722.53   26.30
  -1   3  -3  683.83   26.00
  -1   3  -3  724.53   26.30
  -1   3  -3  675.03   26.40
  -1   3  -3  733.13   23.50
  -1   3  -3  728.23   23.70
   1  -3   3  715.53   26.40
   1  -3   3  726.03   26.40
   1  -3   3  684.83   26.30
   1  -3   3  768.42   24.30
   1  -3   3  741.43   23.30
  -2   3  -3  243.28   12.10
  -2   3  -3  233.98   12.20
  -2   3  -3  238.68   12.10
  -2   3  -3  237.18    9.80
   2  -3   3  233.98   12.30
   2  -3   3  233.48    9.50
   2  -3   3  241.38   11.90
   2  -3   3  226.48   12.10
  -3   3  -3  494.85   20.40
  -3   3  -3  496.35   20.30
  -3   3  -3  516.15   20.90
   3  -3   3  490.25   20.20
   3  -3   3  496.55   20.60
   3  -3   3  552.04   21.00
  -4   3  -3    5.10    6.30
  -4   3  -3    0.40    6.80
  -4   3  -3    3.20    6.00
   4  -3   3   12.40    6.30
   4  -3   3   -5.70    7.00
   4  -3   3    6.50    6.30
  -5   3  -3  311.07   19.10
  -5   3  -3  321.47   18.20
  -5   3  -3  321.47   19.30
   5  -3   3  275.87   17.20
   5  -3   3  314.07   18.20
   5  -3   3  315.07   18.80
  -6   3  -3  -16.10    9.40
  -6   3  -3   -7.90    9.60
  -6   3  -3  -11.20    8.50
  -6   3  -3    3.40   10.40
   6  -3   3   -2.40    9.80
   6  -3   3  -11.00    8.70
   6  -3   3   -4.70    9.70
   6  -3   3    0.00    7.30
  -7   3  -3  177.18   17.60
  -7   3  -3  192.28   22.00
  -7   3  -3  193.58   17.90
  -7   3  -3  165.08   21.80
  -7   3  -3  182.18   20.30
   7  -3   3  208.38   20.90
   7  -3   3  176.28   22.30
   7  -3   3  157.78   19.20
   7  -3   3  197.08   15.50
  -8   3  -3  115.99   17.40
  -8   3  -3   91.69   13.90
  -8   3  -3  109.29   19.20
  -8   3  -3  103.59   17.20
  -8   3  -3   70.69   16.80
   8  -3   3   88.09   17.30
   8  -3   3  166.88   19.00
   8  -3   3  107.19   12.80
   8  -3   3   89.09   17.00
   8   2  -3   67.19   17.30
   8   2  -3   57.79   16.40
  -8  -2   3  104.69   17.70
  -8  -2   3  113.29   17.90
  -8  -2   3  103.49   17.10
  -8  -2   3   85.29   17.70
   7   2  -3   31.70   13.60
   7   2  -3   62.79   15.00
  -7  -2   3   35.30   13.70
  -7  -2   3   61.79   14.30
  -7  -2   3   63.79   13.20
  -7  -2   3   70.89   14.00
   6   2  -3  162.08   16.20
   6   2  -3  155.68   16.80
   6   2  -3  164.68   18.50
  -6  -2   3  142.99   17.30
  -6  -2   3  171.18   16.50
  -6  -2   3  185.68   18.10
  -6  -2   3  196.48   18.20
   5   2  -3   33.50    8.80
   5   2  -3   27.80    8.40
   5   2  -3   26.20    8.10
  -5  -2   3   38.10    8.80
  -5  -2   3   44.00    5.30
  -5  -2   3   45.00    9.00
  -5  -2   3   31.70    9.10
  -5  -2   3   50.79    9.30
   4   2  -3  484.45   20.80
   4   2  -3  452.25   19.90
   4   2  -3  453.45   20.00
  -4  -2   3  436.66   20.00
  -4  -2   3  447.56   19.90
  -4  -2   3  457.05   20.00
  -4  -2   3  452.15   16.70
  -4  -2   3  457.25   20.30
   3   2  -3 1726.63   56.99
   3   2  -3 1782.22   56.89
   3   2  -3 1735.73   57.09
   3   2  -3 1747.73   54.09
  -3  -2   3 1717.13   56.69
  -3  -2   3 1665.63   56.69
  -3  -2   3 1774.22   54.79
  -3  -2   3 1697.93   57.09
  -3  -2   3 1783.02   57.09
   2   2  -3 6741.13  204.18
   2   2  -3 6562.84  204.38
   2   2  -3 6627.74  204.48
  -2  -2   3 6663.73  204.08
  -2  -2   3 6506.65  202.88
  -2  -2   3 6522.95  204.38
  -2  -2   3 6732.63  204.38
   1   2  -3  446.66   16.90
   1   2  -3  462.25   17.20
   1   2  -3  481.55   17.00
  -1  -2   3  456.35   16.70
  -1  -2   3  455.95   17.40
  -1  -2   3  457.65   16.80
   0   2  -3  310.87   11.40
   0   2  -3  313.37   13.60
   0   2  -3  298.27   13.00
   0   2  -3  302.67   13.70
   0  -2   3  310.47   13.40
   0  -2   3  274.27   14.00
   0  -2   3  314.97   13.30
   0  -2   3  327.47   11.50
  -2   2  -3   42.20    5.20
  -2   2  -3   55.19    6.70
  -2   2  -3   42.80    5.20
   2  -2   3   41.70    5.30
   2  -2   3   40.70    5.10
   2  -2   3   53.19    6.70
  -3   2  -3  575.74   22.00
  -3   2  -3  576.94   22.20
  -3   2  -3  566.84   22.30
   3  -2   3  587.64   22.30
   3  -2   3  579.44   22.30
   3  -2   3  591.64   22.80
  -4   2  -3 6004.00  181.08
  -4   2  -3 5780.72  181.38
  -4   2  -3 5720.03  181.28
   4  -2   3 5663.13  181.08
   4  -2   3 5718.23  181.38
   4  -2   3 5893.01  181.08
  -5   2  -3  889.01   34.00
  -5   2  -3  857.11   33.70
  -5   2  -3  836.52   33.50
  -5   2  -3  894.71   34.50
  -5   2  -3  841.22   32.20
   5  -2   3  855.51   33.50
   5  -2   3  885.81   34.80
   5  -2   3  904.41   34.20
  -6   2  -3  634.74   30.20
  -6   2  -3  820.92   32.80
  -6   2  -3  753.42   33.30
  -6   2  -3  747.23   33.30
  -6   2  -3  776.92   32.50
   6  -2   3  758.92   28.70
   6  -2   3  760.52   32.40
   6  -2   3  755.62   33.40
   6  -2   3  797.82   32.30
  -7   2  -3  271.57   22.70
  -7   2  -3  312.57   24.80
  -7   2  -3  339.27   24.00
  -7   2  -3  297.07   20.70
  -7   2  -3  262.47   22.80
   7  -2   3  318.37   23.40
   7  -2   3  301.47   24.40
   7  -2   3  328.67   23.40
   7  -2   3  358.06   18.10
  -8   2  -3  268.17   26.20
  -8   2  -3  334.37   29.40
  -8   2  -3  347.97   23.10
  -8   2  -3  309.07   27.60
  -8   2  -3  368.86   28.30
   8  -2   3  325.37   20.40
   8  -2   3  251.07   27.00
   8  -2   3  321.47   28.70
   8  -2   3  339.77   29.80
   8   1  -3  248.38   26.00
   8   1  -3  229.18   25.70
  -8  -1   3  213.88   26.10
  -8  -1   3  290.97   25.10
  -8  -1   3  214.18   24.30
  -8  -1   3  237.68   25.30
   7   1  -3 1594.14   57.39
   7   1  -3 1376.06   51.49
   7   1  -3 1549.74   56.79
  -7  -1   3 1567.04   56.49
  -7  -1   3 1559.34   56.19
  -7  -1   3 1568.54   56.49
   6   1  -3  453.85   23.40
   6   1  -3  449.95   22.90
   6   1  -3  403.56   23.90
   6   1  -3  476.45   19.30
  -6  -1   3  468.95   23.90
  -6  -1   3  433.26   22.50
  -6  -1   3  365.86   23.40
  -6  -1   3  460.35   16.20
  -6  -1   3  479.35   23.80
   5   1  -3 1548.65   54.49
   5   1  -3 1558.24   54.09
   5   1  -3 1564.64   54.29
   5   1  -3 1555.64   51.39
  -5  -1   3 1660.23   54.29
  -5  -1   3 1619.24   54.59
  -5  -1   3 1524.95   54.29
  -5  -1   3 1593.04   54.09
  -5  -1   3 1573.44   49.40
  -5  -1   3 1574.44   51.19
   4   1  -3  802.62   30.20
   4   1  -3  810.02   30.60
   4   1  -3  844.72   30.30
   4   1  -3  819.82   28.10
  -4  -1   3  789.92   27.90
  -4  -1   3  829.02   30.20
  -4  -1   3  850.21   30.20
  -4  -1   3  845.42   30.30
  -4  -1   3  839.32   30.80
   3   1  -3 3284.67  106.69
   3   1  -3 3348.47  106.99
   3   1  -3 3487.25  107.09
  -3  -1   3 3485.55  106.99
  -3  -1   3 3368.46  106.59
  -3  -1   3 3311.27  106.69
  -3  -1   3 3477.85  107.09
  -3  -1   3 3439.56  105.49
   2   1  -3  952.50   32.40
   2   1  -3  979.80   32.60
   2   1  -3  985.90   32.60
  -2  -1   3  982.60   31.70
  -2  -1   3 1009.70   32.40
  -2  -1   3  978.70   32.50
  -2  -1   3  953.20   32.50
   1   1  -3  301.47   11.40
   1   1  -3  297.27   11.50
   1   1  -3  298.97   11.50
   1   1  -3  301.27   11.50
  -1  -1   3  286.87   11.20
  -1  -1   3  291.17   11.30
  -1  -1   3  305.97   11.60
   0   1  -3 2618.04   85.49
   0   1  -3 2648.24   85.39
   0   1  -3 2789.52   84.99
   0   1  -3 2837.02   85.79
   0  -1   3 2840.82   84.99
   0  -1   3 2744.13   85.29
   0  -1   3 2567.44   85.79
   0  -1   3 2768.32   85.29
  -1   1  -3  342.17   13.40
  -1   1  -3  355.36   13.70
  -1   1  -3  362.46   13.70
   1  -1   3  359.16   13.60
   1  -1   3  366.86   13.70
   1  -1   3  373.16   13.60
   1  -1   3  348.17   13.70
  -2   1  -3  626.24   22.10
  -2   1  -3  618.24   22.10
  -2   1  -3  609.64   21.70
   2  -1   3  604.74   21.90
   2  -1   3  610.84   21.90
   2  -1   3  612.84   22.20
  -3   1  -3 1140.09   39.50
  -3   1  -3 1192.48   39.90
  -3   1  -3 1173.48   39.40
  -3   1  -3 1149.29   39.80
   3  -1   3 1157.88   39.80
   3  -1   3 1216.28   40.30
   3  -1   3 1171.08   39.80
  -4   1  -3  178.58   13.00
  -4   1  -3  174.28   13.40
  -4   1  -3  190.08   13.10
  -4   1  -3  197.08   13.60
  -4   1  -3  174.98   12.00
   4  -1   3  180.58   13.30
   4  -1   3  188.98   13.70
   4  -1   3  198.98   13.40
  -5   1  -3   12.70    7.70
  -5   1  -3    8.60    9.00
  -5   1  -3   14.30    8.00
  -5   1  -3   23.30    8.30
  -5   1  -3    9.90    7.20
   5  -1   3    8.60    7.80
   5  -1   3   21.90    8.90
   5  -1   3   -0.30    8.80
  -6   1  -3 1181.08   45.60
  -6   1  -3 1181.98   44.80
  -6   1  -3 1190.88   45.20
  -6   1  -3 1265.97   45.60
  -6   1  -3 1243.48   43.50
   6  -1   3 1198.28   45.90
   6  -1   3 1090.29   44.10
   6  -1   3 1231.48   41.00
   6  -1   3 1113.29   44.70
  -7   1  -3   66.89   14.10
  -7   1  -3   57.09   11.10
  -7   1  -3   73.49   14.00
  -7   1  -3   56.89   13.10
  -7   1  -3   77.09   13.80
   7  -1   3   42.40   14.70
   7  -1   3   85.39   14.60
   7  -1   3   68.59   14.70
   7  -1   3   59.19    9.40
  -8   1  -3   40.60   16.50
  -8   1  -3   22.20   17.20
  -8   1  -3   21.80   12.40
  -8   1  -3   83.79   16.90
  -8   1  -3   87.09   17.00
   8  -1   3   33.60   17.40
   8  -1   3   60.79   10.30
   8  -1   3   58.59   16.50
   8  -1   3   56.19   15.50
   8   0  -3   13.00   13.40
   8   0  -3   30.20    9.70
   8   0  -3   38.10   13.80
  -8   0   3   35.80    5.40
  -8   0   3   24.50   13.90
  -8   0   3   45.40   13.10
  -8   0   3   38.50   15.30
  -8   0   3   41.90   13.60
   7   0  -3    5.20   10.30
   7   0  -3   16.60    8.00
   7   0  -3    9.30   10.40
  -7   0   3    4.80   10.60
  -7   0   3  -10.10   10.50
  -7   0   3    9.60    4.20
  -7   0   3    3.20   10.10
  -7   0   3    9.40   10.10
   6   0  -3   -7.30    7.80
   6   0  -3    1.20    6.00
   6   0  -3    0.70    8.90
   6   0  -3    2.10    9.00
  -6   0   3   -1.80    8.20
  -6   0   3   15.10    9.70
  -6   0   3    3.90    3.40
  -6   0   3    4.00    8.50
  -6   0   3    7.60    8.80
   5   0  -3 1663.53   53.89
   5   0  -3 1666.03   55.89
   5   0  -3 1576.64   55.69
   5   0  -3 1643.44   56.29
  -5   0   3 1698.63   51.69
  -5   0   3 1681.93   56.19
  -5   0   3 1595.54   55.79
  -5   0   3 1696.03   56.29
  -5   0   3 1702.03   55.89
  -5   0   3 1573.44   53.59
   4   0  -3   22.80    5.90
   4   0  -3   16.60    4.50
   4   0  -3   14.60    5.80
   4   0  -3   26.80    6.20
  -4   0   3   16.90    2.30
  -4   0   3   23.70    6.00
  -4   0   3   29.00    5.00
  -4   0   3   28.10    5.90
  -4   0   3   19.40    5.90
  -4   0   3   18.60    6.10
   3   0  -3 1204.58   40.50
   3   0  -3 1224.68   39.90
   3   0  -3 1186.68   40.60
   3   0  -3 1182.38   40.60
  -3   0   3 1254.67   39.90
  -3   0   3 1247.48   40.50
  -3   0   3 1258.47   40.70
  -3   0   3 1192.18   40.50
  -3   0   3 1265.77   37.70
  -3   0   3 1251.17   40.90
   2   0  -3 5139.19  160.58
   2   0  -3 5214.68  160.58
   2   0  -3 5262.57  160.48
   2   0  -3 4921.11  160.58
  -2   0   3 5302.17  160.38
  -2   0   3 5272.27  160.58
  -2   0   3 5397.86  160.68
  -2   0   3 5124.29  160.38
  -2   0   3 5273.97  160.38
   1   0  -3 3947.71  121.69
   1   0  -3 4042.60  122.49
   1   0  -3 4016.50  121.59
   1   0  -3 3908.21  121.19
   1   0  -3 4040.40  121.79
  -1   0   3 3912.01  122.39
  -1   0   3 3937.61  121.59
  -1   0   3 3965.30  121.19
  -1   0   3 3967.30  121.69
  -1   0   3 3847.91  121.59
   0   0  -3 4042.20  124.99
   0   0  -3 4054.59  125.09
   0   0  -3 4188.48  125.89
   0   0  -3 4022.80  124.89
   0   0   3 3985.00  125.29
   0   0   3 4097.99  124.79
   0   0   3 4115.39  124.89
   0   0   3 4020.20  125.69
   0   0   3 3973.20  124.69
  -1   0  -3  545.95   18.10
  -1   0  -3  564.44   19.10
  -1   0  -3  560.64   19.80
  -1   0  -3  558.94   19.50
  -1   0  -3  566.54   19.30
   1   0   3  565.74   19.40
   1   0   3  574.94   19.70
   1   0   3  569.04   19.30
   1   0   3  570.64   19.30
  -2   0  -3 5466.65  170.38
  -2   0  -3 5503.55  170.58
  -2   0  -3 5634.14  170.78
  -2   0  -3 5522.85  170.68
   2   0   3 5558.84  170.48
   2   0   3 5392.26  170.48
   2   0   3 5557.24  170.68
  -3   0  -3  927.21   32.20
  -3   0  -3  894.11   31.90
  -3   0  -3  909.91   31.70
  -3   0  -3  921.51   31.80
  -3   0  -3  920.81   32.30
   3   0   3  904.91   32.10
   3   0   3  872.01   31.70
   3   0   3  948.81   32.20
  -4   0  -3  612.44   25.20
  -4   0  -3  639.04   24.90
  -4   0  -3  634.34   24.70
  -4   0  -3  620.54   25.40
  -4   0  -3  620.44   25.10
   4   0   3  632.54   25.50
   4   0   3  653.13   25.50
   4   0   3  626.24   25.20
  -5   0  -3 1379.66   47.70
  -5   0  -3 1299.67   46.90
  -5   0  -3 1354.26   46.20
  -5   0  -3 1336.47   47.90
  -5   0  -3 1286.67   47.10
   5   0   3 1324.07   47.40
   5   0   3 1348.67   48.00
   5   0   3 1250.97   46.70
  -6   0  -3   19.40    9.00
  -6   0  -3   21.30   11.10
  -6   0  -3   27.70   10.10
  -6   0  -3   23.30   10.50
  -6   0  -3   16.80    9.50
   6   0   3   23.10   10.20
   6   0   3   17.60    6.50
   6   0   3   19.10   10.00
   6   0   3    5.60    9.30
  -7   0  -3  137.59   15.80
  -7   0  -3  117.59   16.70
  -7   0  -3  124.29   13.80
  -7   0  -3  121.19   16.30
  -7   0  -3   84.59   14.60
   7   0   3  104.89   15.20
   7   0   3  113.09   16.10
   7   0   3  127.79   15.90
   7   0   3  129.49   12.90
   8  -1  -3  109.79   14.90
   8  -1  -3   72.99   16.10
   8  -1  -3   93.19   11.60
  -8   1   3  125.19   15.90
  -8   1   3   97.69   15.80
  -8   1   3   82.09   14.70
  -8   1   3   81.99    8.70
  -8   1   3  108.79   17.60
   7  -1  -3  266.47   19.30
   7  -1  -3  244.28   16.00
  -7   1   3  237.88   19.70
  -7   1   3  245.58   19.70
  -7   1   3  227.98   11.60
  -7   1   3  230.98   18.00
  -7   1   3  271.67   19.70
   6  -1  -3  859.31   31.70
   6  -1  -3  906.01   33.90
  -6   1   3  864.01   34.10
  -6   1   3  845.62   33.80
  -6   1   3  861.71   28.80
  -6   1   3  846.92   34.60
  -6   1   3  861.61   33.90
   5  -1  -3   19.00    6.90
   5  -1  -3   17.10    7.70
   5  -1  -3   13.60    6.30
   5  -1  -3   16.80    5.60
  -5   1   3   19.90    6.50
  -5   1   3   22.80    7.40
  -5   1   3   19.90    3.60
  -5   1   3   12.70    6.20
  -5   1   3   24.90    6.70
  -5   1   3   23.90    6.30
   4  -1  -3 1445.66   48.10
   4  -1  -3 1471.95   48.00
   4  -1  -3 1451.65   48.30
   4  -1  -3 1454.35   47.40
   4  -1  -3 1533.85   48.60
  -4   1   3 1434.76   47.40
  -4   1   3 1355.66   47.90
  -4   1   3 1487.25   48.00
  -4   1   3 1422.56   48.10
  -4   1   3 1410.76   48.30
   3  -1  -3  201.48   10.00
   3  -1  -3  190.58   10.00
   3  -1  -3  193.08    9.70
   3  -1  -3  209.88    9.90
   3  -1  -3  192.58    9.90
  -3   1   3  189.58    9.80
  -3   1   3  198.78    9.90
  -3   1   3  204.38    9.80
  -3   1   3  195.08    9.80
  -3   1   3  193.28    9.90
   2  -1  -3  188.58    9.30
   2  -1  -3  201.78    9.20
   2  -1  -3  200.28    8.40
   2  -1  -3  194.48    8.30
  -2   1   3  186.98    8.80
  -2   1   3  186.78    8.40
  -2   1   3  195.68    8.20
  -2   1   3  211.68    8.30
  -2   1   3  196.08    7.30
  -2   1   3  198.18    8.40
   1  -1  -3 1093.39   33.50
   1  -1  -3 1091.79   33.60
   1  -1  -3 1074.29   35.50
  -1   1   3 1074.29   33.50
  -1   1   3 1060.19   33.60
  -1   1   3 1025.40   35.30
  -1   1   3 1079.19   33.50
  -1   1   3 1070.99   34.10
  -1   1   3 1076.99   33.50
  -1   1   3 1092.99   34.70
   0  -1  -3 1783.92   54.49
   0  -1  -3 1745.93   55.49
   0  -1  -3 1738.73   54.49
   0   1   3 1760.72   54.69
   0   1   3 1688.63   55.49
   0   1   3 1779.22   54.29
   0   1   3 1784.92   54.29
   0   1   3 1746.33   56.29
   0   1   3 1814.92   55.49
  -1  -1  -3   58.39    4.70
  -1  -1  -3   53.99    6.30
  -1  -1  -3   56.59    4.80
  -1  -1  -3   48.20    4.50
  -1  -1  -3   46.90    4.50
   1   1   3   56.89    4.90
   1   1   3   52.89    4.60
   1   1   3   53.49    6.00
   1   1   3   51.29    4.70
  -2  -1  -3   12.80    4.90
  -2  -1  -3   16.80    4.00
  -2  -1  -3   11.10    3.90
  -2  -1  -3   21.00    3.90
  -2  -1  -3   17.90    4.40
   2   1   3   24.60    4.50
   2   1   3   14.70    4.40
   2   1   3   18.40    4.10
   2   1   3   17.60    4.90
  -3  -1  -3 1659.53   54.69
  -3  -1  -3 1696.83   55.09
  -3  -1  -3 1679.43   54.49
  -3  -1  -3 1634.94   54.69
  -3  -1  -3 1602.54   54.59
   3   1   3 1668.13   54.79
   3   1   3 1658.93   54.99
   3   1   3 1672.03   54.89
   3   1   3 1712.43   54.79
  -4  -1  -3 1082.49   38.20
  -4  -1  -3 1126.59   39.00
  -4  -1  -3 1093.99   39.10
  -4  -1  -3 1077.19   39.00
  -4  -1  -3 1065.09   38.50
   4   1   3 1100.99   39.10
   4   1   3 1082.49   39.40
   4   1   3 1089.19   38.90
  -5  -1  -3   77.39   10.50
  -5  -1  -3   82.29    9.70
  -5  -1  -3   66.49    9.90
  -5  -1  -3   70.79    9.60
  -5  -1  -3   84.99   11.10
   5   1   3   71.09   10.90
   5   1   3   75.79   11.00
   5   1   3   49.20   10.00
   5   1   3   79.79    8.30
  -6  -1  -3   35.70   11.60
  -6  -1  -3   41.00   10.70
  -6  -1  -3   53.59   11.90
  -6  -1  -3   46.50   11.60
  -6  -1  -3   37.80    9.20
   6   1   3   50.29   12.10
   6   1   3   60.39   12.80
   6   1   3   56.49   12.40
   6   1   3   46.80    6.60
  -7  -1  -3  958.20   42.30
  -7  -1  -3  958.60   42.30
  -7  -1  -3  977.90   39.80
  -7  -1  -3 1074.69   43.40
  -7  -1  -3 1031.70   44.00
   7   1   3 1026.90   35.60
   7   1   3 1018.00   43.40
   7   1   3 1026.80   44.30
   7   1   3 1037.70   43.40
   8  -2  -3  299.87   19.80
   8  -2  -3  288.27   23.20
   8  -2  -3  247.98   21.50
  -8   2   3  242.98   23.70
  -8   2   3  301.57   14.00
  -8   2   3  275.77   24.10
  -8   2   3  274.47   23.20
  -8   2   3  327.57   25.70
   7  -2  -3  446.76   23.90
   7  -2  -3  472.85   22.00
   7  -2  -3  427.66   25.00
  -7   2   3  450.75   18.00
  -7   2   3  488.55   24.80
  -7   2   3  456.85   25.20
  -7   2   3  455.25   24.70
  -7   2   3  444.16   24.40
   6  -2  -3   92.59    9.40
   6  -2  -3   63.19    9.70
   6  -2  -3   82.69   11.30
   6  -2  -3   70.69    9.40
  -6   2   3   76.29    9.50
  -6   2   3   73.89   11.00
  -6   2   3   70.79    9.50
  -6   2   3   74.89    9.30
   5  -2  -3  234.28   13.20
   5  -2  -3  214.28   13.70
   5  -2  -3  213.28   14.00
   5  -2  -3  237.98   14.60
  -5   2   3  222.48   14.40
  -5   2   3  219.08   13.30
  -5   2   3  208.78   13.50
  -5   2   3  213.38   13.70
  -5   2   3  224.58   13.80
   4  -2  -3 2924.11   92.09
   4  -2  -3 2970.30   92.69
   4  -2  -3 2994.40   92.69
   4  -2  -3 3013.80   92.09
   4  -2  -3 2854.01   92.09
  -4   2   3 2830.82   92.59
  -4   2   3 3049.99   92.29
  -4   2   3 2661.53   92.09
  -4   2   3 2921.91   92.29
  -4   2   3 2954.90   92.29
   3  -2  -3  382.66   14.50
   3  -2  -3  352.76   14.50
   3  -2  -3  359.66   14.50
   3  -2  -3  342.37   14.30
  -3   2   3  369.26   14.60
  -3   2   3  363.06   14.00
  -3   2   3  368.66   14.00
  -3   2   3  341.37   14.20
  -3   2   3  366.06   14.30
   2  -2  -3  420.66   16.10
   2  -2  -3  419.46   14.30
   2  -2  -3  396.56   15.50
   2  -2  -3  425.66   14.60
  -2   2   3  406.96   14.40
  -2   2   3  441.36   14.60
  -2   2   3  419.36   14.40
  -2   2   3  426.36   15.80
  -2   2   3  415.36   15.70
  -2   2   3  429.66   14.40
   1  -2  -3 2564.14   80.79
  -1   2   3 2529.45   80.79
  -1   2   3 2585.64   80.89
  -1   2   3 2583.84   79.69
  -1   2   3 2538.75   79.79
   0  -2  -3 1496.65   47.60
   0  -2  -3 1458.35   47.60
   0  -2  -3 1496.85   45.80
   0  -2  -3 1504.05   45.70
   0  -2  -3 1469.95   45.80
   0  -2  -3 1466.55   45.70
   0   2   3 1481.65   45.60
   0   2   3 1496.55   47.50
   0   2   3 1479.35   46.90
   0   2   3 1470.55   45.70
   0   2   3 1456.55   48.00
  -1  -2  -3 3981.00  125.09
  -1  -2  -3 3901.71  125.49
  -1  -2  -3 4140.49  126.29
  -1  -2  -3 4018.00  124.89
  -1  -2  -3 4110.09  124.89
  -1  -2  -3 4078.09  125.09
   1   2   3 4042.60  126.09
   1   2   3 4084.29  124.99
   1   2   3 4024.20  125.09
   1   2   3 4164.98  124.99
  -2  -2  -3   10.00    4.40
  -2  -2  -3    3.90    4.10
  -2  -2  -3   -2.60    3.90
  -2  -2  -3   -0.90    3.90
  -2  -2  -3    4.30    3.50
  -2  -2  -3    4.70    4.70
   2   2   3    0.30    3.60
   2   2   3    6.50    4.20
   2   2   3    1.50    4.70
   2   2   3    1.90    3.90
  -3  -2  -3 1435.16   49.99
  -3  -2  -3 1478.05   49.80
  -3  -2  -3 1507.75   50.29
  -3  -2  -3 1535.85   50.19
  -3  -2  -3 1453.15   49.60
   3   2   3 1465.95   50.39
   3   2   3 1551.54   49.99
   3   2   3 1567.54   50.39
   3   2   3 1503.75   49.99
  -4  -2  -3 1154.18   41.90
  -4  -2  -3 1136.19   42.00
  -4  -2  -3 1203.08   41.80
  -4  -2  -3 1149.69   41.50
  -4  -2  -3 1234.38   42.70
   4   2   3 1197.88   42.30
   4   2   3 1128.29   41.50
   4   2   3 1242.68   42.80
   4   2   3 1238.98   42.60
  -5  -2  -3  648.54   27.80
  -5  -2  -3  623.44   27.90
  -5  -2  -3  687.83   28.50
  -5  -2  -3  646.14   26.70
   5   2   3  626.34   28.30
   5   2   3  655.43   28.90
   5   2   3  678.13   22.90
   5   2   3  657.73   29.30
  -6  -2  -3  146.49   15.00
  -6  -2  -3  177.48   15.60
  -6  -2  -3  171.28   18.00
  -6  -2  -3  128.29   14.10
   6   2   3  154.48   10.20
   6   2   3  143.69   15.50
   6   2   3  170.18   17.60
   6   2   3  153.78   18.60
  -7  -2  -3   18.40   13.60
  -7  -2  -3   21.20   10.80
  -7  -2  -3    3.50   12.70
  -7  -2  -3   19.60   13.10
  -7  -2  -3    9.10   13.50
   7   2   3   28.30   14.00
   7   2   3   16.90    6.40
   7   2   3    9.60   14.20
   8  -3  -3  309.17   24.90
   8  -3  -3  294.17   24.10
   8  -3  -3  282.07   19.80
   8  -3  -3  315.97   20.40
  -8   3   3  243.78   22.20
  -8   3   3  287.67   24.00
  -8   3   3  263.27   15.10
  -8   3   3  286.87   23.20
  -8   3   3  283.47   25.20
   7  -3  -3  359.56   28.20
   7  -3  -3  381.56   21.20
   7  -3  -3  362.56   19.90
   7  -3  -3  324.27   19.40
   7  -3  -3  373.76   21.30
  -7   3   3  389.96   22.20
  -7   3   3  391.56   21.70
  -7   3   3  368.36   21.90
  -7   3   3  377.06   23.00
   6  -3  -3  190.78   16.00
   6  -3  -3  187.58   13.90
   6  -3  -3  162.88   13.20
   6  -3  -3  194.78   16.00
   6  -3  -3  197.28   14.70
  -6   3   3  186.78   15.80
  -6   3   3  190.98   15.20
  -6   3   3  189.28   15.00
  -6   3   3  216.38   14.70
   5  -3  -3  138.99   12.10
   5  -3  -3  144.99   10.60
   5  -3  -3  123.19   12.50
   5  -3  -3  135.29   10.90
   5  -3  -3  133.99   11.10
  -5   3   3  117.29   11.60
  -5   3   3  139.79   11.20
  -5   3   3  150.38   12.30
  -5   3   3  119.09   11.60
  -5   3   3  120.29   11.60
   4  -3  -3  153.78   10.80
   4  -3  -3  148.69   10.00
   4  -3  -3  139.59   10.80
   4  -3  -3  152.68   10.30
  -4   3   3  148.49   11.10
  -4   3   3  160.98   10.60
  -4   3   3  159.58   10.00
  -4   3   3  160.08   11.00
  -4   3   3  169.48   10.00
   3  -3  -3 1220.78   41.60
   3  -3  -3 1295.47   41.20
   3  -3  -3 1271.57   41.80
   3  -3  -3 1278.47   40.70
   3  -3  -3 1333.07   41.10
  -3   3   3 1187.68   41.00
  -3   3   3 1296.17   40.90
  -3   3   3 1215.38   40.90
  -3   3   3 1286.37   41.90
  -3   3   3 1252.17   40.70
   2  -3  -3  447.16   17.20
   2  -3  -3  475.05   16.00
   2  -3  -3  451.55   15.50
  -2   3   3  485.45   16.00
  -2   3   3  494.95   15.60
  -2   3   3  445.86   19.00
  -2   3   3  454.65   17.50
  -2   3   3  470.85   18.10
  -2   3   3  465.55   15.90
  -2   3   3  489.35   15.60
   1  -3  -3    5.70    3.40
  -1   3   3    1.80    3.40
  -1   3   3   10.50    4.80
  -1   3   3    1.20    3.20
  -1   3   3    3.90    4.50
   0  -3  -3  472.35   15.90
   0  -3  -3  468.05   18.40
   0  -3  -3  476.95   15.80
   0  -3  -3  510.55   15.90
   0  -3  -3  503.85   15.70
   0   3   3  489.95   17.00
   0   3   3  487.95   19.40
   0   3   3  491.55   15.60
   0   3   3  447.96   16.10
   0   3   3  486.25   18.00
  -1  -3  -3 2858.51   88.99
  -1  -3  -3 2894.41   90.39
  -1  -3  -3 2931.81   88.89
  -1  -3  -3 2858.11   89.09
  -1  -3  -3 2817.12   88.79
  -1  -3  -3 2779.62   89.99
   1   3   3 2868.81   90.39
   1   3   3 2845.52   88.79
   1   3   3 2821.42   88.49
   1   3   3 2919.21   89.09
  -2  -3  -3  139.09    8.80
  -2  -3  -3  135.29   10.20
  -2  -3  -3  144.49   10.10
  -2  -3  -3  163.08    9.50
  -2  -3  -3  137.99    9.30
   2   3   3  131.39    8.50
   2   3   3  133.69    9.10
   2   3   3  139.49   10.90
   2   3   3  143.69    9.50
  -3  -3  -3  133.49   10.30
  -3  -3  -3  131.99   10.60
  -3  -3  -3  117.19   11.40
  -3  -3  -3  130.09   11.20
  -3  -3  -3  134.39   11.00
  -3  -3  -3  119.79   10.80
   3   3   3  125.79   11.30
   3   3   3  124.19   12.20
   3   3   3  124.29   10.90
  -4  -3  -3 1332.27   45.80
  -4  -3  -3 1308.77   45.80
  -4  -3  -3 1282.47   46.10
  -4  -3  -3 1252.87   45.40
  -4  -3  -3 1313.57   45.30
   4   3   3 1302.67   45.90
   4   3   3 1303.97   46.40
   4   3   3 1295.17   45.60
  -5  -3  -3  672.23   29.50
  -5  -3  -3  606.94   27.60
  -5  -3  -3  617.64   27.00
  -5  -3  -3  641.74   28.30
   5   3   3  622.24   28.00
   5   3   3  656.73   29.00
   5   3   3  659.23   28.90
   5   3   3  600.54   21.40
  -6  -3  -3  491.95   33.60
  -6  -3  -3  507.35   28.80
  -6  -3  -3  495.15   26.80
  -6  -3  -3  558.74   28.10
  -6  -3  -3  495.05   25.20
   6   3   3  501.45   28.10
   6   3   3  484.55   18.30
   6   3   3  509.55   27.60
   6   3   3  531.85   28.80
   8  -4  -3   15.70   13.60
   8  -4  -3   26.70   10.90
   8  -4  -3  -13.50   12.00
   8  -4  -3    6.10    9.90
   8  -4  -3    4.50    7.40
  -8   4   3   31.30   12.30
  -8   4   3   14.80   12.60
  -8   4   3   23.40   12.20
  -8   4   3   -3.60   11.50
   7  -4  -3  256.77   17.20
   7  -4  -3  217.18   19.40
   7  -4  -3  164.78   19.20
   7  -4  -3  223.58   15.50
  -7   4   3  217.08   17.90
  -7   4   3  227.58   19.20
  -7   4   3  202.48   17.00
  -7   4   3  225.28   18.40
   6  -4  -3  462.85   23.70
   6  -4  -3  479.65   20.70
   6  -4  -3  494.75   22.10
   6  -4  -3  510.95   23.20
   6  -4  -3  486.55   22.10
  -6   4   3  456.15   21.80
  -6   4   3  513.75   22.70
  -6   4   3  487.95   22.90
  -6   4   3  549.15   23.80
   5  -4  -3  600.84   22.80
   5  -4  -3  599.14   23.80
   5  -4  -3  604.64   24.20
   5  -4  -3  553.94   23.90
  -5   4   3  621.14   23.40
  -5   4   3  634.64   23.50
  -5   4   3  562.64   24.20
  -5   4   3  555.14   24.10
  -5   4   3  578.94   23.70
   4  -4  -3    5.60    4.00
   4  -4  -3    3.90    5.80
   4  -4  -3    5.50    5.20
   4  -4  -3    5.50    5.10
   4  -4  -3   -2.60    5.00
  -4   4   3    3.50    4.50
  -4   4   3   -3.60    4.90
  -4   4   3   -1.40    5.50
  -4   4   3   -1.20    4.60
  -4   4   3    7.30    4.30
   3  -4  -3 1567.64   50.29
   3  -4  -3 1595.34   51.59
   3  -4  -3 1599.94   50.09
   3  -4  -3 1555.04   51.49
   3  -4  -3 1595.44   50.69
  -3   4   3 1581.14   50.59
  -3   4   3 1604.54   51.69
  -3   4   3 1583.24   50.49
  -3   4   3 1439.36   50.69
  -3   4   3 1583.04   49.99
  -3   4   3 1620.74   50.09
   2  -4  -3  702.23   22.70
   2  -4  -3  717.23   22.50
   2  -4  -3  729.13   23.40
   2  -4  -3  693.43   24.50
  -2   4   3  666.73   22.80
  -2   4   3  734.93   22.30
  -2   4   3  642.44   25.40
  -2   4   3  662.33   22.60
  -2   4   3  719.33   22.40
  -2   4   3  695.03   24.70
  -2   4   3  697.63   27.30
   1  -4  -3 1717.03   54.29
   1  -4  -3 1614.64   52.49
   1  -4  -3 1755.92   52.49
   1  -4  -3 1621.14   52.19
  -1   4   3 1727.63   54.99
  -1   4   3 1755.32   54.29
  -1   4   3 1693.73   56.79
  -1   4   3 1723.03   55.49
   0  -4  -3 3246.78   98.29
   0  -4  -3 3169.38  100.89
   0  -4  -3 3061.89   98.59
   0  -4  -3 3200.08   98.09
   0  -4  -3 3041.70   98.69
   0   4   3 3329.37  100.59
   0   4   3 3279.87   98.99
   0   4   3 3260.97  101.99
   0   4   3 3186.88   97.99
   0   4   3 3152.28   98.99
   0   4   3 3162.88   97.99
  -1  -4  -3   -1.70    3.10
  -1  -4  -3   -1.60    5.30
  -1  -4  -3    5.80    3.20
  -1  -4  -3    2.10    3.50
  -1  -4  -3    2.70    3.70
   1   4   3    1.00    2.80
   1   4   3   -1.20    3.00
   1   4   3   -0.50    3.20
   1   4   3    6.60    3.70
   1   4   3    3.80    5.10
  -2  -4  -3 1796.42   58.79
  -2  -4  -3 1761.12   58.29
  -2  -4  -3 1819.62   59.79
  -2  -4  -3 1840.72   59.79
  -2  -4  -3 1843.42   58.29
  -2  -4  -3 1790.52   58.59
   2   4   3 1789.22   59.79
   2   4   3 1793.12   58.39
   2   4   3 1841.62   56.19
   2   4   3 1789.72   58.89
  -3  -4  -3   26.20    7.00
  -3  -4  -3   19.80    7.50
  -3  -4  -3   30.10    6.40
  -3  -4  -3   29.00    7.70
  -3  -4  -3   18.20    6.40
  -3  -4  -3   24.30    6.80
   3   4   3   23.70    7.30
   3   4   3   19.70    7.90
   3   4   3   28.00    6.40
  -4  -4  -3  218.98   15.80
  -4  -4  -3  265.07   16.60
  -4  -4  -3  186.38   16.80
  -4  -4  -3  235.58   16.80
  -4  -4  -3  223.38   15.50
  -4  -4  -3  216.88   15.30
   4   4   3  243.98   17.90
   4   4   3  222.98    8.10
   4   4   3  213.58   16.00
   4   4   3  214.38   15.40
  -5  -4  -3  746.43   32.30
  -5  -4  -3  773.42   33.90
  -5  -4  -3  788.22   32.80
  -5  -4  -3  780.12   32.10
  -5  -4  -3  799.12   33.20
   5   4   3  780.22   32.70
   5   4   3  773.02   33.40
  -6  -4  -3  124.59   17.10
  -6  -4  -3  166.68   20.60
  -6  -4  -3  118.89   14.10
  -6  -4  -3  105.49   15.10
  -6  -4  -3  186.08   18.60
   6   4   3  139.49   16.50
   6   4   3  126.19   16.40
   8  -5  -3   -9.00    7.20
   8  -5  -3   20.00   12.90
   8  -5  -3   18.70   13.60
   8  -5  -3    0.30   10.00
   8  -5  -3   16.50    9.80
  -8   5   3   -2.10   10.90
  -8   5   3   14.50   11.30
  -8   5   3   37.30   14.00
  -8   5   3   10.20    9.70
   7  -5  -3   21.90   10.90
   7  -5  -3    3.40    7.60
   7  -5  -3    9.20   10.00
   7  -5  -3   18.20    8.70
   7  -5  -3   -5.90    5.80
  -7   5   3   -3.20   10.40
  -7   5   3    7.60    9.20
  -7   5   3    9.10    9.20
  -7   5   3    9.60    8.80
   6  -5  -3  315.57   15.90
   6  -5  -3  288.97   18.00
   6  -5  -3  286.57   18.30
   6  -5  -3  298.47   19.20
   6  -5  -3  275.27   16.90
  -6   5   3  306.37   19.10
  -6   5   3  295.27   17.10
  -6   5   3  293.07   17.00
  -6   5   3  328.87   18.90
   5  -5  -3  594.64   23.00
   5  -5  -3  620.84   24.80
   5  -5  -3  598.04   24.00
   5  -5  -3  625.24   24.50
   5  -5  -3  611.44   23.10
  -5   5   3  538.85   23.20
  -5   5   3  491.25   23.40
  -5   5   3  610.74   24.50
  -5   5   3  614.44   23.20
  -5   5   3  619.64   24.40
   4  -5  -3   78.39    9.10
   4  -5  -3   77.49    9.80
   4  -5  -3   74.69    7.60
   4  -5  -3   79.49    8.00
   4  -5  -3   76.39    8.60
  -4   5   3   74.19    8.30
  -4   5   3   73.99    9.40
  -4   5   3   83.59    8.20
  -4   5   3   76.89    8.10
  -4   5   3   65.79   10.80
  -4   5   3   74.49    8.90
   3  -5  -3   49.60    6.70
   3  -5  -3   47.70    6.00
   3  -5  -3   39.20    4.30
  -3   5   3   48.00    5.60
  -3   5   3   42.70    6.50
  -3   5   3   48.90    5.90
  -3   5   3   45.90    9.40
  -3   5   3   55.79    6.50
  -3   5   3   45.30    5.70
  -3   5   3   45.20    5.30
   2  -5  -3  559.64   20.70
   2  -5  -3  586.24   19.50
   2  -5  -3  594.04   19.80
   2  -5  -3  574.74   21.80
  -2   5   3  627.04   19.20
  -2   5   3  584.94   19.60
  -2   5   3  574.54   25.10
  -2   5   3  611.14   23.40
  -2   5   3  614.14   19.30
  -2   5   3  599.04   22.20
   1  -5  -3  914.81   29.90
   1  -5  -3  916.81   34.30
   1  -5  -3  963.50   30.20
   1  -5  -3  913.41   30.50
   1  -5  -3  950.50   31.80
  -1   5   3  914.91   33.00
  -1   5   3 1015.70   29.40
  -1   5   3  975.10   33.10
  -1   5   3  959.00   31.80
  -1   5   3  946.51   29.60
  -1   5   3  914.31   35.10
   0  -5  -3    0.90    2.60
   0  -5  -3   -1.20    2.90
   0  -5  -3    5.40    6.30
   0  -5  -3   -2.50    3.60
   0   5   3    0.90    2.70
   0   5   3    3.80    2.60
   0   5   3   -2.70    3.40
   0   5   3   -4.90    4.00
   0   5   3   -0.40    7.00
   0   5   3   10.20    5.60
  -1  -5  -3   26.30    5.20
  -1  -5  -3   31.30    4.70
  -1  -5  -3   24.80    4.80
  -1  -5  -3   31.90    7.70
  -1  -5  -3   20.50    4.20
   1   5   3   28.50    5.40
   1   5   3   23.80    4.20
   1   5   3   20.40    6.70
   1   5   3   21.30    4.30
   1   5   3   25.10    3.60
  -2  -5  -3 1884.91   62.19
  -2  -5  -3 1870.71   60.09
  -2  -5  -3 1825.02   60.49
  -2  -5  -3 1848.52   60.09
   2   5   3 1790.22   59.49
   2   5   3 1852.81   59.89
   2   5   3 1866.61   57.19
   2   5   3 1838.62   60.69
   2   5   3 1824.32   61.79
  -3  -5  -3   14.90    7.30
  -3  -5  -3    6.30    6.70
  -3  -5  -3    7.80    7.40
  -3  -5  -3   16.10    9.00
  -3  -5  -3   13.50    5.90
   3   5   3    8.10    6.50
   3   5   3   23.90    8.80
   3   5   3   15.70    7.50
  -4  -5  -3  281.17   18.80
  -4  -5  -3  260.37   17.90
  -4  -5  -3  299.57   19.80
   4   5   3  293.97   18.10
   4   5   3  297.47   18.80
   4   5   3  250.77   20.00
  -5  -5  -3  244.08   20.80
  -5  -5  -3  215.78   18.90
  -5  -5  -3  201.38   19.00
  -5  -5  -3  191.78   19.80
   5   5   3  232.38   19.60
   5   5   3  236.28   18.90
  -6  -5  -3   14.10   12.90
  -6  -5  -3    0.40   14.00
  -6  -5  -3   21.90   11.40
  -6  -5  -3  -20.10    9.00
   6   5   3    0.90   12.70
   6   5   3   35.60   14.40
   7  -6  -3  247.28   22.10
   7  -6  -3  245.78   15.80
   7  -6  -3  269.07   19.00
   7  -6  -3  258.27   20.10
  -7   6   3  231.38   21.00
  -7   6   3  209.38   19.60
  -7   6   3  246.28   17.90
  -7   6   3  208.48   18.10
   6  -6  -3  169.28   16.30
   6  -6  -3  202.68   13.70
   6  -6  -3  209.68   15.40
  -6   6   3  213.18   14.90
  -6   6   3  206.68   14.60
  -6   6   3  207.38   17.40
  -6   6   3  224.98   16.80
   5  -6  -3    0.70    8.10
   5  -6  -3    2.00    7.40
   5  -6  -3    5.00    5.30
   5  -6  -3    0.80    6.50
   5  -6  -3   12.50    6.70
  -5   6   3    5.10    5.40
  -5   6   3   -4.90    6.30
  -5   6   3    3.70    6.70
  -5   6   3   -3.40    5.90
   4  -6  -3 1409.36   47.00
   4  -6  -3 1403.56   45.30
   4  -6  -3 1328.27   44.70
   4  -6  -3 1454.45   46.60
  -4   6   3 1293.27   45.60
  -4   6   3 1378.36   44.80
  -4   6   3 1363.66   47.10
  -4   6   3 1388.96   50.69
  -4   6   3 1342.37   44.70
  -4   6   3 1309.87   45.80
   3  -6  -3   39.10    4.30
   3  -6  -3   36.70    6.40
   3  -6  -3   42.90    7.40
  -3   6   3   42.70    5.50
  -3   6   3   42.70    5.30
  -3   6   3   23.00    9.20
  -3   6   3   42.10    7.20
  -3   6   3   43.80    7.00
  -3   6   3   44.40    4.50
   2  -6  -3  120.49   10.20
   2  -6  -3  123.69    7.10
   2  -6  -3  122.49    7.80
   2  -6  -3  120.59    6.40
  -2   6   3  137.79   13.90
  -2   6   3  118.29    5.80
  -2   6   3  124.59    6.30
  -2   6   3  127.09   10.30
  -2   6   3  128.99    6.00
  -2   6   3  135.09   11.90
   1  -6  -3 1310.17   46.80
   1  -6  -3 1378.16   43.20
   1  -6  -3 1376.66   42.60
   1  -6  -3 1369.76   44.00
   1  -6  -3 1263.27   42.30
  -1   6   3 1322.57   41.90
  -1   6   3 1345.57   44.00
  -1   6   3 1295.27   45.50
  -1   6   3 1317.87   45.40
  -1   6   3 1398.76   41.90
  -1   6   3 1281.07   41.60
  -1   6   3 1388.06   48.40
   0  -6  -3  450.45   17.70
   0  -6  -3  407.16   20.80
   0  -6  -3  438.56   15.70
   0  -6  -3  448.76   16.30
   0   6   3  405.06   22.00
   0   6   3  431.96   15.50
   0   6   3  435.76   19.90
   0   6   3  439.86   15.70
   0   6   3  418.26   17.50
   0   6   3  435.96   16.50
  -1  -6  -3   52.29    6.40
  -1  -6  -3   59.69    9.70
  -1  -6  -3   47.90    6.90
  -1  -6  -3   42.50    5.40
  -1  -6  -3   49.20    6.10
   1   6   3   36.90    5.20
   1   6   3   43.70    7.20
   1   6   3   48.10    4.50
   1   6   3   45.50    8.50
   1   6   3   58.09    7.20
  -2  -6  -3  505.05   21.10
  -2  -6  -3  515.25   20.60
  -2  -6  -3  517.25   24.70
  -2  -6  -3  516.15   21.10
  -2  -6  -3  510.75   22.10
   2   6   3  501.05   20.40
   2   6   3  541.05   24.10
   2   6   3  484.15   20.20
   2   6   3  533.75   22.40
  -3  -6  -3  973.90   37.60
  -3  -6  -3  923.01   35.80
  -3  -6  -3  939.81   35.30
   3   6   3  921.81   36.90
   3   6   3  911.91   35.90
   3   6   3  973.70   34.80
  -4  -6  -3   32.00   10.50
  -4  -6  -3   23.30   11.30
  -4  -6  -3   25.50    9.40
   4   6   3   41.20   10.60
   4   6   3   46.40    9.80
  -5  -6  -3   41.00   13.70
  -5  -6  -3   40.60   12.50
  -5  -6  -3   61.69   13.60
  -5  -6  -3   32.10   11.60
   5   6   3   19.00   11.50
   5   6   3   64.59   13.40
   5   6   3   31.50   15.30
   7  -7  -3   -2.60    6.10
   7  -7  -3    8.30   11.80
   7  -7  -3    5.50    5.20
   7  -7  -3   19.40    8.20
   7  -7  -3    9.30   10.90
  -7   7   3    2.00   14.20
  -7   7   3   12.20   11.70
  -7   7   3   13.80   11.10
  -7   7   3   -5.10    8.90
  -7   7   3  -16.60    8.30
   6  -7  -3  194.18   18.00
   6  -7  -3  195.78   15.50
  -6   7   3  206.38   16.50
  -6   7   3  216.88   14.50
  -6   7   3  196.98   14.90
  -6   7   3  188.08   16.60
  -6   7   3  209.48   24.50
   5  -7  -3  103.99   11.30
   5  -7  -3   90.59    9.10
   5  -7  -3  100.69   11.70
   5  -7  -3  110.29   11.30
  -5   7   3   98.89   12.10
  -5   7   3  116.29   12.60
  -5   7   3  103.59   10.40
  -5   7   3   89.59   10.50
   4  -7  -3   16.00    8.10
   4  -7  -3    0.10    4.40
   4  -7  -3    2.10    5.30
   4  -7  -3   -6.80    7.00
  -4   7   3   -6.50    4.40
  -4   7   3    5.10    5.50
  -4   7   3    0.60    6.30
  -4   7   3    1.70    4.60
   3  -7  -3  416.16   18.50
   3  -7  -3  376.36   19.30
   3  -7  -3  430.76   16.00
  -3   7   3  439.16   16.50
  -3   7   3  447.26   15.70
  -3   7   3  408.76   19.80
  -3   7   3  446.86   16.20
  -3   7   3  442.26   19.60
  -3   7   3  455.65   24.20
   2  -7  -3   44.70    7.30
   2  -7  -3   44.70    5.20
   2  -7  -3   42.90    4.20
   2  -7  -3   42.90    4.70
  -2   7   3   45.70   11.20
  -2   7   3   41.00    4.80
  -2   7   3   43.90    4.50
  -2   7   3   40.20    3.80
  -2   7   3   35.80    6.70
  -2   7   3   44.00    8.50
   1  -7  -3   -2.50    8.50
   1  -7  -3    2.50    4.60
   1  -7  -3    2.60    3.40
   1  -7  -3    6.60    3.80
  -1   7   3   19.20    7.20
  -1   7   3    1.00    3.10
  -1   7   3    3.00    2.90
  -1   7   3    2.70    3.00
  -1   7   3   10.60    9.60
  -1   7   3    0.70    7.30
  -1   7   3    9.30    5.30
   0  -7  -3  300.27   14.90
   0  -7  -3  281.57   19.00
   0  -7  -3  285.47   12.30
   0  -7  -3  297.07   13.10
   0   7   3  251.87   20.60
   0   7   3  292.57   14.10
   0   7   3  286.67   12.10
   0   7   3  288.77   17.30
   0   7   3  283.87   12.00
   0   7   3  288.27   12.90
  -1  -7  -3   36.90    6.40
  -1  -7  -3   40.00    7.90
  -1  -7  -3   26.90    6.70
  -1  -7  -3   31.00    5.60
  -1  -7  -3   54.19   10.70
   1   7   3   43.00    5.60
   1   7   3   39.70    5.80
   1   7   3   45.20    8.20
  -2  -7  -3  136.29   12.50
  -2  -7  -3  154.28   18.10
  -2  -7  -3  143.79   14.00
  -2  -7  -3  133.69   12.50
   2   7   3  145.09   11.30
   2   7   3  151.08   11.30
   2   7   3  122.09   13.80
  -3  -7  -3  115.39   12.60
  -3  -7  -3  151.78   15.80
   3   7   3  115.39   13.20
   3   7   3  151.78   16.20
   3   7   3  116.59   16.10
  -4  -7  -3  177.98   17.20
  -4  -7  -3  204.38   19.60
  -4  -7  -3  179.68   17.40
  -4  -7  -3  155.08   17.00
   4   7   3  179.78   16.60
   4   7   3  159.08   19.60
   4   7   3  188.28   17.80
   6  -8  -3  164.28   18.80
   6  -8  -3  191.58   19.90
  -6   8   3  187.48   14.70
  -6   8   3  193.98   20.50
  -6   8   3  192.88   17.50
  -6   8   3  187.18   14.20
  -6   8   3  201.28   16.40
   5  -8  -3   59.99   11.30
   5  -8  -3   54.19   10.90
  -5   8   3   34.10    7.60
  -5   8   3   45.50    7.40
  -5   8   3   48.30    8.30
  -5   8   3   52.39    7.10
   4  -8  -3   11.00    5.10
   4  -8  -3   15.40    8.10
   4  -8  -3    8.70    5.60
   4  -8  -3    2.30    8.20
  -4   8   3   12.90    6.10
  -4   8   3    2.70    4.60
  -4   8   3    6.60    5.30
  -4   8   3   15.60    6.10
   3  -8  -3  395.76   19.30
   3  -8  -3  414.36   17.50
   3  -8  -3  386.16   15.20
  -3   8   3  403.86   14.70
  -3   8   3  347.37   19.70
  -3   8   3  405.76   14.90
  -3   8   3  380.76   15.20
   2  -8  -3   58.59    8.00
   2  -8  -3   73.19    8.10
   2  -8  -3   64.89    7.50
   2  -8  -3   68.69    6.90
  -2   8   3   71.99    6.10
  -2   8   3   70.99    5.80
  -2   8   3   65.09   12.80
  -2   8   3   72.59   10.20
  -2   8   3   64.59    5.40
  -2   8   3   91.59   10.40
   1  -8  -3   81.69    7.90
   1  -8  -3   87.49   12.30
   1  -8  -3   96.19   10.80
   1  -8  -3   93.79    8.20
  -1   8   3   92.49   14.50
  -1   8   3  100.79    7.10
  -1   8   3   93.39   11.00
  -1   8   3   87.19    6.50
  -1   8   3   93.39    6.70
  -1   8   3   90.59   10.70
   0  -8  -3  412.96   18.30
   0  -8  -3  388.06   15.70
   0  -8  -3  363.86   16.40
   0  -8  -3  384.06   23.50
   0  -8  -3  375.36   20.20
   0   8   3  390.96   26.60
   0   8   3  376.66   15.50
   0   8   3  402.96   17.30
   0   8   3  381.96   15.30
  -1  -8  -3   39.90    7.30
  -1  -8  -3   42.10    8.10
  -1  -8  -3   61.39    9.80
  -1  -8  -3   31.10   11.40
   1   8   3   56.09    6.60
   1   8   3   60.79    6.60
   1   8   3   55.69    9.70
  -2  -8  -3   63.89   14.50
  -2  -8  -3   66.09    8.90
   2   8   3   63.09    8.00
   2   8   3   63.99    7.90
   2   8   3   71.19   10.90
   2   8   3   50.19   12.40
  -3  -8  -3  210.78   17.00
  -3  -8  -3  204.68   17.60
  -3  -8  -3  207.48   23.20
   3   8   3  238.88   16.50
   3   8   3  229.38   19.90
   3   8   3  244.88   21.30
   6  -9  -3   44.60   12.60
   6  -9  -3   95.29   14.60
  -6   9   3   77.39   10.60
  -6   9   3   62.59    8.70
  -6   9   3   72.79   18.00
  -6   9   3   74.49    9.30
  -6   9   3   73.49    9.60
   5  -9  -3  182.28   18.70
  -5   9   3  177.18   14.50
  -5   9   3  148.69   20.60
  -5   9   3  173.78   15.10
  -5   9   3  183.58   12.50
  -5   9   3  173.58   12.40
   4  -9  -3  165.98   15.00
   4  -9  -3  181.98   16.60
  -4   9   3  134.99   10.00
  -4   9   3  155.08   10.70
  -4   9   3  140.79   10.50
  -4   9   3  141.09   10.20
   3  -9  -3   40.80    8.50
   3  -9  -3   22.60    4.80
   3  -9  -3   30.80    6.60
  -3   9   3   27.10    4.50
  -3   9   3   27.30    4.10
  -3   9   3   26.50    9.70
  -3   9   3   26.70    4.30
   2  -9  -3  184.18   11.20
   2  -9  -3  196.58   14.10
   2  -9  -3  185.88   10.20
  -2   9   3  206.58    8.80
  -2   9   3  193.78   16.50
  -2   9   3  178.98    9.10
  -2   9   3  180.18    8.20
  -2   9   3  209.68   17.60
  -2   9   3  189.28   19.40
   1  -9  -3  381.86   16.50
   1  -9  -3  416.06   25.90
  -1   9   3  381.36   21.20
  -1   9   3  409.16   15.40
  -1   9   3  422.86   15.50
  -1   9   3  410.16   15.00
  -1   9   3  425.66   22.00
  -1   9   3  418.86   26.90
   0  -9  -3   21.40    5.50
   0  -9  -3   -3.10    5.70
   0  -9  -3    8.60   11.50
   0  -9  -3    6.10    7.10
   0   9   3   -2.50    6.10
   0   9   3    0.90    4.90
   0   9   3   -5.60    4.50
  -1  -9  -3    3.80    7.00
  -1  -9  -3    0.50    5.60
  -1  -9  -3    3.40    6.30
  -1  -9  -3   17.90    6.90
  -1  -9  -3   26.50   13.30
   1   9   3   12.00    6.20
   1   9   3   19.80    9.00
   1   9   3   15.10   11.50
   1   9   3    4.40    6.00
  -2  -9  -3  394.36   20.20
  -2  -9  -3  411.76   20.70
  -2  -9  -3  433.56   29.00
   2   9   3  386.06   18.80
   2   9   3  421.76   25.60
   2   9   3  369.06   19.00
   2   9   3  403.36   24.30
   5 -10  -3   52.69   12.50
   5 -10  -3   98.39   13.20
  -5  10   3   60.09    7.70
  -5  10   3   91.29   10.60
  -5  10   3   70.69   10.40
  -5  10   3   80.09    9.30
   4 -10  -3   25.70    9.90
   4 -10  -3    3.10    4.20
   4 -10  -3   24.10    8.40
  -4  10   3   16.50    5.10
  -4  10   3   19.10    5.20
  -4  10   3   14.50    5.50
  -4  10   3    8.20   15.10
  -4  10   3   22.10    5.60
   3 -10  -3  290.37   18.50
   3 -10  -3  271.87   15.10
  -3  10   3  270.87   12.10
  -3  10   3  301.07   11.10
  -3  10   3  279.47   10.90
  -3  10   3  292.27   27.90
  -3  10   3  258.77   21.10
  -3  10   3  271.87   19.90
   2 -10  -3   58.89    7.20
  -2  10   3   58.29   16.10
  -2  10   3   74.09   12.00
  -2  10   3   59.89    6.90
  -2  10   3   70.59   12.90
   1 -10  -3    2.80   13.70
   1 -10  -3    5.20    4.30
   1 -10  -3   28.40    5.70
   1 -10  -3   12.80    5.80
  -1  10   3   25.10    4.60
  -1  10   3   14.80    4.60
  -1  10   3   15.60   10.50
  -1  10   3   27.90   16.10
  -1  10   3    9.20   11.60
   0 -10  -3  314.87   28.10
   0 -10  -3  318.87   15.90
   0  10   3  339.97   24.30
   0  10   3  359.06   16.40
   0  10   3  333.57   15.00
   0  10   3  324.97   15.10
  -1 -10  -3    3.30    8.00
  -1 -10  -3  -18.60    8.00
  -1 -10  -3    4.80    7.60
  -1 -10  -3   -0.10    7.60
  -1 -10  -3   19.90   15.90
   1  10   3   -1.70    6.50
   1  10   3   -5.20    7.00
   1  10   3   -0.80    9.00
   1  10   3   15.30   12.50
   2 -11  -3   17.10    5.70
   2 -11  -3  -10.20    5.40
   2 -11  -3    6.80    4.40
  -2  11   3   39.90   12.30
  -2  11   3    7.40    4.20
  -2  11   3    4.90   16.00
   1  12  -4   61.09   11.50
   1  12  -4   33.40   13.90
   1  12  -4   73.49   20.00
  -1 -12   4   85.59   21.10
  -1 -12   4   49.80   21.70
  -1 -12   4   29.70   18.10
  -1 -12   4   13.10   16.70
   0  12  -4  383.46   31.50
   0  12  -4  374.06   26.10
   0  12  -4  397.26   23.60
   0 -12   4  392.36   17.80
   0 -12   4  446.66   35.20
   0 -12   4  378.76   26.60
   0 -12   4  433.16   28.90
  -1  12  -4  132.99   19.10
  -1  12  -4  125.49   15.40
  -1  12  -4  119.99   13.30
   1 -12   4  135.69   19.50
   1 -12   4  137.19   22.10
   1 -12   4  119.49   16.30
   1 -12   4  180.48   13.90
  -2  12  -4   92.29   12.60
  -2  12  -4   75.69   14.00
  -2  12  -4   74.89   16.40
  -2  12  -4   97.99    8.30
   2 -12   4   77.29   17.20
   2 -12   4   77.19   21.40
   2 -12   4   81.59   10.30
   2 -12   4   83.49   19.50
  -3  12  -4  204.28   24.70
  -3  12  -4  185.88   18.60
  -3  12  -4  158.98   18.30
  -3  12  -4  145.59   17.40
   3 -12   4  197.08   23.90
   3 -12   4  180.78   17.60
   3 -12   4  171.88   21.10
  -4  12  -4   96.79   15.90
  -4  12  -4   93.59   12.30
  -4  12  -4   77.79   15.40
  -4  12  -4   77.29   16.20
   4 -12   4   65.79   13.00
   4 -12   4   94.79   19.70
   4 -12   4   58.89   18.00
   2  11  -4   38.60   12.20
   2  11  -4   31.30   12.50
   2  11  -4   39.90   17.00
   2  11  -4   37.30   13.30
  -2 -11   4   20.60   11.90
  -2 -11   4   70.69   17.10
  -2 -11   4   42.60   13.80
  -2 -11   4   38.70   15.50
   1  11  -4  129.19   19.50
   1  11  -4  123.49   12.90
   1  11  -4   98.89   13.80
  -1 -11   4  110.59   15.20
  -1 -11   4  150.78   19.20
  -1 -11   4   83.49    7.90
  -1 -11   4  115.49   17.20
   0  11  -4   87.89   13.10
   0  11  -4  114.49   18.30
   0  11  -4  140.19   16.20
   0 -11   4   92.79   10.40
   0 -11   4  145.39   20.20
   0 -11   4   89.29   15.80
   0 -11   4   90.59   14.50
  -1  11  -4   40.20    9.80
  -1  11  -4   49.40   15.00
  -1  11  -4   59.39   11.90
   1 -11   4   48.40   17.70
   1 -11   4   49.30   12.80
   1 -11   4   15.40   10.20
   1 -11   4   47.70    8.00
   1 -11   4   37.50   14.50
  -2  11  -4    8.80    4.30
  -2  11  -4   20.80   13.40
  -2  11  -4    9.70    9.10
  -2  11  -4   -6.10   10.70
   2 -11   4   22.10   10.70
   2 -11   4  -21.90   16.30
   2 -11   4    7.90    7.60
   2 -11   4   -2.90   14.40
   2 -11   4    8.20   13.30
  -3  11  -4  214.08   21.40
  -3  11  -4  201.48   20.30
  -3  11  -4  174.08   20.80
   3 -11   4  212.58   15.80
   3 -11   4  170.98   19.80
   3 -11   4  167.38   20.80
  -4  11  -4   60.79   13.60
  -4  11  -4   75.09   14.80
  -4  11  -4   74.29   14.40
  -4  11  -4   75.19   13.50
   4 -11   4   36.10   10.20
   4 -11   4   46.00   17.10
   4 -11   4   83.79   19.80
   4 -11   4   62.49   11.10
  -5  11  -4  114.99   16.40
  -5  11  -4   76.09   14.70
  -5  11  -4  100.49   18.70
  -5  11  -4  106.59   14.90
   5 -11   4  126.29   20.80
   5 -11   4  138.69   19.50
   5 -11   4   95.29   14.40
   3  10  -4  237.98   26.30
   3  10  -4  246.28   21.70
   3  10  -4  242.88   22.30
  -3 -10   4  220.68   23.20
  -3 -10   4  256.07   23.40
  -3 -10   4  203.28   22.70
  -3 -10   4  257.07   25.60
   2  10  -4  222.58   25.00
   2  10  -4  190.18   18.20
   2  10  -4  156.58   19.20
  -2 -10   4  207.28   21.00
  -2 -10   4  207.18   22.90
  -2 -10   4  200.78   19.60
   1  10  -4  401.06   23.00
   1  10  -4  431.66   28.50
   1  10  -4  405.66   23.70
  -1 -10   4  430.16   27.80
  -1 -10   4  398.16   16.00
  -1 -10   4  431.16   27.40
  -1 -10   4  440.36   24.30
   0  10  -4   71.49   15.60
   0  10  -4   60.69   10.80
   0  10  -4   45.80    9.80
   0 -10   4   64.29    7.00
   0 -10   4   62.99   13.40
   0 -10   4   71.79   15.40
   0 -10   4   63.79   14.10
  -1  10  -4  400.76   23.40
  -1  10  -4  444.56   23.00
  -1  10  -4  408.26   28.40
   1 -10   4  391.16   29.10
   1 -10   4  511.65   31.90
   1 -10   4  469.35   27.00
   1 -10   4  445.26   19.20
  -2  10  -4    0.90    9.80
  -2  10  -4  -10.60   11.80
  -2  10  -4   -0.90   10.40
  -2  10  -4    7.10    3.90
  -2  10  -4    0.70    8.60
   2 -10   4  -16.90   12.80
   2 -10   4  -13.00   13.80
   2 -10   4  -18.50   12.10
   2 -10   4    1.60    7.20
  -3  10  -4  -14.00   10.00
  -3  10  -4    8.20   11.20
  -3  10  -4   -4.90   10.80
  -3  10  -4    1.80    9.40
   3 -10   4   11.20   12.20
   3 -10   4    0.60   13.80
   3 -10   4    3.50    8.10
  -4  10  -4  368.96   26.60
  -4  10  -4  453.75   24.30
  -4  10  -4  454.75   26.90
  -4  10  -4  426.26   25.70
   4 -10   4  443.86   27.30
   4 -10   4  426.56   22.40
   4 -10   4  456.65   27.20
   4 -10   4  386.76   32.30
  -5  10  -4   79.89   14.10
  -5  10  -4   95.19   17.90
  -5  10  -4   61.69   14.00
   5 -10   4   84.59   13.00
   5 -10   4   70.09   18.70
   5 -10   4   79.99   16.30
  -6  10  -4   55.59   15.60
  -6  10  -4   62.09   18.10
  -6  10  -4   37.90   12.90
  -6  10  -4   37.20   13.20
   6 -10   4   80.19   17.60
   6 -10   4   40.60   12.90
   6 -10   4   21.40   17.20
   4   9  -4  280.17   22.90
   4   9  -4  259.17   23.60
   4   9  -4  316.87   21.70
   4   9  -4  259.57   24.30
  -4  -9   4  254.17   25.10
  -4  -9   4  264.77   23.80
  -4  -9   4  317.17   26.60
  -4  -9   4  297.87   25.10
  -4  -9   4  277.37   25.10
   3   9  -4   93.49   11.50
   3   9  -4  118.49   13.80
   3   9  -4   89.79   16.20
   3   9  -4   83.69   12.90
  -3  -9   4   83.39   12.90
  -3  -9   4   97.29   14.20
  -3  -9   4  102.89   15.40
  -3  -9   4   78.59   14.60
   2   9  -4  163.38   17.70
   2   9  -4  147.59   16.60
   2   9  -4  205.28   21.80
  -2  -9   4  189.98   19.40
  -2  -9   4  167.98    7.80
  -2  -9   4  162.98   18.40
  -2  -9   4  149.49   18.40
   1   9  -4    2.10   10.20
   1   9  -4   -0.10    8.20
   1   9  -4  -12.70    8.50
  -1  -9   4  -20.80    9.00
  -1  -9   4   -8.60   10.20
  -1  -9   4    3.70   10.50
   0   9  -4   16.30    7.90
   0   9  -4   23.40    9.60
   0   9  -4   23.10   12.90
   0  -9   4   49.50   12.90
   0  -9   4   27.00   11.80
   0  -9   4   22.80   10.60
   0  -9   4   32.50   13.10
  -1   9  -4  729.83   37.00
  -1   9  -4  753.42   31.70
  -1   9  -4  820.12   32.70
   1  -9   4  822.72   34.50
   1  -9   4  791.62   34.20
   1  -9   4  705.93   37.00
   1  -9   4  783.52   38.20
  -2   9  -4   21.00    8.70
  -2   9  -4   12.10    3.80
  -2   9  -4   11.20   10.70
  -2   9  -4    1.90    9.40
  -2   9  -4   12.00    9.30
   2  -9   4   -2.90   13.40
   2  -9   4  -12.80   11.60
   2  -9   4    7.90   10.80
   2  -9   4   -4.00   10.50
  -3   9  -4   98.79   13.40
  -3   9  -4   97.59   12.80
  -3   9  -4   96.19   13.60
  -3   9  -4  115.49   14.20
   3  -9   4  106.89   16.50
   3  -9   4  104.79   15.10
  -4   9  -4  261.67   22.20
  -4   9  -4  266.27   21.20
  -4   9  -4  272.67   20.90
  -4   9  -4  258.37   18.90
   4  -9   4  284.07   17.50
   4  -9   4  249.48   21.70
   4  -9   4  275.27   23.70
  -5   9  -4    1.50   10.90
  -5   9  -4    3.00   11.30
  -5   9  -4    8.30   14.40
  -5   9  -4   -0.60    9.90
   5  -9   4    6.60   10.50
   5  -9   4   -0.30   13.10
   5  -9   4    3.70   10.00
  -6   9  -4  407.26   26.70
  -6   9  -4  424.56   31.80
  -6   9  -4  443.36   30.90
   6  -9   4  474.05   27.50
   6  -9   4  446.26   24.30
   6  -9   4  453.15   27.30
   6  -9   4  449.06   32.30
   5   8  -4  394.26   27.00
   5   8  -4  356.06   24.80
   5   8  -4  376.96   26.20
   5   8  -4  423.76   28.40
  -5  -8   4  405.56   28.70
  -5  -8   4  367.96   26.70
  -5  -8   4  401.26   28.90
  -5  -8   4  350.26   25.20
   4   8  -4    5.20   11.90
   4   8  -4   20.60    9.30
   4   8  -4    3.80   10.60
   4   8  -4   -3.50   11.10
  -4  -8   4   17.60   12.50
  -4  -8   4   -2.70   10.20
  -4  -8   4    2.20   11.80
  -4  -8   4   -0.70   11.50
  -4  -8   4   -4.90   11.70
   3   8  -4  201.28   15.60
   3   8  -4  200.98   17.70
   3   8  -4  170.98   18.20
   3   8  -4  205.18   20.90
  -3  -8   4  240.48   20.60
  -3  -8   4  205.08   19.00
  -3  -8   4  255.27   20.10
   2   8  -4 1444.46   50.49
   2   8  -4 1432.66   50.99
   2   8  -4 1446.96   53.29
  -2  -8   4 1378.76   50.69
  -2  -8   4 1359.06   51.89
  -2  -8   4 1424.96   51.79
   1   8  -4  381.06   19.40
   1   8  -4  358.06   22.40
   1   8  -4  337.07   18.80
  -1  -8   4  355.56   20.80
  -1  -8   4  357.56   21.80
  -1  -8   4  377.56   22.20
  -1  -8   4  358.86   21.10
   0   8  -4  104.89   10.80
   0   8  -4  114.09   15.30
   0   8  -4  105.29   11.60
   0  -8   4   79.09   10.90
   0  -8   4   96.99   11.80
   0  -8   4   88.99   13.10
   0  -8   4   83.29   12.40
  -1   8  -4  688.63   29.10
  -1   8  -4  713.73   28.70
  -1   8  -4  567.74   32.90
   1  -8   4  722.73   29.60
   1  -8   4  718.73   33.80
   1  -8   4  735.93   34.20
   1  -8   4  588.64   29.10
  -2   8  -4  937.51   32.60
  -2   8  -4  855.01   27.80
  -2   8  -4  832.82   36.20
  -2   8  -4  860.91   35.10
  -2   8  -4  885.91   35.20
   2  -8   4  875.91   35.80
   2  -8   4  777.42   38.30
   2  -8   4  759.32   37.10
   2  -8   4  869.41   37.30
  -3   8  -4   41.90   10.40
  -3   8  -4   42.90    8.30
  -3   8  -4   35.00   10.90
  -3   8  -4   24.10   10.00
   3  -8   4   43.90   12.10
   3  -8   4   48.20   12.30
   3  -8   4   42.40   13.10
  -4   8  -4  123.49   14.30
  -4   8  -4  139.09   15.70
  -4   8  -4  131.09   17.20
  -4   8  -4  113.99   15.30
   4  -8   4  152.88   17.40
   4  -8   4  139.39   14.30
  -5   8  -4   21.00    9.50
  -5   8  -4   40.40   11.00
  -5   8  -4   63.19   14.70
  -5   8  -4   31.10   12.10
   5  -8   4   39.10    9.30
   5  -8   4   29.60   11.30
   5  -8   4   25.80   13.30
  -6   8  -4   38.70   11.70
  -6   8  -4   50.79   13.60
  -6   8  -4   57.89   14.50
  -6   8  -4   55.19   15.50
   6  -8   4   35.00   13.20
   6  -8   4   45.70   11.00
   6  -8   4   45.70   12.60
  -7   8  -4    6.60   13.20
  -7   8  -4   30.70   16.00
  -7   8  -4   -1.20   17.10
   7  -8   4   15.60   15.20
   7  -8   4    2.10   13.50
   7  -8   4    7.30   15.70
   7  -8   4  -27.30   10.40
   6   7  -4   69.79   19.20
   6   7  -4   85.09   15.40
   6   7  -4   81.59   17.40
  -6  -7   4  103.89   17.20
  -6  -7   4   73.89   15.40
  -6  -7   4  113.59   18.90
  -6  -7   4   92.89   16.40
   5   7  -4   12.90   12.00
   5   7  -4    4.30   12.00
   5   7  -4   -9.10    9.50
   5   7  -4    4.40   12.50
  -5  -7   4   -4.10   10.80
  -5  -7   4    4.80   10.80
  -5  -7   4   -5.10   11.00
  -5  -7   4    0.10   11.10
   4   7  -4   41.80   11.40
   4   7  -4   59.69   10.50
   4   7  -4   48.40    8.80
   4   7  -4   36.90   11.20
  -4  -7   4   73.79   12.20
  -4  -7   4   62.19   12.30
  -4  -7   4   39.10   11.00
  -4  -7   4   63.59   13.20
   3   7  -4    4.60    8.60
   3   7  -4   -1.20    8.80
   3   7  -4   14.00    6.70
   3   7  -4   25.20   10.60
  -3  -7   4   12.00    9.10
  -3  -7   4   13.60    9.50
  -3  -7   4   10.80    8.70
  -3  -7   4   12.20    2.70
   2   7  -4   -1.30    8.60
   2   7  -4    0.10    7.80
   2   7  -4    5.90    7.20
  -2  -7   4   13.70    9.10
  -2  -7   4   10.30    7.50
  -2  -7   4   17.40    8.70
  -2  -7   4   10.50    8.10
   1   7  -4  217.58   18.60
   1   7  -4  259.77   15.80
   1   7  -4  249.38   16.00
  -1  -7   4  237.98   16.00
  -1  -7   4  245.78   17.40
  -1  -7   4  236.48   16.80
  -1  -7   4  233.68   17.40
   0   7  -4  421.56   20.80
   0   7  -4  429.46   21.00
   0   7  -4  440.66   25.30
   0  -7   4  484.25   23.80
   0  -7   4  446.46   21.00
   0  -7   4  429.46   23.60
   0  -7   4  421.16   22.20
  -1   7  -4  108.39   13.70
  -1   7  -4  127.69   14.00
  -1   7  -4  111.29   15.30
   1  -7   4  125.49   15.00
   1  -7   4  124.49   13.30
   1  -7   4  118.49   14.80
   1  -7   4  115.59   13.10
  -2   7  -4  491.55   25.40
  -2   7  -4  518.05   20.40
  -2   7  -4  482.75   23.60
  -2   7  -4  481.75   16.80
  -2   7  -4  450.35   23.80
   2  -7   4  456.45   24.20
   2  -7   4  473.25   25.60
   2  -7   4  431.46   26.60
   2  -7   4  504.05   23.40
  -3   7  -4  463.35   20.60
  -3   7  -4  502.55   25.20
  -3   7  -4  511.15   25.10
  -3   7  -4  495.25   25.50
   3  -7   4  462.75   26.00
   3  -7   4  481.45   24.90
   3  -7   4  530.05   25.30
  -4   7  -4  382.56   21.70
  -4   7  -4  342.17   17.80
  -4   7  -4  357.16   22.40
  -4   7  -4  342.57   23.10
   4  -7   4  342.77   22.70
   4  -7   4  358.16   22.10
   4  -7   4  344.87   22.90
  -5   7  -4  114.69   14.30
  -5   7  -4  126.79   16.10
  -5   7  -4  104.29   14.10
  -5   7  -4   95.09   12.60
   5  -7   4   89.69   12.40
   5  -7   4  113.99   13.90
  -6   7  -4  158.68   17.90
  -6   7  -4  164.98   18.50
  -6   7  -4  200.68   21.90
  -6   7  -4  179.98   20.80
   6  -7   4  158.88   18.00
   6  -7   4  187.38   16.30
   6  -7   4  178.18   22.10
   6  -7   4  156.58   16.70
  -7   7  -4  211.58   24.10
  -7   7  -4  246.78   25.70
  -7   7  -4  193.98   21.50
  -7   7  -4  244.28   27.60
   7  -7   4  200.88   19.50
   7  -7   4  239.08   24.20
   7  -7   4  250.77   23.50
   7  -7   4  238.78   23.20
   6   6  -4   22.70   14.00
   6   6  -4   43.90   16.30
   6   6  -4   41.60   13.70
  -6  -6   4   53.39   15.50
  -6  -6   4   42.70   13.70
  -6  -6   4   65.79   14.60
  -6  -6   4   64.89   14.70
   5   6  -4  346.67   22.90
   5   6  -4  356.96   22.60
   5   6  -4  345.97   19.20
   5   6  -4  369.46   23.40
  -5  -6   4  316.27   23.70
  -5  -6   4  372.26   23.30
  -5  -6   4  321.07   22.60
  -5  -6   4  359.16   24.10
   4   6  -4  798.02   34.00
   4   6  -4  860.01   35.40
   4   6  -4  848.02   35.20
   4   6  -4  887.41   31.60
  -4  -6   4  831.42   27.30
  -4  -6   4  849.81   35.70
  -4  -6   4  888.61   35.10
  -4  -6   4  872.91   35.00
  -4  -6   4  878.81   35.00
   3   6  -4   82.99    9.70
   3   6  -4   80.29   10.60
   3   6  -4   96.59   11.90
   3   6  -4  104.09   12.80
  -3  -6   4   84.69   10.80
  -3  -6   4   78.99    5.60
  -3  -6   4   70.99   10.20
  -3  -6   4   95.39   11.30
   2   6  -4  284.77   16.40
   2   6  -4  262.27   15.60
   2   6  -4  277.47   17.80
  -2  -6   4  294.47   17.30
  -2  -6   4  269.97   16.20
  -2  -6   4  280.57   17.00
   1   6  -4 1962.70   68.99
   1   6  -4 2051.89   67.59
   1   6  -4 2072.59   67.39
  -1  -6   4 2027.60   67.19
  -1  -6   4 1971.90   67.69
  -1  -6   4 2075.69   68.29
  -1  -6   4 2100.99   68.69
   0   6  -4   82.69   10.30
   0   6  -4   66.09    8.30
   0   6  -4   83.89   11.80
   0  -6   4   76.59   10.30
   0  -6   4   66.39    9.20
   0  -6   4   78.99    8.60
   0  -6   4   78.09   10.40
  -1   6  -4  175.28   14.40
  -1   6  -4  161.08   10.70
  -1   6  -4  166.88   16.10
  -1   6  -4  165.88   14.20
  -1   6  -4  186.58    8.40
   1  -6   4  188.78   15.70
   1  -6   4  153.38   15.80
   1  -6   4  174.48   12.90
   1  -6   4  147.99   16.30
  -2   6  -4  566.44   19.80
  -2   6  -4  556.34   25.40
  -2   6  -4  615.14   21.90
  -2   6  -4  600.94   26.70
  -2   6  -4  561.34   25.00
   2  -6   4  572.24   23.70
   2  -6   4  546.75   26.40
   2  -6   4  530.65   26.40
   2  -6   4  564.44   27.10
  -3   6  -4   40.90    6.30
  -3   6  -4   29.10    9.00
  -3   6  -4   44.70    9.70
  -3   6  -4   40.70    8.90
   3  -6   4   45.80    9.60
   3  -6   4   51.19   10.40
   3  -6   4   32.10    9.00
  -4   6  -4  133.99   15.10
  -4   6  -4  139.09   14.40
  -4   6  -4  153.88   15.70
  -4   6  -4  150.48   12.10
   4  -6   4  143.79   16.10
   4  -6   4  187.68   16.70
   4  -6   4  150.48    5.90
   4  -6   4  144.19   17.10
  -5   6  -4  151.58   18.70
  -5   6  -4  116.79   13.40
  -5   6  -4  150.38   15.10
  -5   6  -4  138.19   13.90
   5  -6   4  138.29   17.10
   5  -6   4  131.59    7.70
   5  -6   4  135.09   15.10
   5  -6   4  132.39   15.40
  -6   6  -4   34.60   11.90
  -6   6  -4   44.60   12.40
  -6   6  -4   48.30   12.60
  -6   6  -4   50.99   10.00
   6  -6   4   50.69   12.90
   6  -6   4   39.60   12.90
   6  -6   4   44.90    6.20
   6  -6   4   56.09   10.20
   6  -6   4   46.40   13.80
  -7   6  -4   41.90   14.20
  -7   6  -4   51.79   16.00
  -7   6  -4   33.90   13.10
   7  -6   4   22.70   14.90
   7  -6   4   31.80   10.80
   7  -6   4   20.70   14.40
   7  -6   4   42.00   14.50
   7   5  -4  -10.20   13.80
   7   5  -4  -17.90   14.00
   7   5  -4    0.30   16.10
  -7  -5   4   -3.90   15.30
  -7  -5   4   11.50   15.90
  -7  -5   4   -1.90   13.90
  -7  -5   4    8.20   14.20
   6   5  -4  166.28   21.80
   6   5  -4  174.58   22.90
   6   5  -4  168.48   20.50
  -6  -5   4  185.28   22.60
  -6  -5   4  189.38   21.00
  -6  -5   4  187.98   22.00
  -6  -5   4  199.68   21.60
   5   5  -4   78.69   11.90
   5   5  -4   83.29   12.60
   5   5  -4   74.79    8.30
   5   5  -4   77.79   12.80
  -5  -5   4   74.49   12.90
  -5  -5   4   80.09   11.80
  -5  -5   4   62.29   11.70
  -5  -5   4   76.89   12.20
   4   5  -4   21.00    8.80
   4   5  -4   15.40    8.80
   4   5  -4   27.10    8.40
   4   5  -4   17.70    5.60
  -4  -5   4   12.90    9.30
  -4  -5   4   18.20    9.30
  -4  -5   4   11.70    3.40
  -4  -5   4   23.90    8.80
  -4  -5   4   14.90    8.10
   3   5  -4  122.89   12.40
   3   5  -4  167.68   14.50
   3   5  -4  139.29    9.20
   3   5  -4  126.99   13.20
  -3  -5   4  136.69   12.60
  -3  -5   4  123.59    7.10
  -3  -5   4  147.39   13.10
  -3  -5   4  146.29   13.60
   2   5  -4  412.66   18.60
   2   5  -4  393.16   18.90
   2   5  -4  414.86   18.80
  -2  -5   4  422.36   19.70
  -2  -5   4  407.56   19.20
  -2  -5   4  396.66   18.80
   1   5  -4  105.49   10.90
   1   5  -4  106.99   10.70
   1   5  -4  104.49   10.40
  -1  -5   4   97.99   10.60
  -1  -5   4  104.29   10.90
  -1  -5   4   98.19   10.70
   0   5  -4   -6.10    5.90
   0   5  -4   -1.70    5.50
   0   5  -4  -10.40    7.30
   0  -5   4    0.70    6.30
   0  -5   4    4.80    6.40
   0  -5   4    5.80    4.60
   0  -5   4    1.30    6.80
  -1   5  -4  976.60   36.10
  -1   5  -4  989.60   32.00
  -1   5  -4 1034.50   33.10
  -1   5  -4  994.50   36.50
  -1   5  -4  934.11   37.60
   1  -5   4  936.81   37.40
   1  -5   4 1002.10   37.30
   1  -5   4  992.80   34.50
   1  -5   4  967.40   37.30
  -2   5  -4   39.30    8.30
  -2   5  -4   42.10    8.20
  -2   5  -4   34.30    4.70
  -2   5  -4   27.10    7.70
   2  -5   4   32.10    8.00
   2  -5   4   23.10    7.80
   2  -5   4   34.60    8.40
  -3   5  -4   36.10    8.30
  -3   5  -4   42.20    5.60
  -3   5  -4   37.90    8.20
  -3   5  -4   51.59    8.60
   3  -5   4   52.49    8.80
   3  -5   4   45.00    8.30
   3  -5   4   45.80    4.60
   3  -5   4   40.50    8.60
  -4   5  -4  814.52   33.00
  -4   5  -4  814.32   29.20
  -4   5  -4  827.82   32.70
  -4   5  -4  822.92   32.30
   4  -5   4  793.82   33.00
   4  -5   4  818.72   32.50
   4  -5   4  765.92   27.00
   4  -5   4  817.22   32.30
  -5   5  -4   39.20   10.20
  -5   5  -4   61.99   11.70
  -5   5  -4   46.20   10.10
   5  -5   4   43.60   10.80
   5  -5   4   39.60   10.60
   5  -5   4   60.59   10.60
  -6   5  -4   67.09   12.40
  -6   5  -4   77.89   14.10
  -6   5  -4   54.89   11.90
   6  -5   4   55.09   12.80
   6  -5   4   38.90   12.20
   6  -5   4   55.79   12.10
   6  -5   4   56.49    9.00
  -7   5  -4  376.46   26.60
  -7   5  -4  349.87   27.00
  -7   5  -4  412.96   26.50
  -7   5  -4  362.36   25.00
   7  -5   4  353.96   25.40
   7  -5   4  339.67   26.80
   7  -5   4  380.16   21.60
   7  -5   4  374.16   27.30
  -8   5  -4   -5.00   14.10
  -8   5  -4   35.30   17.70
  -8   5  -4    6.30   15.40
  -8   5  -4   32.50   13.10
  -8   5  -4    6.20   15.20
   8  -5   4    9.90   16.10
   8  -5   4   35.60   14.70
   8  -5   4    8.70   15.90
   8  -5   4   20.10   11.00
   7   4  -4  194.38   21.20
   7   4  -4  169.88   19.40
   7   4  -4  191.88   19.40
  -7  -4   4  204.58   20.20
  -7  -4   4  150.58   18.70
  -7  -4   4  148.09   16.60
  -7  -4   4  174.78   22.20
   6   4  -4   -0.60   10.70
   6   4  -4   11.70   12.20
   6   4  -4    3.80   12.10
  -6  -4   4    3.00   10.60
  -6  -4   4    2.10   10.30
  -6  -4   4   10.10   11.40
  -6  -4   4   -0.80   10.50
   5   4  -4  122.69   15.20
   5   4  -4  141.19   14.10
   5   4  -4  125.99   13.60
   5   4  -4  135.99    9.50
  -5  -4   4  127.79    8.20
  -5  -4   4  124.29   15.80
  -5  -4   4  132.79   15.70
  -5  -4   4  129.59   15.10
  -5  -4   4  119.79   14.90
   4   4  -4 1214.48   43.30
   4   4  -4 1242.18   44.30
   4   4  -4 1175.78   39.60
   4   4  -4 1175.98   43.20
  -4  -4   4 1204.58   38.90
  -4  -4   4 1219.78   43.20
  -4  -4   4 1163.08   43.40
  -4  -4   4 1220.28   43.50
  -4  -4   4 1222.18   43.50
   3   4  -4   28.50    4.10
   3   4  -4   36.40    8.00
   3   4  -4   26.00    6.60
   3   4  -4   19.00    6.50
  -3  -4   4   22.80    6.50
  -3  -4   4   34.70    7.00
  -3  -4   4   25.70    3.80
  -3  -4   4   24.50    7.50
   2   4  -4    4.00    5.70
   2   4  -4    2.50    5.10
   2   4  -4    1.10    5.20
  -2  -4   4    1.70    5.10
  -2  -4   4    2.90    5.40
  -2  -4   4    7.00    5.10
   1   4  -4  526.85   22.30
   1   4  -4  604.64   22.70
   1   4  -4  597.94   22.80
  -1  -4   4  563.84   22.20
  -1  -4   4  583.44   22.90
  -1  -4   4  545.75   21.90
   0   4  -4   37.60    8.20
   0   4  -4   35.90    4.20
   0   4  -4   32.00    6.90
   0   4  -4   28.10    6.50
   0  -4   4   26.30    6.60
   0  -4   4   48.30    7.90
   0  -4   4   28.70    4.60
   0  -4   4   36.00    6.80
  -1   4  -4  220.28   15.30
  -1   4  -4  236.18    9.90
  -1   4  -4  234.38   14.30
  -1   4  -4  224.78   13.30
  -1   4  -4  234.38    9.80
   1  -4   4  219.48   14.80
   1  -4   4  240.88   11.30
   1  -4   4  228.18   14.40
   1  -4   4  209.48   14.00
  -2   4  -4    7.30    6.00
  -2   4  -4    6.00    6.20
  -2   4  -4    5.60    3.00
  -2   4  -4    9.70    6.60
   2  -4   4    1.80    6.40
   2  -4   4   11.40    6.60
   2  -4   4    7.10    3.10
   2  -4   4    4.00    5.90
  -3   4  -4   11.30    6.70
  -3   4  -4   14.60    7.40
  -3   4  -4   20.20    4.30
  -3   4  -4   24.90    6.90
   3  -4   4   16.40    4.20
   3  -4   4   10.10    6.80
   3  -4   4   15.50    7.10
   3  -4   4   12.30    7.10
  -4   4  -4  224.48   15.40
  -4   4  -4  233.58   15.10
  -4   4  -4  224.28   15.60
   4  -4   4  225.08   15.60
   4  -4   4  213.78   15.40
   4  -4   4  249.08   16.90
  -5   4  -4   31.00    9.40
  -5   4  -4   18.80    9.20
  -5   4  -4   29.70    9.40
   5  -4   4   19.20   10.70
   5  -4   4   28.90    9.60
   5  -4   4   27.90    9.80
  -6   4  -4  142.89   16.10
  -6   4  -4  158.08   18.00
  -6   4  -4  147.19   15.90
   6  -4   4  139.19   15.30
   6  -4   4  153.48   15.80
   6  -4   4  138.99   13.50
   6  -4   4  133.69   15.10
  -7   4  -4   59.89   15.20
  -7   4  -4   65.39   14.30
  -7   4  -4   48.80   11.10
  -7   4  -4   81.69   15.00
  -7   4  -4   67.89   14.40
   7  -4   4   89.59   17.20
   7  -4   4   42.30   13.50
   7  -4   4   83.09   15.90
   7  -4   4   79.59   11.00
  -8   4  -4   64.89   14.50
  -8   4  -4   56.99   16.60
  -8   4  -4   52.89   17.00
  -8   4  -4   66.49   17.00
  -8   4  -4   27.90   16.00
   8  -4   4   92.49   17.50
   8  -4   4   53.59   19.30
   8  -4   4   88.19   18.50
   8  -4   4   42.10   11.60
   7   3  -4  262.47   22.90
   7   3  -4  277.17   22.90
   7   3  -4  227.18   23.50
  -7  -3   4  258.07   24.60
  -7  -3   4  268.47   23.60
  -7  -3   4  290.67   23.20
  -7  -3   4  237.88   23.90
   6   3  -4    5.30   10.90
   6   3  -4   16.30   10.60
   6   3  -4    4.10   10.20
  -6  -3   4   11.50    9.90
  -6  -3   4    3.30   10.80
  -6  -3   4   -0.30    9.80
  -6  -3   4   21.90   11.30
   5   3  -4  267.77   19.30
   5   3  -4  293.37   18.60
   5   3  -4  276.87   18.90
  -5  -3   4  294.87   19.40
  -5  -3   4  282.57   18.30
  -5  -3   4  284.97   18.90
  -5  -3   4  283.87   12.90
  -5  -3   4  299.97   18.80
   4   3  -4 1052.09   33.80
   4   3  -4 1035.60   38.10
   4   3  -4 1056.09   38.60
   4   3  -4 1051.69   38.40
  -4  -3   4 1073.09   34.60
  -4  -3   4 1032.70   37.70
  -4  -3   4 1055.49   38.00
  -4  -3   4  982.40   37.80
  -4  -3   4 1075.29   38.90
   3   3  -4   66.09    7.90
   3   3  -4   71.09    9.20
   3   3  -4   64.09    5.00
   3   3  -4   78.59    9.70
  -3  -3   4   57.59    7.20
  -3  -3   4   56.09    6.10
  -3  -3   4   77.49    9.30
  -3  -3   4   69.89    8.80
   2   3  -4  162.08   10.40
   2   3  -4  164.18   10.60
   2   3  -4  141.49    9.90
  -2  -3   4  157.48   10.90
  -2  -3   4  137.29    9.50
  -2  -3   4  155.48   10.00
   1   3  -4  497.55   20.00
   1   3  -4  507.05   20.10
   1   3  -4  548.05   20.40
  -1  -3   4  547.05   20.80
  -1  -3   4  496.25   19.60
  -1  -3   4  515.15   19.70
   0   3  -4  732.13   27.20
   0   3  -4  737.83   27.70
   0   3  -4  732.13   27.10
   0   3  -4  766.02   24.60
   0  -3   4  730.13   26.90
   0  -3   4  671.13   27.30
   0  -3   4  716.23   26.60
  -1   3  -4   42.20    5.00
  -1   3  -4   30.20    6.40
  -1   3  -4   39.20    6.40
  -1   3  -4   34.80    6.50
   1  -3   4   32.00    7.00
   1  -3   4   39.80    4.20
   1  -3   4   38.80    6.40
   1  -3   4   34.80    6.20
   1  -3   4   41.10    3.90
  -2   3  -4  390.16   13.80
  -2   3  -4  390.66   17.30
  -2   3  -4  381.16   17.60
  -2   3  -4  411.06   17.40
   2  -3   4  397.16   17.80
   2  -3   4  395.86   15.20
   2  -3   4  410.76   17.60
   2  -3   4  405.36   17.70
  -3   3  -4   98.29   10.30
  -3   3  -4  100.19   10.70
  -3   3  -4  102.39   10.30
   3  -3   4  103.59   11.50
   3  -3   4  106.89   11.30
   3  -3   4  101.99    9.60
  -4   3  -4  263.47   16.20
  -4   3  -4  301.27   17.10
  -4   3  -4  284.67   16.50
   4  -3   4  266.97   15.60
   4  -3   4  289.47   17.00
   4  -3   4  297.27   16.70
  -5   3  -4  372.46   21.10
  -5   3  -4  355.26   21.20
  -5   3  -4  370.46   20.10
   5  -3   4  380.76   21.00
   5  -3   4  352.76   20.60
   5  -3   4  350.36   21.80
  -6   3  -4   15.00   11.00
  -6   3  -4   14.80    8.90
  -6   3  -4   35.30   11.20
  -6   3  -4   36.00   12.20
  -6   3  -4   31.70   10.50
   6  -3   4   21.90   10.40
   6  -3   4   19.90   12.10
   6  -3   4   40.80   11.60
  -7   3  -4   99.29   17.20
  -7   3  -4   93.49   15.40
  -7   3  -4   87.89   14.40
  -7   3  -4   84.29   13.30
  -7   3  -4   84.39   15.90
   7  -3   4   60.99   13.60
   7  -3   4   82.69   14.50
   7  -3   4  101.29   11.10
   7  -3   4   81.49   16.40
  -8   3  -4   40.00   15.00
  -8   3  -4   25.50   13.20
  -8   3  -4   12.00   15.90
  -8   3  -4    0.30   15.70
  -8   3  -4   22.90   17.10
   8  -3   4   22.00   16.50
   8  -3   4    5.30   10.30
   8  -3   4   -9.10   15.70
   8  -3   4   21.40   15.80
   7   2  -4  326.67   24.70
   7   2  -4  344.87   25.20
   7   2  -4  306.57   23.00
  -7  -2   4  352.06   24.50
  -7  -2   4  331.17   25.30
  -7  -2   4  327.37   24.40
  -7  -2   4  355.76   25.20
   6   2  -4   63.29   11.90
   6   2  -4   73.29   12.70
   6   2  -4   98.69   12.90
  -6  -2   4   81.89   11.90
  -6  -2   4   82.99   12.20
  -6  -2   4   73.49   11.50
  -6  -2   4  100.39   13.20
  -6  -2   4   82.79    8.00
   5   2  -4   14.20    7.60
   5   2  -4   -2.00    7.10
   5   2  -4    3.00    8.60
  -5  -2   4    9.00    8.70
  -5  -2   4    4.50    7.10
  -5  -2   4   12.60    5.20
  -5  -2   4   -1.50    7.70
  -5  -2   4    9.20    7.90
   4   2  -4  208.98   13.80
   4   2  -4  229.78   13.70
   4   2  -4  203.18   13.30
  -4  -2   4  232.38   14.20
  -4  -2   4  218.68   13.60
  -4  -2   4  217.48   10.80
  -4  -2   4  211.48   13.70
  -4  -2   4  217.48   13.60
   3   2  -4  857.61   30.10
   3   2  -4  790.62   25.70
   3   2  -4  848.62   29.60
   3   2  -4  754.32   29.30
  -3  -2   4  823.62   29.30
  -3  -2   4  803.82   27.70
  -3  -2   4  834.72   29.50
  -3  -2   4  864.21   29.80
  -3  -2   4  838.02   29.80
   2   2  -4  271.77   12.40
   2   2  -4  262.37   12.50
   2   2  -4  275.37   12.50
  -2  -2   4  271.17   12.60
  -2  -2   4  271.77   12.40
  -2  -2   4  289.97   13.10
   1   2  -4   18.20    4.40
   1   2  -4   18.80    4.30
   1   2  -4   22.40    4.10
   1   2  -4   20.90    4.60
  -1  -2   4   19.70    4.10
  -1  -2   4   22.10    4.40
  -1  -2   4   13.40    4.20
   0   2  -4   82.19    8.80
   0   2  -4  107.49    8.80
   0   2  -4   99.39    8.70
   0   2  -4  109.49    6.90
   0  -2   4  109.79    8.60
   0  -2   4   92.19    7.60
   0  -2   4  111.29    6.70
   0  -2   4   88.69    8.60
  -1   2  -4   20.30    4.90
  -1   2  -4   34.50    5.10
  -1   2  -4   29.40    5.80
   1  -2   4   32.40    5.60
   1  -2   4   20.80    4.70
   1  -2   4   34.40    4.70
   1  -2   4   28.00    5.30
  -2   2  -4   20.50    5.00
  -2   2  -4   14.50    4.60
  -2   2  -4   16.90    5.20
   2  -2   4   15.90    5.20
   2  -2   4   15.00    4.60
   2  -2   4   13.20    5.40
   2  -2   4   25.50    4.50
  -3   2  -4  386.76   17.20
  -3   2  -4  381.16   17.00
  -3   2  -4  400.26   18.10
   3  -2   4  387.66   17.40
   3  -2   4  396.06   17.60
   3  -2   4  384.76   17.40
  -4   2  -4  104.79   12.00
  -4   2  -4  108.09   12.80
  -4   2  -4   93.99   12.10
   4  -2   4  107.69   13.00
   4  -2   4   96.89   11.90
   4  -2   4   98.99   12.40
  -5   2  -4  319.57   18.80
  -5   2  -4  275.67   19.00
  -5   2  -4  309.97   17.40
  -5   2  -4  325.27   19.50
  -5   2  -4  297.07   18.40
   5  -2   4  307.37   19.50
   5  -2   4  289.27   17.50
   5  -2   4  326.07   18.80
  -6   2  -4    7.10   11.80
  -6   2  -4  -15.70    8.60
  -6   2  -4    4.10   10.20
  -6   2  -4   -7.00    9.70
  -6   2  -4    1.80   10.60
   6  -2   4   -3.00   10.30
   6  -2   4  -12.80    9.90
   6  -2   4  -11.60    9.90
  -7   2  -4   84.59   14.30
  -7   2  -4   89.59   16.80
  -7   2  -4   57.99   14.40
  -7   2  -4   88.69   14.00
  -7   2  -4   77.49   12.60
   7  -2   4  100.49   16.90
   7  -2   4   70.39   13.70
   7  -2   4   79.99   15.30
   7  -2   4   77.69   10.00
   8   1  -4  300.77   25.70
   8   1  -4  260.37   24.40
  -8  -1   4  197.58   23.30
  -8  -1   4  284.97   26.00
  -8  -1   4  261.77   24.60
  -8  -1   4  303.27   26.10
   7   1  -4   82.49   14.60
   7   1  -4   82.19   13.60
  -7  -1   4   84.99   14.20
  -7  -1   4   82.59   14.80
  -7  -1   4   66.59   12.70
  -7  -1   4   84.19   14.10
   6   1  -4  722.33   31.00
   6   1  -4  588.94   29.20
   6   1  -4  733.73   30.60
  -6  -1   4  771.72   32.00
  -6  -1   4  776.82   31.20
  -6  -1   4  693.73   26.80
  -6  -1   4  751.32   31.00
  -6  -1   4  702.03   29.90
   5   1  -4   17.30    7.40
   5   1  -4    8.80    8.20
   5   1  -4   19.50    7.90
  -5  -1   4    7.90    7.10
  -5  -1   4   13.60    5.40
  -5  -1   4   12.60    7.80
  -5  -1   4   11.10    8.20
  -5  -1   4   19.30    7.60
   4   1  -4  162.68   12.20
   4   1  -4  162.28   12.00
   4   1  -4  158.98   12.00
  -4  -1   4  155.98   11.60
  -4  -1   4  143.89   10.70
  -4  -1   4  153.48   11.50
  -4  -1   4  164.28   10.00
  -4  -1   4  163.28   12.30
   3   1  -4 1812.72   57.49
   3   1  -4 1759.12   57.49
   3   1  -4 1774.92   57.49
  -3  -1   4 1785.22   56.29
  -3  -1   4 1742.23   57.19
  -3  -1   4 1746.03   57.59
  -3  -1   4 1729.93   57.29
  -3  -1   4 1777.62   57.39
   2   1  -4  785.22   27.10
   2   1  -4  760.72   27.30
   2   1  -4  815.62   27.40
   2   1  -4  774.62   27.10
  -2  -1   4  779.52   26.70
  -2  -1   4  791.72   27.10
  -2  -1   4  831.52   27.10
  -2  -1   4  807.22   27.40
   1   1  -4  225.08   10.00
   1   1  -4  221.78    8.20
   1   1  -4  214.08   10.20
   1   1  -4  210.38   10.00
   1   1  -4  236.38   10.30
  -1  -1   4  215.78   10.20
  -1  -1   4  212.18    9.60
  -1  -1   4  209.98    9.70
  -1  -1   4  235.08   10.20
   0   1  -4  551.14   20.90
   0   1  -4  588.14   21.30
   0   1  -4  590.84   20.90
   0   1  -4  567.24   21.00
   0  -1   4  559.84   20.60
   0  -1   4  590.04   20.60
   0  -1   4  573.14   21.60
   0  -1   4  581.44   20.70
  -1   1  -4  198.28   10.00
  -1   1  -4  210.18    9.90
  -1   1  -4  204.88   10.20
   1  -1   4  204.88    9.90
   1  -1   4  201.58   10.10
   1  -1   4  202.78    9.90
   1  -1   4  204.28    9.90
  -2   1  -4 1156.48   39.10
  -2   1  -4 1168.38   39.40
  -2   1  -4 1139.49   38.80
  -2   1  -4 1170.98   39.00
   2  -1   4 1170.78   39.10
   2  -1   4 1177.58   39.20
   2  -1   4 1212.48   39.40
  -3   1  -4   36.10    6.10
  -3   1  -4   46.60    6.70
  -3   1  -4   34.00    6.00
  -3   1  -4   29.60    6.80
   3  -1   4   41.20    7.10
   3  -1   4   35.80    6.30
   3  -1   4   48.30    6.80
  -4   1  -4    5.00    6.20
  -4   1  -4   10.30    6.90
  -4   1  -4    2.20    6.50
  -4   1  -4   -8.80    6.50
   4  -1   4   11.70    7.20
   4  -1   4    8.60    7.60
   4  -1   4    8.10    7.00
  -5   1  -4  475.75   23.70
  -5   1  -4  482.45   22.90
  -5   1  -4  479.25   23.60
  -5   1  -4  482.85   24.50
  -5   1  -4  465.65   22.40
   5  -1   4  509.25   24.10
   5  -1   4  482.15   22.60
   5  -1   4  470.05   23.20
  -6   1  -4   17.80   11.20
  -6   1  -4   22.90    9.50
  -6   1  -4    1.60   10.10
  -6   1  -4    9.00   11.70
  -6   1  -4   16.80    9.60
   6  -1   4   -0.10   10.90
   6  -1   4   24.90   11.10
   6  -1   4   12.70    9.80
  -7   1  -4  307.87   21.30
  -7   1  -4  326.77   24.30
  -7   1  -4  328.47   25.60
  -7   1  -4  307.77   25.80
  -7   1  -4  314.87   26.10
   7  -1   4  298.97   24.50
   7  -1   4  304.27   17.80
   7  -1   4  282.87   24.80
   8   0  -4   54.69   13.80
   8   0  -4   50.09   14.40
  -8   0   4   30.10   14.00
  -8   0   4   52.79   14.50
  -8   0   4   56.69   16.80
  -8   0   4   37.80   14.30
   7   0  -4    8.40    8.00
   7   0  -4    8.10   11.50
  -7   0   4    5.40   10.20
  -7   0   4   26.20   11.70
  -7   0   4   11.20   10.50
  -7   0   4    4.00    9.70
   6   0  -4 1006.70   38.80
   6   0  -4 1017.60   35.90
   6   0  -4 1015.40   38.80
  -6   0   4 1017.20   38.10
  -6   0   4 1002.40   35.70
  -6   0   4 1015.50   38.60
  -6   0   4  976.90   39.10
  -6   0   4  955.90   37.60
   5   0  -4  272.37   13.80
   5   0  -4  276.47   16.30
   5   0  -4  242.28   16.20
   5   0  -4  276.77   16.10
  -5   0   4  265.77   16.60
  -5   0   4  252.77   15.50
  -5   0   4  258.77   14.00
  -5   0   4  266.97   15.70
  -5   0   4  261.27   15.90
   4   0  -4 1707.73   57.89
   4   0  -4 1739.03   58.19
   4   0  -4 1739.33   56.89
   4   0  -4 1788.52   58.09
  -4   0   4 1705.53   57.49
  -4   0   4 1775.52   57.99
  -4   0   4 1775.82   58.29
  -4   0   4 1828.62   58.09
  -4   0   4 1779.72   56.99
   3   0  -4  898.61   30.50
   3   0  -4  837.32   30.60
   3   0  -4  929.01   30.50
   3   0  -4  883.51   30.60
  -3   0   4  909.61   30.30
  -3   0   4  855.01   30.60
  -3   0   4  902.31   30.20
  -3   0   4  857.21   30.30
  -3   0   4  914.31   30.50
   2   0  -4  214.28    9.70
   2   0  -4  222.48    9.90
   2   0  -4  226.08    9.90
   2   0  -4  216.48   10.70
  -2   0   4  228.48   10.40
  -2   0   4  217.48    9.80
  -2   0   4  230.78    7.80
  -2   0   4  222.98    9.60
  -2   0   4  225.28    9.80
   1   0  -4 5651.73  170.68
   1   0  -4 5590.44  171.78
   1   0  -4 5557.34  170.38
   1   0  -4 5403.76  170.78
   1   0  -4 5771.22  170.98
  -1   0   4 5175.38  170.68
  -1   0   4 5638.74  171.88
  -1   0   4 5447.95  170.58
  -1   0   4 5658.53  170.78
  -1   0   4 5712.23  170.38
   0   0  -4   10.70    3.60
   0   0  -4   13.90    3.20
   0   0  -4   19.00    5.30
   0   0  -4   10.60    3.30
   0   0  -4   12.80    3.40
   0   0   4   18.30    3.40
   0   0   4   11.70    3.70
   0   0   4   10.60    4.60
   0   0   4   16.30    3.10
   0   0   4   18.60    3.10
   0   0   4   15.30    2.60
  -1   0  -4  170.48    8.80
  -1   0  -4  159.28    8.00
  -1   0  -4  161.58    6.50
  -1   0  -4  161.38    8.30
  -1   0  -4  160.28    8.00
   1   0   4  160.88    8.30
   1   0   4  163.98    8.10
   1   0   4  166.08    8.20
  -2   0  -4 3530.15  109.09
  -2   0  -4 3496.85  108.79
  -2   0  -4 3453.75  109.39
  -2   0  -4 3435.66  107.39
  -2   0  -4 3483.25  109.19
   2   0   4 3540.95  108.99
   2   0   4 3452.55  108.89
   2   0   4 3486.55  109.19
  -3   0  -4  265.77   13.40
  -3   0  -4  261.37   13.80
  -3   0  -4  260.97   14.10
  -3   0  -4  282.77   13.70
   3   0   4  259.67   13.50
   3   0   4  257.27   13.90
   3   0   4  255.77   13.30
  -4   0  -4    6.10    7.50
  -4   0  -4    0.10    6.40
  -4   0  -4    4.40    6.90
  -4   0  -4    6.00    6.20
  -4   0  -4    7.20    6.00
   4   0   4   -1.80    6.50
   4   0   4    2.30    6.00
   4   0   4   -6.20    7.30
  -5   0  -4  432.16   21.80
  -5   0  -4  382.56   20.70
  -5   0  -4  390.16   22.20
  -5   0  -4  349.17   20.10
  -5   0  -4  392.96   21.50
   5   0   4  412.66   21.80
   5   0   4  418.66   21.50
  -6   0  -4  340.57   20.20
  -6   0  -4  298.87   22.50
  -6   0  -4  315.17   21.60
  -6   0  -4  321.47   23.20
  -6   0  -4  303.57   22.20
   6   0   4  334.67   16.50
   6   0   4  340.57   23.30
   6   0   4  360.76   23.00
   6   0   4  330.67   20.90
  -7   0  -4    7.10   11.00
  -7   0  -4   14.80   12.80
  -7   0  -4   -0.40   11.40
  -7   0  -4    1.30   13.50
  -7   0  -4   13.00   13.90
   7   0   4    2.80   13.60
   7   0   4    0.30   12.90
   7   0   4    8.20    8.00
   7   0   4    8.40   12.80
   8  -1  -4  279.97   19.40
   8  -1  -4  189.58   23.80
   8  -1  -4  243.78   23.60
  -8   1   4  212.78   23.00
  -8   1   4  241.08   25.20
  -8   1   4  222.38   22.10
  -8   1   4  293.97   24.00
   7  -1  -4   53.89    9.60
   7  -1  -4   89.89   12.90
  -7   1   4   42.60   10.90
  -7   1   4   44.60   11.20
  -7   1   4   46.50    3.90
  -7   1   4   42.80   10.70
  -7   1   4   51.59   12.90
   6  -1  -4  526.25   24.60
   6  -1  -4  495.25   22.40
  -6   1   4  524.95   22.60
  -6   1   4  534.65   24.10
  -6   1   4  523.55   17.40
  -6   1   4  533.95   24.00
  -6   1   4  504.45   24.60
  -6   1   4  515.85   24.00
   5  -1  -4 1653.73   56.09
   5  -1  -4 1701.13   56.79
   5  -1  -4 1727.03   57.09
   5  -1  -4 1709.13   57.49
  -5   1   4 1695.73   57.09
  -5   1   4 1764.42   57.19
  -5   1   4 1753.72   56.99
  -5   1   4 1687.03   56.09
  -5   1   4 1663.03   57.29
  -5   1   4 1656.13   52.79
   4  -1  -4  227.28   12.50
   4  -1  -4  214.58   12.20
   4  -1  -4  212.78   12.10
   4  -1  -4  220.28   12.30
   4  -1  -4  212.78   11.80
  -4   1   4  209.28   11.80
  -4   1   4  193.98   11.90
  -4   1   4  212.88   12.10
  -4   1   4  210.68   12.20
  -4   1   4  207.18   11.70
   3  -1  -4   18.30    4.30
   3  -1  -4   11.80    4.40
   3  -1  -4   16.10    4.00
   3  -1  -4   19.20    4.30
   3  -1  -4    5.20    4.50
  -3   1   4    7.00    4.10
  -3   1   4   15.40    3.90
  -3   1   4   18.10    2.10
  -3   1   4   17.80    4.90
  -3   1   4   10.00    4.20
  -3   1   4   15.50    3.90
   2  -1  -4  613.24   21.00
   2  -1  -4  635.24   21.10
   2  -1  -4  626.44   22.70
   2  -1  -4  620.64   21.10
  -2   1   4  626.14   22.50
  -2   1   4  643.14   20.90
  -2   1   4  639.74   21.10
  -2   1   4  634.04   21.00
  -2   1   4  619.94   20.50
  -2   1   4  628.24   21.10
  -2   1   4  603.84   21.90
   1  -1  -4 2128.89   67.59
   1  -1  -4 2109.19   65.89
   1  -1  -4 2123.19   65.09
   1  -1  -4 2136.29   65.19
  -1   1   4 2072.09   65.29
  -1   1   4 2058.89   65.29
  -1   1   4 2088.39   67.59
  -1   1   4 2094.39   65.89
  -1   1   4 2154.38   66.59
   0  -1  -4   52.79    4.60
   0  -1  -4   54.49    6.20
   0  -1  -4   53.59    4.70
   0   1   4   49.00    5.30
   0   1   4   48.20    5.80
   0   1   4   53.39    3.90
   0   1   4   53.59    3.80
   0   1   4   50.09    5.70
   0   1   4   51.09    5.70
  -1  -1  -4  820.02   27.60
  -1  -1  -4  825.02   27.90
  -1  -1  -4  848.62   27.90
  -1  -1  -4  855.01   29.20
  -1  -1  -4  836.92   27.70
   1   1   4  827.52   27.80
   1   1   4  844.22   29.10
   1   1   4  856.21   27.90
   1   1   4  873.71   27.80
  -2  -1  -4  513.75   19.50
  -2  -1  -4  504.25   19.20
  -2  -1  -4  515.65   18.40
  -2  -1  -4  514.15   20.10
  -2  -1  -4  501.55   19.00
   2   1   4  534.55   19.50
   2   1   4  491.65   19.10
   2   1   4  531.45   19.40
   2   1   4  527.65   20.50
  -3  -1  -4   95.79   10.20
  -3  -1  -4  102.19   10.00
  -3  -1  -4  129.59   11.40
  -3  -1  -4  113.69   10.70
  -3  -1  -4  112.89    9.90
   3   1   4  105.09    9.70
   3   1   4  104.49   10.40
   3   1   4  109.29   10.40
  -4  -1  -4 1490.75   49.99
  -4  -1  -4 1394.46   49.50
  -4  -1  -4 1426.66   49.90
  -4  -1  -4 1430.26   49.50
  -4  -1  -4 1469.15   49.99
   4   1   4 1404.76   49.70
   4   1   4 1487.25   49.99
   4   1   4 1464.25   50.29
  -5  -1  -4   88.99   12.30
  -5  -1  -4  109.99   11.40
  -5  -1  -4   82.89   11.10
  -5  -1  -4   98.09   11.90
   5   1   4   81.59   12.10
   5   1   4   98.89   12.20
   5   1   4   75.99   11.20
  -6  -1  -4  185.78   19.80
  -6  -1  -4  175.78   19.20
  -6  -1  -4  155.88   20.20
  -6  -1  -4  170.88   16.50
   6   1   4  175.18   12.10
   6   1   4  179.18   20.40
   6   1   4  152.78   18.50
   6   1   4  184.48   20.00
  -7  -1  -4  264.27   25.40
  -7  -1  -4  281.07   22.30
  -7  -1  -4  280.47   24.60
  -7  -1  -4  218.38   24.40
  -7  -1  -4  265.87   25.20
   7   1   4  309.17   26.40
   7   1   4  223.28   23.40
   7   1   4  242.08   15.40
   7   1   4  266.97   24.80
   8  -2  -4  120.39   17.00
   8  -2  -4  155.58   18.30
   8  -2  -4  102.09   15.80
   8  -2  -4  117.19   13.30
  -8   2   4  128.99   15.70
  -8   2   4  143.89   17.50
  -8   2   4   89.89   14.40
  -8   2   4   89.69   14.70
  -8   2   4  100.29    7.50
   7  -2  -4 1276.77   47.60
   7  -2  -4 1368.46   47.40
   7  -2  -4 1342.87   48.70
   7  -2  -4 1261.47   60.89
  -7   2   4 1355.96   49.20
  -7   2   4 1327.57   49.90
  -7   2   4 1382.86   49.10
  -7   2   4 1315.47   42.70
  -7   2   4 1360.16   49.10
   6  -2  -4   30.90    9.30
   6  -2  -4   46.60    8.20
   6  -2  -4   51.99    9.00
   6  -2  -4   39.00    8.20
  -6   2   4   37.70    9.40
  -6   2   4   41.50    8.50
  -6   2   4   56.69    9.30
  -6   2   4   53.29    9.30
  -6   2   4   39.70    8.50
   5  -2  -4 1541.85   50.69
   5  -2  -4 1438.06   49.60
   5  -2  -4 1493.65   49.80
   5  -2  -4 1540.05   49.90
  -5   2   4 1517.25   50.09
  -5   2   4 1335.77   49.50
  -5   2   4 1503.65   50.19
  -5   2   4 1460.65   49.70
  -5   2   4 1459.45   50.39
   4  -2  -4 2632.14   83.69
   4  -2  -4 2628.44   83.79
   4  -2  -4 2536.75   83.59
  -4   2   4 2663.83   83.39
  -4   2   4 2666.83   83.29
  -4   2   4 2664.13   83.79
  -4   2   4 2592.34   83.69
   3  -2  -4 2955.10   91.59
   3  -2  -4 2895.21   91.29
   3  -2  -4 2918.11   90.69
  -3   2   4 2948.30   91.49
  -3   2   4 2889.11   90.39
  -3   2   4 2818.62   90.49
  -3   2   4 2811.62   90.39
  -3   2   4 2933.91   90.29
   2  -2  -4 1875.91   63.39
   2  -2  -4 1977.80   61.29
  -2   2   4 1948.91   63.39
  -2   2   4 1972.90   61.09
  -2   2   4 2018.70   61.09
  -2   2   4 1914.51   61.69
  -2   2   4 2012.40   62.89
  -2   2   4 1943.81   61.09
  -2   2   4 2030.70   61.19
  -1   2   4  905.91   30.30
  -1   2   4  941.31   30.70
  -1   2   4  953.60   31.70
  -1   2   4  863.81   31.90
   0  -2  -4 6349.67  192.18
   0  -2  -4 6228.78  192.08
   0  -2  -4 6393.56  192.28
   0  -2  -4 6432.56  194.28
   0  -2  -4 6206.88  192.18
   0  -2  -4 6241.78  193.98
   0   2   4 6073.59  192.18
   0   2   4 6410.66  192.08
   0   2   4 6354.76  194.18
   0   2   4 6087.39  194.48
   0   2   4 6475.85  195.08
  -1  -2  -4   63.39    5.50
  -1  -2  -4   68.19    5.50
  -1  -2  -4   54.99    6.10
  -1  -2  -4   61.59    6.00
  -1  -2  -4   57.69    5.30
  -1  -2  -4   64.09    6.70
   1   2   4   61.49    6.50
   1   2   4   55.49    6.40
   1   2   4   60.49    5.40
   1   2   4   60.79    5.70
   1   2   4   65.39    5.40
  -2  -2  -4   94.39    9.90
  -2  -2  -4   98.39    8.50
  -2  -2  -4  101.99    8.40
  -2  -2  -4  113.29    8.10
  -2  -2  -4  102.49    8.80
   2   2   4  111.79    8.20
   2   2   4  118.79    8.40
   2   2   4  106.69    8.70
   2   2   4   99.99   10.30
  -3  -2  -4 1693.03   54.99
  -3  -2  -4 1663.73   55.99
  -3  -2  -4 1683.53   55.39
  -3  -2  -4 1703.73   54.79
  -3  -2  -4 1508.65   54.79
  -3  -2  -4 1680.83   55.69
   3   2   4 1659.53   55.19
   3   2   4 1667.23   55.59
   3   2   4 1697.03   56.29
   3   2   4 1737.33   55.39
  -4  -2  -4  433.46   22.00
  -4  -2  -4  503.15   22.10
  -4  -2  -4  483.75   21.90
  -4  -2  -4  471.85   21.30
  -4  -2  -4  478.45   22.60
   4   2   4  521.95   22.70
   4   2   4  459.65   21.50
   4   2   4  496.75   22.50
  -5  -2  -4   44.10    9.90
  -5  -2  -4   49.70   11.50
  -5  -2  -4   28.50    9.90
  -5  -2  -4   35.60    9.30
   5   2   4   47.50   10.90
   5   2   4   30.20    9.40
   5   2   4   17.70   10.00
  -6  -2  -4   11.30   11.00
  -6  -2  -4   24.90    9.80
  -6  -2  -4    4.10   10.80
  -6  -2  -4   10.80   12.10
   6   2   4    9.50   11.60
   6   2   4   17.00    5.50
   6   2   4   17.30   11.80
   6   2   4   10.70   12.00
  -7  -2  -4  116.69   17.80
  -7  -2  -4  166.58   17.90
  -7  -2  -4  141.79   16.30
   7   2   4  133.69   17.60
   7   2   4  152.68   18.90
   7   2   4  162.58   12.00
   8  -3  -4  646.14   32.90
   8  -3  -4  637.64   29.50
   8  -3  -4  635.24   29.00
  -8   3   4  604.64   31.50
  -8   3   4  614.54   31.00
  -8   3   4  640.04   22.80
  -8   3   4  579.04   30.10
  -8   3   4  665.43   33.10
   7  -3  -4   86.49   11.00
   7  -3  -4   83.69   10.90
   7  -3  -4   85.19   13.20
  -7   3   4   86.79   11.60
  -7   3   4   73.39   11.70
  -7   3   4   72.59   10.70
  -7   3   4   86.09   12.60
   6  -3  -4  344.37   20.00
   6  -3  -4  363.96   18.50
   6  -3  -4  384.66   20.40
   6  -3  -4  353.76   18.10
   6  -3  -4  360.86   18.50
  -6   3   4  320.57   18.60
  -6   3   4  337.67   18.90
  -6   3   4  387.36   19.20
  -6   3   4  361.26   19.60
  -6   3   4  365.46   19.80
   5  -3  -4  207.48   14.20
   5  -3  -4  239.18   13.90
   5  -3  -4  229.08   14.20
   5  -3  -4  220.08   13.70
  -5   3   4  228.38   14.40
  -5   3   4  221.08   14.30
  -5   3   4  228.58   13.50
  -5   3   4  250.17   14.80
  -5   3   4  213.38   13.50
   4  -3  -4  171.38   11.90
   4  -3  -4  179.08   11.90
   4  -3  -4  179.58   11.20
   4  -3  -4  173.98    9.90
   4  -3  -4  189.28   11.00
  -4   3   4  184.48   10.40
  -4   3   4  176.28   12.20
  -4   3   4  207.08   10.90
  -4   3   4  190.88   10.40
  -4   3   4  174.08   10.80
   3  -3  -4    5.70    4.80
   3  -3  -4    8.40    5.70
   3  -3  -4    6.20    3.80
   3  -3  -4    6.70    3.80
   3  -3  -4    8.70    3.00
  -3   3   4    9.40    3.30
  -3   3   4   14.20    5.30
  -3   3   4    8.90    3.20
  -3   3   4   11.10    3.90
  -3   3   4   14.70    5.10
  -3   3   4   11.40    3.60
   2  -3  -4  997.40   36.10
   2  -3  -4 1047.60   35.20
   2  -3  -4 1085.69   33.20
  -2   3   4 1085.09   32.50
  -2   3   4 1034.50   32.80
  -2   3   4 1041.30   35.30
  -2   3   4 1057.09   37.00
  -2   3   4  987.50   32.60
  -2   3   4 1045.60   36.50
  -2   3   4 1052.39   34.60
  -2   3   4 1095.19   32.70
  -1   3   4    6.10    5.40
  -1   3   4    7.80    5.30
  -1   3   4    3.30    3.50
  -1   3   4    2.90    3.80
   0  -3  -4  210.18    7.60
   0  -3  -4  218.88    7.90
   0  -3  -4  210.78    7.90
   0  -3  -4  216.58    7.60
   0  -3  -4  215.28   11.40
   0   3   4  178.98   12.30
   0   3   4  206.68   10.00
   0   3   4  225.58   11.40
  -1  -3  -4  921.81   32.60
  -1  -3  -4  967.80   31.30
  -1  -3  -4  942.31   30.90
  -1  -3  -4  917.41   30.90
  -1  -3  -4  935.51   33.40
  -1  -3  -4  972.10   31.30
   1   3   4  934.21   33.00
   1   3   4  973.50   31.30
   1   3   4  926.91   30.90
   1   3   4  991.00   34.60
  -2  -3  -4 2709.33   86.89
  -2  -3  -4 2551.04   85.59
  -2  -3  -4 2705.03   86.19
  -2  -3  -4 2777.62   85.79
  -2  -3  -4 2726.83   85.39
  -2  -3  -4 2732.43   85.39
   2   3   4 2743.93   85.59
   2   3   4 2630.44   86.89
   2   3   4 2780.72   85.59
  -3  -3  -4  261.67   14.30
  -3  -3  -4  282.97   15.20
  -3  -3  -4  292.17   16.00
  -3  -3  -4  284.87   15.60
  -3  -3  -4  290.67   15.50
  -3  -3  -4  291.37   15.10
   3   3   4  289.47   15.50
   3   3   4  281.77   16.30
   3   3   4  289.87   15.00
  -4  -3  -4   15.90    8.30
  -4  -3  -4   21.60    8.30
  -4  -3  -4   17.40    7.20
  -4  -3  -4   26.50    8.60
  -4  -3  -4   24.80    8.20
  -4  -3  -4   14.10    7.40
   4   3   4   28.20    8.00
   4   3   4   18.70    9.10
   4   3   4   23.80    8.10
  -5  -3  -4 1532.75   54.49
  -5  -3  -4 1578.84   54.59
  -5  -3  -4 1499.15   53.99
  -5  -3  -4 1448.66   54.99
  -5  -3  -4 1601.54   54.09
   5   3   4 1596.04   55.09
   5   3   4 1471.45   54.59
   5   3   4 1529.15   48.80
  -6  -3  -4   -6.40    8.80
  -6  -3  -4  -12.30   12.00
  -6  -3  -4   11.70   11.90
  -6  -3  -4    7.50   11.00
  -6  -3  -4  -14.00   10.60
  -6  -3  -4   11.90   10.40
   6   3   4   16.50   12.20
   6   3   4    1.20    4.70
   6   3   4   -7.20   11.50
   6   3   4   -2.30   12.20
   8  -4  -4   53.89   13.30
   8  -4  -4   64.09   12.30
   8  -4  -4   72.39   12.20
  -8   4   4   54.89   12.60
  -8   4   4   89.29   12.50
  -8   4   4   82.69   15.10
  -8   4   4   84.09   13.20
   7  -4  -4   -3.60    8.10
   7  -4  -4  -11.80    9.60
   7  -4  -4   -0.20    5.70
   7  -4  -4   21.50   10.40
   7  -4  -4    7.40    8.80
  -7   4   4   -0.30    9.10
  -7   4   4    4.60    8.90
  -7   4   4    6.10   10.40
  -7   4   4   -9.90    8.70
   6  -4  -4 3072.99   98.29
   6  -4  -4 3073.29   98.29
   6  -4  -4 2885.91   97.49
   6  -4  -4 3028.40   97.29
   6  -4  -4 3140.39   98.89
  -6   4   4 3088.79   97.99
  -6   4   4 3114.19   97.79
  -6   4   4 3016.40   98.29
  -6   4   4 2914.11   98.49
   5  -4  -4   -3.70    6.80
   5  -4  -4    4.40    6.30
   5  -4  -4   -4.10    6.30
   5  -4  -4   -0.80    5.20
   5  -4  -4   -4.80    6.20
  -5   4   4   -0.70    7.00
  -5   4   4    1.10    5.50
  -5   4   4    6.60    6.10
  -5   4   4   10.80    6.00
  -5   4   4   -3.50    6.20
   4  -4  -4 1144.09   38.90
   4  -4  -4 1129.29   37.80
   4  -4  -4 1114.19   37.20
   4  -4  -4 1124.09   36.80
   4  -4  -4 1088.29   38.30
  -4   4   4 1036.20   37.30
  -4   4   4 1048.10   37.20
  -4   4   4 1137.89   37.00
  -4   4   4 1141.79   36.90
  -4   4   4 1121.99   38.90
   3  -4  -4 5419.96  167.78
   3  -4  -4 5501.95  169.18
   3  -4  -4 5394.26  167.18
   3  -4  -4 5242.88  169.38
  -3   4   4 5251.87  167.38
  -3   4   4 5583.24  169.38
  -3   4   4 5460.05  167.48
  -3   4   4 5489.95  171.38
  -3   4   4 5421.96  167.08
  -3   4   4 5628.14  169.48
  -3   4   4 5497.65  167.18
   2  -4  -4  586.24   21.60
   2  -4  -4  585.24   19.00
   2  -4  -4  568.84   18.40
  -2   4   4  551.14   23.70
  -2   4   4  586.34   21.70
  -2   4   4  590.84   21.20
  -2   4   4  554.34   23.00
  -1   4   4  813.52   29.00
  -1   4   4  861.01   30.40
  -1   4   4  825.42   28.70
  -1   4   4  827.02   31.30
   0  -4  -4  721.93   24.40
   0  -4  -4  776.52   24.30
   0  -4  -4  760.32   23.90
   0  -4  -4  752.02   24.50
   0  -4  -4  729.13   27.80
   0   4   4  745.43   25.70
   0   4   4  797.22   24.20
   0   4   4  732.83   27.50
   0   4   4  732.43   29.20
  -1  -4  -4  947.21   30.60
  -1  -4  -4  930.61   30.80
  -1  -4  -4  905.31   31.00
  -1  -4  -4  906.91   30.60
  -1  -4  -4  866.61   33.00
   1   4   4  948.41   30.60
   1   4   4  938.81   33.50
   1   4   4  921.71   30.50
   1   4   4  963.70   31.10
  -2  -4  -4  316.37   15.00
  -2  -4  -4  314.57   14.20
  -2  -4  -4  331.97   16.70
  -2  -4  -4  337.77   16.60
  -2  -4  -4  337.57   14.40
  -2  -4  -4  299.57   14.50
   2   4   4  317.37   12.50
   2   4   4  320.77   14.90
   2   4   4  319.47   17.30
   2   4   4  298.47   14.00
  -3  -4  -4  157.18   13.30
  -3  -4  -4  144.89   11.50
  -3  -4  -4  130.49   14.00
  -3  -4  -4  142.69   12.30
  -3  -4  -4  160.78   13.50
   3   4   4  143.79   13.10
   3   4   4  130.89   13.50
   3   4   4  159.58   12.00
  -4  -4  -4   10.90    7.90
  -4  -4  -4    3.60    8.50
  -4  -4  -4   14.00    8.90
  -4  -4  -4    5.60    7.50
  -4  -4  -4   19.00    9.10
   4   4   4    9.70    8.00
   4   4   4   10.40    8.10
   4   4   4   12.60   10.30
  -5  -4  -4   -1.60    6.70
  -5  -4  -4   17.60    9.70
  -5  -4  -4    4.20   10.40
  -5  -4  -4   -8.30    9.90
  -5  -4  -4   -8.60   10.50
  -5  -4  -4   12.00   10.10
   5   4   4    5.10    9.90
   5   4   4    1.40    3.00
   5   4   4    2.80   10.00
  -6  -4  -4  108.89   15.30
  -6  -4  -4  101.09   13.70
  -6  -4  -4  109.69   17.70
  -6  -4  -4  120.59   14.70
  -6  -4  -4  111.59   14.50
   6   4   4   76.09   15.30
   6   4   4  127.29   15.90
   7  -5  -4   74.29   11.50
   7  -5  -4   97.89   12.70
   7  -5  -4   75.69   10.50
   7  -5  -4   78.99   12.90
  -7   5   4   72.69   11.00
  -7   5   4   64.49   12.10
  -7   5   4   85.09   11.20
  -7   5   4   84.69   12.30
   6  -5  -4   42.00    8.80
   6  -5  -4   54.69    9.90
   6  -5  -4   30.00    8.50
   6  -5  -4   42.10    8.60
  -6   5   4   39.10    9.00
  -6   5   4   37.60    9.20
  -6   5   4   40.20    8.20
  -6   5   4   43.20    7.90
   5  -5  -4  195.68   14.00
   5  -5  -4  206.48   11.90
   5  -5  -4  214.78   13.00
   5  -5  -4  190.88   13.90
   5  -5  -4  212.68   15.20
  -5   5   4  190.98   12.30
  -5   5   4  199.38   12.30
  -5   5   4  176.38   12.70
  -5   5   4  197.48   13.60
   4  -5  -4  429.86   16.20
   4  -5  -4  393.46   18.80
   4  -5  -4  446.06   17.10
   4  -5  -4  428.36   19.40
   4  -5  -4  435.06   17.80
  -4   5   4  383.86   17.40
  -4   5   4  447.36   16.50
  -4   5   4  383.86   22.40
  -4   5   4  439.06   19.70
  -4   5   4  378.86   16.20
  -4   5   4  425.56   17.00
   3  -5  -4   54.89    5.90
   3  -5  -4   49.20    7.00
   3  -5  -4   58.89    5.20
   3  -5  -4   59.49    5.90
  -3   5   4   56.69    5.20
  -3   5   4   67.49   10.60
  -3   5   4   60.79    5.00
  -3   5   4   67.49    7.80
  -3   5   4   55.89    6.20
  -3   5   4   59.79    8.10
  -3   5   4   55.49    5.80
   2  -5  -4    5.10    2.00
   2  -5  -4    6.10    4.90
   2  -5  -4    8.10    2.20
  -2   5   4    6.50    7.10
  -2   5   4    2.80    7.70
  -2   5   4    0.40    4.70
  -2   5   4    5.20    5.30
  -1   5   4 4531.45  139.29
  -1   5   4 4444.56  140.89
  -1   5   4 4419.16  142.19
  -1   5   4 4521.95  140.29
   0  -5  -4  197.28    9.50
   0  -5  -4  198.38    9.80
   0  -5  -4  209.18   14.00
   0  -5  -4  207.98    8.70
   0  -5  -4  208.58    8.10
   0   5   4  191.88   10.40
   0   5   4  190.38   15.50
   0   5   4  194.28    7.50
   0   5   4  214.18   13.40
   0   5   4  189.18    8.50
  -1  -5  -4  783.02   27.40
  -1  -5  -4  769.02   27.30
  -1  -5  -4  802.32   27.00
  -1  -5  -4  843.62   28.10
  -1  -5  -4  778.72   30.60
   1   5   4  800.92   27.90
   1   5   4  805.92   26.90
   1   5   4  794.92   30.50
  -2  -5  -4 3668.83  114.49
  -2  -5  -4 3619.94  112.09
  -2  -5  -4 3557.34  112.49
  -2  -5  -4 3525.55  112.79
  -2  -5  -4 3394.16  112.19
   2   5   4 3610.84  112.89
   2   5   4 3509.95  114.39
   2   5   4 3669.23  110.29
   2   5   4 3589.04  112.09
  -3  -5  -4  573.14   24.00
  -3  -5  -4  579.94   24.70
  -3  -5  -4  604.04   26.80
  -3  -5  -4  582.54   24.20
   3   5   4  593.84   23.90
   3   5   4  582.64   25.00
   3   5   4  590.94   19.30
   3   5   4  603.54   27.40
  -4  -5  -4  551.84   26.80
  -4  -5  -4  548.35   26.10
   4   5   4  541.05   25.60
   4   5   4  581.94   25.00
  -5  -5  -4  104.69   13.90
  -5  -5  -4  166.48   20.00
  -5  -5  -4  123.89   13.60
  -5  -5  -4  171.78   19.30
   5   5   4  164.48   17.00
   5   5   4  119.19   14.10
   5   5   4  125.19   14.90
   7  -6  -4  482.65   25.90
   7  -6  -4  487.95   27.50
   7  -6  -4  503.95   23.30
  -7   6   4  505.15   26.70
  -7   6   4  500.95   26.30
  -7   6   4  500.05   24.10
  -7   6   4  503.85   23.70
   6  -6  -4  174.28   14.30
   6  -6  -4  160.78   14.40
   6  -6  -4  132.79   13.50
  -6   6   4  165.38   13.60
  -6   6   4  167.48   14.90
  -6   6   4  140.89   13.10
  -6   6   4  183.18   15.40
   5  -6  -4 1835.62   60.19
   5  -6  -4 1870.41   60.79
   5  -6  -4 1924.71   62.09
   5  -6  -4 1855.81   62.79
  -5   6   4 1829.92   60.39
  -5   6   4 1760.92   61.19
  -5   6   4 1897.71   60.39
  -5   6   4 1887.31   61.19
   4  -6  -4  149.59   12.30
   4  -6  -4  172.38    9.50
   4  -6  -4  179.08   12.20
   4  -6  -4  175.98   14.40
  -4   6   4  198.08   11.30
  -4   6   4  176.58    9.60
  -4   6   4  207.68    9.90
  -4   6   4  175.28   11.60
  -4   6   4  161.28   14.40
  -4   6   4  151.18   16.10
   3  -6  -4   71.59    8.60
   3  -6  -4   93.09    9.30
   3  -6  -4   84.99    6.50
   3  -6  -4   80.79    5.70
  -3   6   4   75.09    5.90
  -3   6   4   83.09    4.80
  -3   6   4   75.29    9.20
  -3   6   4   78.79   11.30
  -3   6   4   87.39    5.50
  -3   6   4   61.69    9.40
  -3   6   4   85.59    4.70
   2  -6  -4 2340.37   70.69
   2  -6  -4 2307.27   70.59
   2  -6  -4 2296.37   73.59
  -2   6   4 2464.75   75.69
  -2   6   4 1947.81   76.49
  -2   6   4 2286.37   74.29
  -2   6   4 2376.76   73.89
   1  -6  -4   91.59    5.10
   1  -6  -4   71.09    5.10
  -1   6   4  120.49   12.00
  -1   6   4  105.19   11.80
  -1   6   4   94.79    9.30
  -1   6   4  108.99   12.50
   0  -6  -4  489.85   18.20
   0  -6  -4  497.75   16.80
   0  -6  -4  527.95   19.10
   0  -6  -4  483.25   17.30
   0  -6  -4  474.35   23.10
   0   6   4  470.25   16.90
   0   6   4  488.95   21.80
   0   6   4  472.25   16.20
   0   6   4  478.75   18.50
   0   6   4  442.66   24.70
  -1  -6  -4    1.50    8.20
  -1  -6  -4   -3.90    3.90
  -1  -6  -4    2.10    4.70
  -1  -6  -4    0.60    5.70
  -1  -6  -4   -1.70    4.90
   1   6   4    4.60    5.60
   1   6   4   -4.10    3.80
   1   6   4   -1.60    7.10
   1   6   4   -0.80    4.50
  -2  -6  -4  -12.20    9.10
  -2  -6  -4    6.30    5.40
  -2  -6  -4    3.30    5.50
  -2  -6  -4   -2.10    5.80
  -2  -6  -4   10.50    6.90
   2   6   4    9.00    3.50
   2   6   4    6.80    5.10
   2   6   4    1.20    7.00
   2   6   4    9.20    9.60
  -3  -6  -4   -8.40    7.80
  -3  -6  -4   -6.30    5.90
  -3  -6  -4   -8.10    4.30
  -3  -6  -4    9.70   10.10
   3   6   4    3.70    6.80
   3   6   4    5.30    7.80
  -4  -6  -4  589.74   27.20
  -4  -6  -4  579.04   26.30
  -4  -6  -4  593.44   27.90
  -4  -6  -4  611.74   29.10
   4   6   4  534.75   27.50
   4   6   4  584.04   26.30
   4   6   4  550.64   29.20
  -5  -6  -4   25.20   13.50
  -5  -6  -4   22.80   13.50
  -5  -6  -4    5.90   10.70
   5   6   4    4.70   14.70
   5   6   4   16.10   12.30
   5   6   4    1.00   10.90
   7  -7  -4  141.19   15.20
   7  -7  -4  163.68   20.50
  -7   7   4  177.18   16.90
  -7   7   4  203.48   17.20
  -7   7   4  193.78   17.90
  -7   7   4  164.28   15.70
  -7   7   4  174.58   20.60
   6  -7  -4   53.09   12.10
  -6   7   4   57.69    8.40
  -6   7   4   55.29   17.10
  -6   7   4   57.39    9.30
  -6   7   4   48.40    9.20
  -6   7   4   46.50    8.40
   5  -7  -4  153.08   16.30
   5  -7  -4  158.28   14.90
  -5   7   4  150.18   12.90
  -5   7   4  149.29   11.40
  -5   7   4  161.08   10.80
  -5   7   4  146.09   14.00
   4  -7  -4  710.23   27.50
   4  -7  -4  712.13   24.80
   4  -7  -4  733.83   29.20
  -4   7   4  717.23   29.30
  -4   7   4  681.73   25.50
  -4   7   4  749.23   24.50
  -4   7   4  670.63   24.80
  -4   7   4  762.92   24.70
   3  -7  -4 1104.39   35.70
   3  -7  -4 1111.49   39.30
   3  -7  -4 1106.09   35.20
   3  -7  -4 1100.69   36.40
  -3   7   4 1013.90   40.50
  -3   7   4 1173.98   34.90
  -3   7   4 1142.19   44.10
  -3   7   4 1085.59   34.80
  -3   7   4 1106.19   39.50
   2  -7  -4  547.35   22.10
   2  -7  -4  530.25   18.30
   2  -7  -4  529.85   18.40
  -2   7   4  567.64   22.50
  -2   7   4  565.24   23.90
  -2   7   4  599.14   24.80
  -2   7   4  533.35   27.70
   1  -7  -4   79.39    6.30
   1  -7  -4   90.29    6.20
   1  -7  -4   86.19    5.20
   1  -7  -4   88.99    5.10
   1  -7  -4  101.59   12.30
  -1   7   4  106.59   11.10
  -1   7   4   93.59    8.40
  -1   7   4  104.39   12.30
  -1   7   4   72.89   13.10
   0  -7  -4 3468.65  103.49
   0  -7  -4 3445.26  105.39
   0  -7  -4 3349.86  104.49
   0  -7  -4 3380.36  109.09
   0  -7  -4 3375.96  103.89
   0   7   4 3332.17  110.79
   0   7   4 3291.17  102.79
   0   7   4 3356.56  104.59
   0   7   4 3094.39  107.39
   0   7   4 3299.17  103.29
  -1  -7  -4   61.99    7.30
  -1  -7  -4   68.09    8.60
  -1  -7  -4   70.69    8.00
  -1  -7  -4   80.49    9.20
  -1  -7  -4   54.59   11.80
   1   7   4   78.59    8.80
   1   7   4   74.29    7.70
   1   7   4   67.19    8.80
  -2  -7  -4  320.67   17.20
  -2  -7  -4  342.77   18.60
  -2  -7  -4  344.17   22.90
   2   7   4  348.47   19.00
   2   7   4  355.06   16.30
  -3  -7  -4 1162.68   44.70
  -3  -7  -4 1100.69   45.90
  -3  -7  -4 1084.29   40.10
   3   7   4 1066.79   41.60
   3   7   4 1099.39   40.00
   3   7   4 1171.68   44.90
  -4  -7  -4   63.09   10.80
  -4  -7  -4   72.49   12.50
  -4  -7  -4   73.39   14.70
   4   7   4   72.39   13.40
   4   7   4   61.99   11.00
   4   7   4   78.89   15.80
   6  -8  -4  689.93   31.70
   6  -8  -4  698.83   30.80
  -6   8   4  663.13   37.20
  -6   8   4  685.73   26.60
  -6   8   4  661.33   26.50
  -6   8   4  684.23   27.30
  -6   8   4  679.93   28.70
   5  -8  -4   -0.60    3.80
   5  -8  -4    9.70    9.30
   5  -8  -4   14.80   10.10
   5  -8  -4   -4.30    5.10
  -5   8   4   29.50   14.30
  -5   8   4   19.20    6.90
  -5   8   4   13.80    5.90
  -5   8   4   15.20    5.50
  -5   8   4   14.00    7.00
   4  -8  -4  480.95   18.50
   4  -8  -4  440.26   21.50
   4  -8  -4  507.45   24.20
  -4   8   4  522.35   18.30
  -4   8   4  531.25   22.50
  -4   8   4  529.05   17.60
  -4   8   4  486.65   18.60
  -4   8   4  531.25   17.60
   3  -8  -4  625.54   21.20
   3  -8  -4  588.24   19.90
   3  -8  -4  616.84   25.40
  -3   8   4  617.44   31.00
  -3   8   4  586.34   26.10
  -3   8   4  541.75   27.00
  -3   8   4  586.54   25.70
   2  -8  -4  522.05   16.40
   2  -8  -4  499.45   17.30
   2  -8  -4  479.75   16.30
   2  -8  -4  487.85   17.30
  -2   8   4  505.25   29.30
  -2   8   4  498.35   23.80
  -2   8   4  518.65   24.10
  -2   8   4  510.55   22.00
   1  -8  -4   25.80    3.60
   1  -8  -4   22.20    3.60
   1  -8  -4   19.10    4.30
   1  -8  -4   27.80    4.60
   1  -8  -4   21.70   11.10
  -1   8   4   21.60   13.40
  -1   8   4   22.90    9.10
  -1   8   4   11.60    9.70
  -1   8   4   16.50    6.60
   0  -8  -4   57.69    5.70
   0  -8  -4   52.99    6.80
   0  -8  -4   55.39    6.30
   0  -8  -4   62.79   12.90
   0   8   4   54.49    5.60
   0   8   4   61.09    6.70
   0   8   4   62.39   15.60
  -1  -8  -4  672.33   32.20
  -1  -8  -4  651.03   24.70
   1   8   4  625.64   25.80
   1   8   4  635.84   23.60
  -2  -8  -4  281.87   16.20
  -2  -8  -4  291.97   24.30
   2   8   4  297.07   19.50
   2   8   4  279.07   22.50
   2   8   4  283.27   15.10
  -3  -8  -4   -4.90   13.40
  -3  -8  -4   12.20    8.30
  -3  -8  -4   -4.70    8.30
  -3  -8  -4   -3.80    9.10
  -3  -8  -4  -12.90    6.60
   3   8   4   -5.90   12.00
   3   8   4   -9.50    6.90
   3   8   4   -0.50   11.00
   5  -9  -4  111.99   14.40
  -5   9   4  115.99    9.50
  -5   9   4  103.79   10.10
  -5   9   4  115.79   11.00
  -5   9   4  118.69   17.20
  -5   9   4  117.59   10.00
   4  -9  -4  146.59   12.40
   4  -9  -4  147.19   14.00
  -4   9   4  152.88    8.30
  -4   9   4  142.69   15.00
  -4   9   4  136.09    8.00
  -4   9   4  116.59   17.80
   3  -9  -4  530.95   23.70
   3  -9  -4  496.05   17.50
   3  -9  -4  524.15   18.80
  -3   9   4  529.75   25.80
  -3   9   4  514.05   26.20
  -3   9   4  526.25   31.90
  -2   9   4  582.44   27.60
  -2   9   4  654.23   34.50
  -2   9   4  580.24   27.80
   1  -9  -4  472.85   17.00
   1  -9  -4  440.66   15.90
  -1   9   4  443.06   23.70
  -1   9   4  420.76   25.00
  -1   9   4  410.56   28.80
   0  -9  -4    2.70   12.50
   0  -9  -4    5.70    5.70
   0  -9  -4   14.40    5.30
   0   9   4    6.40    4.20
   0   9   4   13.60   11.80
   0   9   4    5.60    3.40
  -2  -9  -4  173.88   14.40
  -2  -9  -4  183.18   19.70
  -2  -9  -4  172.38   15.90
   2   9   4  173.88   12.60
   2   9   4  176.88   18.10
   2   9   4  150.48   18.10
   4 -10  -4   -7.80    6.10
   4 -10  -4    5.00    4.00
   4 -10  -4    4.30    3.30
   4 -10  -4   11.50   10.80
  -4  10   4   21.60   17.10
  -4  10   4   -3.80   10.60
  -4  10   4  -20.20    9.30
   3 -10  -4   -5.70    4.00
   3 -10  -4    3.10    3.10
  -3  10   4   10.00   11.20
  -3  10   4    8.10   14.10
  -3  10   4   20.10   12.00
  -2  10   4  305.57   29.30
  -2  10   4  350.56   22.00
  -2  10   4  306.17   23.80
   1 -10  -4  328.27   12.60
   1 -10  -4  307.27   12.40
   1 -10  -4  309.57   14.20
  -1  10   4  334.17   22.40
  -1  10   4  289.37   30.60
  -1  10   4  303.87   22.10
   0 -10  -4   41.20   16.30
   0 -10  -4   17.80    5.80
   0 -10  -4    9.20    6.40
   0 -10  -4    8.00    6.20
   0  10   4   -9.60   12.60
   1  12  -5  680.23   31.40
   1  12  -5  655.83   33.50
  -1 -12   5  635.74   35.90
  -1 -12   5  619.34   40.70
   0  12  -5   29.70   18.50
   0  12  -5   25.50   11.80
   0  12  -5   36.10   13.80
   0 -12   5    3.20   14.30
   0 -12   5   31.00    7.70
   0 -12   5   -5.90   13.00
   0 -12   5   44.10   20.00
  -1  12  -5   -7.70   11.00
  -1  12  -5   19.50   16.70
  -1  12  -5    0.80   13.60
   1 -12   5   13.30   16.30
   1 -12   5    2.70    7.60
   1 -12   5   -8.00   17.60
   1 -12   5    0.40   13.70
   1 -12   5   52.29   13.80
  -2  12  -5  421.36   30.40
  -2  12  -5  392.76   26.10
  -2  12  -5  356.26   26.80
  -2  12  -5  393.76   15.80
   2 -12   5  410.66   20.70
   2 -12   5  422.86   33.00
   2 -12   5  369.66   30.20
   2 -12   5  360.56   36.20
  -3  12  -5   -5.90   15.00
  -3  12  -5    3.90   14.70
  -3  12  -5    9.60   12.90
  -3  12  -5  -16.10   11.50
   3 -12   5   -7.10   18.80
   3 -12   5  -22.00   15.40
   3 -12   5    8.30    9.50
   3 -12   5    1.20   12.40
  -4  12  -5   86.09   16.20
  -4  12  -5  110.69   16.40
  -4  12  -5  122.89   16.20
  -4  12  -5   95.09   18.90
   4 -12   5  105.99   22.10
   4 -12   5   83.19   12.60
   4 -12   5   89.09   22.90
   2  11  -5    1.70   12.00
   2  11  -5   -4.70   11.90
   2  11  -5   25.40   16.10
   2  11  -5   -5.60   12.50
  -2 -11   5    5.20    2.70
  -2 -11   5    8.20   12.90
  -2 -11   5   17.60   11.80
  -2 -11   5    2.10   13.00
  -2 -11   5   24.80   16.00
   1  11  -5   75.49   13.20
   1  11  -5  100.19   18.90
   1  11  -5   57.79   14.00
  -1 -11   5   60.59   14.40
  -1 -11   5   58.29   16.10
  -1 -11   5   32.10   11.70
  -1 -11   5   50.09    6.40
  -1 -11   5   53.19   14.90
   0  11  -5  307.07   22.70
   0  11  -5  318.47   22.30
   0  11  -5  374.86   30.20
   0 -11   5  300.77   28.20
   0 -11   5  342.07   30.20
   0 -11   5  263.27   25.70
   0 -11   5  314.27   15.90
   0 -11   5  304.07   24.40
  -1  11  -5  834.92   36.80
  -1  11  -5  881.11   42.70
  -1  11  -5  858.51   37.10
   1 -11   5  807.92   42.50
   1 -11   5  894.91   31.90
   1 -11   5  822.12   39.90
   1 -11   5  817.92   45.80
   1 -11   5  909.41   45.60
  -2  11  -5  214.18   10.60
  -2  11  -5  201.78   20.50
  -2  11  -5  170.88   20.70
  -2  11  -5  227.08   22.10
   2 -11   5  181.18   20.60
   2 -11   5  208.78   15.90
   2 -11   5  221.38   27.60
   2 -11   5  188.78   24.90
   2 -11   5  205.38   22.00
  -3  11  -5  189.98   21.90
  -3  11  -5  136.59   18.00
  -3  11  -5  140.29   17.50
   3 -11   5  108.99   22.60
   3 -11   5  156.38   15.70
   3 -11   5  118.19   18.10
  -4  11  -5  961.70   45.40
  -4  11  -5 1043.10   44.40
  -4  11  -5  998.50   45.20
   4 -11   5 1066.69   39.80
   4 -11   5 1037.70   49.00
   4 -11   5  975.50   49.20
  -5  11  -5    2.30   14.60
  -5  11  -5   10.80   12.50
  -5  11  -5    0.60   16.90
  -5  11  -5   -3.40   13.70
   5 -11   5   -1.50   16.90
   5 -11   5  -10.10   11.70
   5 -11   5   17.00   11.50
   5 -11   5   30.80   18.60
   3  10  -5  120.99   16.10
   3  10  -5  137.19   17.20
   3  10  -5  142.49   20.40
  -3 -10   5  146.79   18.00
  -3 -10   5  183.68   20.00
  -3 -10   5  143.69   17.10
  -3 -10   5  158.18   19.60
   2  10  -5   80.89   14.50
   2  10  -5   72.09   16.90
   2  10  -5   66.49   12.90
  -2 -10   5   56.99    5.20
  -2 -10   5   80.09   15.80
  -2 -10   5   44.20   13.00
  -2 -10   5   83.19   14.70
   1  10  -5  404.66   24.60
   1  10  -5  492.25   31.30
   1  10  -5  436.56   25.80
  -1 -10   5  409.76   29.30
  -1 -10   5  482.05   26.90
  -1 -10   5  469.55   29.20
   0  10  -5  721.03   37.60
   0  10  -5  659.23   31.40
   0  10  -5  655.03   31.00
   0 -10   5  718.43   32.80
   0 -10   5  720.43   36.20
   0 -10   5  755.62   37.50
  -1  10  -5  237.08   20.00
  -1  10  -5  220.68   19.50
  -1  10  -5  190.98   22.70
   1 -10   5  286.97   28.60
   1 -10   5  225.28   25.30
   1 -10   5  228.68   22.00
  -2  10  -5   12.10    4.50
  -2  10  -5   -0.30   13.00
  -2  10  -5   15.80   12.00
  -2  10  -5  -16.50    9.30
   2 -10   5   10.10   14.80
   2 -10   5   -7.20   11.90
   2 -10   5  -11.70   14.20
  -3  10  -5   52.39   13.90
  -3  10  -5   42.20   13.00
  -3  10  -5   42.20   10.10
  -3  10  -5   15.30   13.90
   3 -10   5   34.70   16.90
   3 -10   5   33.30   14.40
  -4  10  -5   26.80   14.60
  -4  10  -5   12.80    9.70
  -4  10  -5   -0.50   12.40
  -4  10  -5  -11.20   11.40
   4 -10   5    9.70   10.40
   4 -10   5   28.60   15.80
   4 -10   5   26.30   14.40
  -5  10  -5  152.58   18.40
  -5  10  -5  154.98   19.80
  -5  10  -5  175.78   22.40
  -5  10  -5  177.58   18.70
   5 -10   5  157.48   22.80
   5 -10   5  159.68   20.00
   5 -10   5  220.48   25.40
   5 -10   5  189.78   19.40
  -6  10  -5   -9.20   12.70
  -6  10  -5   27.90   18.70
  -6  10  -5   31.80   15.80
   6 -10   5   20.50   13.00
   6 -10   5   11.70   11.90
   6 -10   5   18.80   18.70
   6 -10   5   55.89   18.20
   4   9  -5   61.49   11.70
   4   9  -5   64.49   13.50
   4   9  -5   69.09   17.30
   4   9  -5   67.89   14.90
  -4  -9   5   55.19   15.30
  -4  -9   5   47.20   14.00
  -4  -9   5   74.89   15.30
  -4  -9   5   51.49   14.10
  -4  -9   5   41.90   14.30
   3   9  -5   62.39   13.30
   3   9  -5   66.69   10.50
   3   9  -5   68.39   12.30
   3   9  -5   79.19   14.80
  -3  -9   5   55.69   12.90
  -3  -9   5   67.39   15.00
  -3  -9   5   72.79   13.50
  -3  -9   5   53.49   13.30
   2   9  -5  937.01   38.50
   2   9  -5  990.80   43.30
   2   9  -5  984.20   39.00
  -2  -9   5 1026.20   40.10
  -2  -9   5  985.30   40.70
  -2  -9   5  907.41   40.20
   1   9  -5    5.70    9.80
   1   9  -5   13.10   11.40
   1   9  -5    5.90    9.00
  -1  -9   5   -8.10    9.40
  -1  -9   5   12.30   10.70
  -1  -9   5   -1.10   10.30
   0   9  -5   40.60   11.60
   0   9  -5   43.60   10.80
   0   9  -5   26.20   12.60
   0  -9   5   51.89   13.70
   0  -9   5   39.00   10.50
   0  -9   5   30.70   12.00
  -1   9  -5 1723.73   61.59
  -1   9  -5 1674.63   65.59
  -1   9  -5 1736.43   62.19
  -1   9  -5 1876.61   56.69
   1  -9   5 1635.24   62.39
   1  -9   5 1848.81   66.89
   1  -9   5 1740.23   65.99
  -2   9  -5  434.36   21.00
  -2   9  -5  368.06   24.20
  -2   9  -5  341.67   26.80
  -2   9  -5  398.06   15.00
  -2   9  -5  411.36   24.20
   2  -9   5  402.56   27.40
   2  -9   5  286.37   27.30
   2  -9   5  377.26   25.50
  -3   9  -5  350.96   23.70
  -3   9  -5  354.96   19.50
  -3   9  -5  352.66   24.60
  -3   9  -5  356.86   24.10
   3  -9   5  258.77   27.40
   3  -9   5  349.67   26.50
  -4   9  -5  190.58   21.00
  -4   9  -5  179.68   15.90
  -4   9  -5  156.88   18.80
  -4   9  -5  193.88   22.30
   4  -9   5  173.98   22.10
   4  -9   5  194.48   20.90
  -5   9  -5  761.52   32.80
  -5   9  -5  789.62   35.90
  -5   9  -5  758.42   38.20
  -5   9  -5  749.82   39.70
   5  -9   5  811.92   39.90
   5  -9   5  820.32   33.50
   5  -9   5  861.31   38.00
  -6   9  -5  119.89   18.00
  -6   9  -5   95.09   17.40
  -6   9  -5   86.39   16.40
  -6   9  -5  124.49   14.50
   6  -9   5   77.59   13.20
   6  -9   5  124.69   16.30
   6  -9   5   94.19   19.10
   6  -9   5  100.99   18.10
   5   8  -5  230.28   24.50
   5   8  -5  173.28   19.80
   5   8  -5  211.78   23.00
   5   8  -5  224.28   26.30
  -5  -8   5  186.08   24.60
  -5  -8   5  282.77   26.60
  -5  -8   5  194.28   24.30
  -5  -8   5  201.08   22.40
   4   8  -5   87.79   13.50
   4   8  -5   76.79   10.70
   4   8  -5   68.59   14.00
   4   8  -5   75.49   14.60
  -4  -8   5  106.09   15.70
  -4  -8   5   77.99   14.40
  -4  -8   5   43.50   13.30
   3   8  -5  341.87   25.20
   3   8  -5  325.77   23.10
   3   8  -5  400.46   22.60
   3   8  -5  375.06   19.30
  -3  -8   5  367.56   13.80
  -3  -8   5  371.76   22.90
  -3  -8   5  368.66   23.00
  -3  -8   5  432.46   24.40
  -3  -8   5  410.56   23.50
   2   8  -5   49.60   10.40
   2   8  -5   75.49   13.40
   2   8  -5   53.49   10.20
  -2  -8   5   55.39   10.50
  -2  -8   5   58.19   12.40
  -2  -8   5   59.99   11.30
  -2  -8   5   52.39   10.70
   1   8  -5  659.23   33.10
   1   8  -5  672.23   29.20
   1   8  -5  663.33   28.90
  -1  -8   5  676.73   30.40
  -1  -8   5  655.83   30.90
  -1  -8   5  693.93   31.30
  -1  -8   5  743.03   30.00
   0   8  -5    6.30    8.10
   0   8  -5    5.80    8.20
   0   8  -5    4.10   12.40
   0  -8   5   -3.90    8.80
   0  -8   5    1.10    8.20
   0  -8   5   11.60   11.10
   0  -8   5   27.70   11.20
  -1   8  -5   38.80   10.00
  -1   8  -5   40.80   10.30
  -1   8  -5   33.40   13.60
  -1   8  -5   26.70    5.20
   1  -8   5   30.10    9.70
   1  -8   5   37.50   13.40
   1  -8   5   12.70   13.30
   1  -8   5   33.90   10.90
  -2   8  -5  451.75   23.30
  -2   8  -5  376.46   26.50
  -2   8  -5  451.25   24.40
  -2   8  -5  450.85   20.20
  -2   8  -5  441.26   16.30
   2  -8   5  370.66   23.40
   2  -8   5  395.86   24.70
   2  -8   5  384.26   27.00
   2  -8   5  452.65   28.60
  -3   8  -5  684.73   32.70
  -3   8  -5  697.93   27.50
  -3   8  -5  744.93   33.30
  -3   8  -5  716.23   32.50
   3  -8   5  662.53   34.00
   3  -8   5  715.23   34.30
   3  -8   5  667.33   33.40
  -4   8  -5   33.80   11.80
  -4   8  -5   54.79   12.90
  -4   8  -5   48.50   12.70
  -4   8  -5   44.50    8.60
   4  -8   5   52.29   12.70
   4  -8   5   37.60   13.40
   4  -8   5   17.70   10.50
  -5   8  -5   -7.70   11.90
  -5   8  -5   12.70   12.60
  -5   8  -5   -7.40   11.50
  -5   8  -5    1.00    8.40
   5  -8   5    2.40   12.10
   5  -8   5   -4.60   11.40
   5  -8   5   -8.10   13.40
  -6   8  -5  612.24   34.00
  -6   8  -5  610.94   27.80
  -6   8  -5  570.54   35.10
  -6   8  -5  591.64   32.60
   6  -8   5  573.54   31.90
   6  -8   5  589.54   27.70
   6  -8   5  590.74   32.00
   6  -8   5  525.45   32.10
  -7   8  -5  108.49   21.00
  -7   8  -5   85.29   13.90
  -7   8  -5   71.89   16.50
  -7   8  -5   96.69   18.60
   7  -8   5   96.79   14.00
   7  -8   5   98.59   20.10
   7  -8   5  114.29   19.20
   7  -8   5   85.89   17.40
   6   7  -5   -0.30    8.30
   6   7  -5   57.59   15.20
   6   7  -5    3.70   15.90
   6   7  -5   14.60   15.90
  -6  -7   5    9.60   15.20
  -6  -7   5   47.70   15.40
  -6  -7   5   34.40   15.90
  -6  -7   5   12.70   15.20
   5   7  -5  625.94   32.30
   5   7  -5  588.74   30.60
   5   7  -5  606.34   27.30
   5   7  -5  569.54   31.80
  -5  -7   5  616.84   32.80
  -5  -7   5  623.24   32.60
  -5  -7   5  605.44   31.90
  -5  -7   5  625.24   32.20
   4   7  -5  283.37   20.40
   4   7  -5  305.57   17.40
   4   7  -5  329.27   22.20
   4   7  -5  320.87   21.80
  -4  -7   5  284.37   21.90
  -4  -7   5  278.27   21.60
  -4  -7   5  335.67   22.90
  -4  -7   5  285.67   11.30
   3   7  -5   51.39   10.50
   3   7  -5   49.30   11.20
   3   7  -5   77.69   11.30
   3   7  -5   52.19    7.60
  -3  -7   5   54.29   11.20
  -3  -7   5   62.19   11.30
  -3  -7   5   56.59    5.10
  -3  -7   5   66.49   11.80
   2   7  -5  609.24   27.20
   2   7  -5  613.34   26.90
   2   7  -5  636.44   28.90
  -2  -7   5  572.34   27.60
  -2  -7   5  608.04   27.30
  -2  -7   5  512.75   26.10
  -2  -7   5  614.14   28.00
   1   7  -5 1928.61   64.99
   1   7  -5 1953.50   65.39
   1   7  -5 1914.61   67.49
  -1  -7   5 1767.22   65.09
  -1  -7   5 1834.42   65.39
  -1  -7   5 1957.20   64.39
  -1  -7   5 1997.20   66.29
   0   7  -5   41.10   11.50
   0   7  -5   43.10    9.40
   0   7  -5   40.30    9.80
   0  -7   5   41.20    8.30
   0  -7   5   30.90    9.50
   0  -7   5   38.70   10.50
   0  -7   5   60.99   11.60
  -1   7  -5   73.49   10.50
  -1   7  -5   88.99   11.00
  -1   7  -5   76.09    7.40
  -1   7  -5   80.39   13.40
   1  -7   5   98.89   13.90
   1  -7   5   70.69    9.90
   1  -7   5   81.79   12.90
   1  -7   5   75.09   13.30
  -2   7  -5 1611.54   56.79
  -2   7  -5 1673.43   52.69
  -2   7  -5 1594.44   50.99
  -2   7  -5 1382.26   57.69
  -2   7  -5 1691.93   57.49
   2  -7   5 1643.74   58.59
   2  -7   5 1564.84   57.99
   2  -7   5 1485.55   54.99
   2  -7   5 1607.44   57.99
  -3   7  -5   60.49   11.50
  -3   7  -5   63.79   11.20
  -3   7  -5   59.09    7.40
  -3   7  -5   37.30   12.30
   3  -7   5   59.29   12.50
   3  -7   5   56.99   13.20
   3  -7   5   71.59   12.30
  -4   7  -5 1053.39   37.60
  -4   7  -5 1070.69   41.80
  -4   7  -5 1095.29   42.90
  -4   7  -5  976.10   42.10
   4  -7   5 1126.89   42.90
   4  -7   5 1082.49   43.70
   4  -7   5 1031.10   43.30
  -5   7  -5   64.39   13.80
  -5   7  -5   55.49   13.40
  -5   7  -5   62.89    9.20
  -5   7  -5   49.00   14.10
   5  -7   5   55.49   12.70
   5  -7   5   38.70   11.80
   5  -7   5   59.59   13.30
  -6   7  -5  137.99   16.90
  -6   7  -5  137.19   16.20
  -6   7  -5  142.49   16.10
  -6   7  -5  144.19   19.10
   6  -7   5  180.08   23.50
   6  -7   5  119.09   17.30
   6  -7   5  138.39   16.50
  -7   7  -5  327.87   24.20
  -7   7  -5  361.66   29.50
  -7   7  -5  441.66   31.50
  -7   7  -5  396.56   29.50
   7  -7   5  417.76   30.30
   7  -7   5  381.86   23.80
   7  -7   5  455.85   29.40
   7  -7   5  303.47   29.60
   6   6  -5  135.39   19.20
   6   6  -5  114.69   15.80
   6   6  -5  117.29   17.90
  -6  -6   5  111.39   16.00
  -6  -6   5  135.09   18.10
  -6  -6   5  114.59   17.90
  -6  -6   5  140.19   16.20
   5   6  -5  259.77   15.70
   5   6  -5  243.98   22.10
   5   6  -5  210.98   20.00
   5   6  -5  264.17   23.20
  -5  -6   5  221.08   20.30
  -5  -6   5  233.38   21.40
  -5  -6   5  245.98   21.90
  -5  -6   5  221.78   20.70
   4   6  -5  653.93   30.10
   4   6  -5  725.03   26.80
   4   6  -5  671.03   31.10
   4   6  -5  702.93   32.40
  -4  -6   5  744.73   32.00
  -4  -6   5  703.93   31.10
  -4  -6   5  714.83   23.90
  -4  -6   5  708.03   31.20
   3   6  -5  303.67   18.30
   3   6  -5  313.37   19.30
   3   6  -5  296.77   14.40
   3   6  -5  318.87   20.40
  -3  -6   5  333.27   19.70
  -3  -6   5  306.27   18.80
  -3  -6   5  296.67   12.60
  -3  -6   5  291.07   18.20
   2   6  -5  103.99   11.10
   2   6  -5   78.29   10.10
   2   6  -5   85.59   11.30
  -2  -6   5   69.99    9.80
  -2  -6   5  109.99   12.20
  -2  -6   5   98.59   11.00
   1   6  -5  122.69   13.60
   1   6  -5  137.69   13.80
   1   6  -5  127.79   12.70
  -1  -6   5  132.29   11.80
  -1  -6   5  146.39   13.80
  -1  -6   5  158.88   14.00
  -1  -6   5  137.29   13.60
   0   6  -5 1297.77   45.80
   0   6  -5 1300.07   47.40
   0   6  -5 1260.47   45.20
   0  -6   5 1268.07   46.10
   0  -6   5 1225.48   43.40
   0  -6   5 1254.37   46.30
   0  -6   5 1198.68   45.90
  -1   6  -5  168.28   15.60
  -1   6  -5  177.88    9.30
  -1   6  -5  168.58   18.60
  -1   6  -5  167.38   14.30
   1  -6   5  150.48   15.80
   1  -6   5  199.48   18.10
   1  -6   5  178.58   13.40
   1  -6   5  174.68   17.30
  -2   6  -5   -1.60    4.60
  -2   6  -5   -0.20    8.00
  -2   6  -5    1.60    8.10
  -2   6  -5    4.60    4.50
  -2   6  -5  -19.20    9.10
   2  -6   5   -9.30    9.50
   2  -6   5   -7.40    8.10
   2  -6   5    6.70    6.10
   2  -6   5   -9.10    8.60
  -3   6  -5  583.44   25.80
  -3   6  -5  546.65   20.60
  -3   6  -5  490.35   25.30
  -3   6  -5  513.05   25.30
   3  -6   5  569.44   26.00
   3  -6   5  520.25   25.60
   3  -6   5  515.45   26.20
  -4   6  -5 1059.29   40.20
  -4   6  -5 1025.70   35.70
  -4   6  -5  993.80   40.10
  -4   6  -5 1000.70   40.50
   4  -6   5 1034.40   40.70
   4  -6   5 1099.19   41.00
   4  -6   5 1017.30   40.60
   4  -6   5 1000.40   33.30
  -5   6  -5    5.60   10.50
  -5   6  -5   -5.40    6.50
  -5   6  -5    2.50   10.50
  -5   6  -5   18.40   11.50
   5  -6   5    3.30    9.80
   5  -6   5    6.30    4.70
   5  -6   5    6.30   10.10
   5  -6   5   -1.70   11.50
  -6   6  -5   12.30    8.30
  -6   6  -5   16.20   13.50
  -6   6  -5   14.00   11.90
  -6   6  -5   17.10   13.90
   6  -6   5   11.80   12.20
   6  -6   5   12.00   12.60
   6  -6   5   16.40   14.30
   6  -6   5   15.20    6.50
  -7   6  -5  431.96   32.00
  -7   6  -5  438.96   30.60
  -7   6  -5  463.95   24.50
  -7   6  -5  432.26   31.00
   7  -6   5  473.95   25.00
   7  -6   5  427.66   31.20
   7  -6   5  494.65   30.80
   7  -6   5  398.46   30.50
   6   5  -5   17.50   12.40
   6   5  -5   20.10   13.10
   6   5  -5   20.70   12.40
  -6  -5   5   -6.70   12.00
  -6  -5   5   22.60   12.00
  -6  -5   5   13.50   12.00
  -6  -5   5   12.10   13.30
   5   5  -5   65.19   11.70
   5   5  -5   60.79   13.10
   5   5  -5   75.69    7.30
   5   5  -5   74.49   12.30
  -5  -5   5   70.89   12.10
  -5  -5   5   63.39   11.80
  -5  -5   5   67.99    7.60
  -5  -5   5   70.89   11.90
  -5  -5   5   58.29   11.50
   4   5  -5 1456.95   46.80
   4   5  -5 1406.46   51.19
   4   5  -5 1440.56   50.89
   4   5  -5 1452.95   50.89
  -4  -5   5 1383.56   50.89
  -4  -5   5 1427.56   50.79
  -4  -5   5 1435.46   50.89
  -4  -5   5 1400.16   51.19
  -4  -5   5 1399.86   45.70
   3   5  -5  413.26   16.10
   3   5  -5  384.26   19.90
   3   5  -5  394.26   20.40
   3   5  -5  415.26   20.20
  -3  -5   5  422.06   20.10
  -3  -5   5  408.96   16.00
  -3  -5   5  427.86   21.60
  -3  -5   5  439.56   21.00
   2   5  -5 1399.96   48.10
   2   5  -5 1428.46   48.90
   2   5  -5 1347.57   48.00
  -2  -5   5 1357.76   47.80
  -2  -5   5 1397.56   48.80
  -2  -5   5 1347.47   47.70
   1   5  -5   96.89   12.20
   1   5  -5  103.99   11.10
   1   5  -5  100.59   12.20
  -1  -5   5   98.29   11.40
  -1  -5   5   91.49   11.00
  -1  -5   5  103.69   11.60
   0   5  -5 2608.44   84.29
   0   5  -5 2739.03   87.99
   0   5  -5 2764.02   87.89
   0   5  -5 2843.02   89.39
   0  -5   5 2607.34   87.59
   0  -5   5 2633.54   87.79
   0  -5   5 2672.33   85.39
   0  -5   5 2598.84   88.49
  -1   5  -5 1738.23   59.49
  -1   5  -5 1675.03   60.69
  -1   5  -5 1681.43   59.39
  -1   5  -5 1734.13   55.59
   1  -5   5 1855.91   60.49
   1  -5   5 1771.12   60.39
   1  -5   5 1717.03   56.99
   1  -5   5 1734.43   60.79
  -2   5  -5  207.18   16.20
  -2   5  -5  223.18   10.20
  -2   5  -5  227.98   15.90
  -2   5  -5  215.68   15.90
   2  -5   5  211.18   15.60
   2  -5   5  225.88    9.90
   2  -5   5  240.18   16.50
   2  -5   5  226.48   17.10
  -3   5  -5  626.84   26.40
  -3   5  -5  620.74   21.70
  -3   5  -5  602.04   26.30
  -3   5  -5  588.84   26.90
   3  -5   5  572.64   26.30
   3  -5   5  570.14   26.10
   3  -5   5  602.14   21.20
   3  -5   5  627.74   27.00
  -4   5  -5   63.69   10.10
  -4   5  -5   83.49   11.90
  -4   5  -5   62.89   10.70
  -4   5  -5   70.79    6.90
   4  -5   5   61.89    9.90
   4  -5   5   61.29   11.10
   4  -5   5   65.79    7.80
   4  -5   5   77.99   11.20
  -5   5  -5 1251.47   46.20
  -5   5  -5 1104.89   44.40
  -5   5  -5 1130.29   40.50
  -5   5  -5 1166.58   45.80
   5  -5   5 1167.78   45.20
   5  -5   5 1165.28   45.10
   5  -5   5 1232.88   40.00
   5  -5   5 1198.38   45.30
  -6   5  -5    8.80   12.50
  -6   5  -5   15.50   11.30
  -6   5  -5   11.60   12.80
   6  -5   5    6.40   11.90
   6  -5   5   14.40   11.60
   6  -5   5   13.90   12.60
  -7   5  -5   -1.80   14.40
  -7   5  -5   40.90   14.40
  -7   5  -5   -6.40   14.50
  -7   5  -5   25.60   14.00
   7  -5   5    0.90   13.80
   7  -5   5   -6.60   13.40
   7  -5   5    4.10    9.50
   7  -5   5   -0.60   14.20
   7   4  -5  305.77   27.80
   7   4  -5  228.88   24.20
   7   4  -5  284.27   26.30
  -7  -4   5  269.37   25.50
  -7  -4   5  285.77   26.00
  -7  -4   5  284.77   24.50
  -7  -4   5  249.68   25.80
   6   4  -5  702.43   33.70
   6   4  -5  755.12   34.30
   6   4  -5  763.52   35.60
  -6  -4   5  753.52   33.90
  -6  -4   5  754.82   27.10
  -6  -4   5  798.92   34.50
  -6  -4   5  734.73   34.50
  -6  -4   5  785.92   34.40
   5   4  -5   -7.00    8.30
   5   4  -5   -8.40    8.80
   5   4  -5   -7.80    8.40
  -5  -4   5    4.40    4.70
  -5  -4   5  -10.50    8.50
  -5  -4   5   -1.60    9.70
  -5  -4   5   -3.60    8.10
  -5  -4   5  -14.30    8.60
   4   4  -5   70.49   10.00
   4   4  -5   80.19   10.50
   4   4  -5   67.89    6.70
   4   4  -5   69.99   10.30
  -4  -4   5   72.79    7.50
  -4  -4   5   61.19    9.60
  -4  -4   5   80.89   11.10
  -4  -4   5   62.39    9.60
  -4  -4   5   57.79    9.30
   3   4  -5  733.23   24.20
   3   4  -5  673.33   28.10
   3   4  -5  753.72   29.00
   3   4  -5  746.03   29.20
  -3  -4   5  728.33   28.60
  -3  -4   5  715.63   29.30
  -3  -4   5  712.83   25.20
  -3  -4   5  736.23   28.40
   2   4  -5  180.08   13.00
   2   4  -5  187.48   12.40
   2   4  -5  171.68   13.10
  -2  -4   5  175.28   13.80
  -2  -4   5  171.48   11.60
  -2  -4   5  181.28   12.40
   1   4  -5   96.79   11.20
   1   4  -5   83.49    9.90
   1   4  -5   89.69   11.00
  -1  -4   5   75.99    9.70
  -1  -4   5   83.39    9.00
  -1  -4   5   97.19   10.30
   0   4  -5   51.09    5.60
   0   4  -5   49.60    9.20
   0   4  -5   42.20    8.00
   0   4  -5   47.50    8.20
   0  -4   5   49.80    5.40
   0  -4   5   53.99    8.10
   0  -4   5   38.00    8.70
   0  -4   5   49.30    8.20
  -1   4  -5  121.89   12.50
  -1   4  -5  128.09    8.60
  -1   4  -5  134.79   11.60
  -1   4  -5  134.99   12.50
   1  -4   5  135.09    7.90
   1  -4   5  160.68   13.30
   1  -4   5  128.09   13.00
   1  -4   5  130.29    8.80
   1  -4   5  128.89   12.40
  -2   4  -5 1812.62   60.99
  -2   4  -5 1852.21   61.29
  -2   4  -5 1751.22   61.09
  -2   4  -5 1800.42   56.79
   2  -4   5 1811.72   57.89
   2  -4   5 1822.72   61.09
   2  -4   5 1833.02   61.39
   2  -4   5 1819.82   61.29
  -3   4  -5   49.99    8.30
  -3   4  -5   66.99   10.00
  -3   4  -5   52.19    8.70
  -3   4  -5   45.90    5.80
   3  -4   5   49.60    8.80
   3  -4   5   58.49    9.10
   3  -4   5   63.09    6.30
   3  -4   5   60.69    9.30
  -4   4  -5   74.99   10.30
  -4   4  -5   84.99   11.40
  -4   4  -5   78.49   11.40
   4  -4   5   75.19    9.80
   4  -4   5   77.79    8.80
   4  -4   5   74.69   10.70
   4  -4   5  100.19   12.00
  -5   4  -5  653.73   30.30
  -5   4  -5  676.83   30.90
  -5   4  -5  637.64   29.20
   5  -4   5  661.53   30.40
   5  -4   5  673.63   29.90
   5  -4   5  690.93   31.40
  -6   4  -5   32.90   11.90
  -6   4  -5   39.10   12.70
  -6   4  -5   42.90   11.50
   6  -4   5   56.29   12.80
   6  -4   5   53.59   11.80
   6  -4   5   50.39   12.80
  -7   4  -5  191.08   23.30
  -7   4  -5  183.78   19.50
  -7   4  -5  159.48   18.00
  -7   4  -5  207.48   25.10
  -7   4  -5  190.38   22.00
   7  -4   5  171.28   16.70
   7  -4   5  159.18   17.90
   7  -4   5  160.18   21.00
   7  -4   5  197.48   25.60
   7   3  -5   45.40   14.70
   7   3  -5   33.20   14.40
   7   3  -5    5.50   13.10
  -7  -3   5   16.70   12.80
  -7  -3   5   24.10   12.90
  -7  -3   5   30.00   13.50
  -7  -3   5   26.50   13.80
   6   3  -5  898.21   38.10
   6   3  -5  893.41   37.20
   6   3  -5  901.91   37.10
  -6  -3   5  876.91   31.30
  -6  -3   5  883.91   36.60
  -6  -3   5  855.91   37.10
  -6  -3   5  876.11   37.00
  -6  -3   5  892.31   36.50
   5   3  -5  245.78   18.40
   5   3  -5  222.48   17.80
   5   3  -5  214.98   17.00
  -5  -3   5  187.68   16.40
  -5  -3   5  225.08   17.30
  -5  -3   5  207.68   11.90
  -5  -3   5  220.88   17.30
  -5  -3   5  231.38   16.80
   4   3  -5  651.33   26.20
   4   3  -5  674.83   26.90
   4   3  -5  613.14   25.70
  -4  -3   5  632.24   25.60
  -4  -3   5  576.74   25.80
  -4  -3   5  594.64   25.70
  -4  -3   5  603.14   22.40
  -4  -3   5  623.34   25.80
   3   3  -5  953.40   35.90
   3   3  -5 1001.70   36.00
   3   3  -5 1046.70   31.80
   3   3  -5 1015.60   36.10
  -3  -3   5  993.70   33.70
  -3  -3   5  971.90   35.90
  -3  -3   5 1022.10   36.70
  -3  -3   5 1031.80   35.80
   2   3  -5   67.29    7.40
   2   3  -5   54.29    6.80
   2   3  -5   65.99    7.80
  -2  -3   5   65.89    7.90
  -2  -3   5   72.29    7.90
  -2  -3   5   60.29    7.10
   1   3  -5 3099.99   97.79
   1   3  -5 3103.99   96.19
   1   3  -5 3212.08   97.89
   1   3  -5 2968.60   97.39
  -1  -3   5 3082.99   96.99
  -1  -3   5 2906.01   96.89
  -1  -3   5 3051.09   98.19
   0   3  -5  174.18    9.30
   0   3  -5  171.78   12.40
   0   3  -5  169.78   12.40
   0   3  -5  159.88   13.00
   0  -3   5  170.58    9.10
   0  -3   5  136.69   12.70
   0  -3   5  168.88   11.70
   0  -3   5  179.08   11.80
  -1   3  -5   42.20    7.20
  -1   3  -5   43.70    5.80
  -1   3  -5   30.90    7.00
  -1   3  -5   51.19    6.90
   1  -3   5   46.10    8.10
   1  -3   5   51.59    7.60
   1  -3   5   44.70    4.70
   1  -3   5   51.19    7.10
   1  -3   5   49.80    5.40
  -2   3  -5 1953.20   65.39
  -2   3  -5 1942.41   61.09
  -2   3  -5 1998.40   65.09
  -2   3  -5 1926.71   65.39
   2  -3   5 2013.40   65.59
   2  -3   5 2022.80   63.59
   2  -3   5 2039.10   65.29
   2  -3   5 1961.00   65.19
  -3   3  -5  642.84   26.00
  -3   3  -5  627.34   25.40
  -3   3  -5  655.13   26.50
   3  -3   5  618.84   25.20
   3  -3   5  665.93   26.10
   3  -3   5  639.94   25.90
   3  -3   5  632.74   23.70
  -4   3  -5   -2.70    7.70
  -4   3  -5    5.90    7.20
  -4   3  -5   12.70    7.90
   4  -3   5    0.70    7.60
   4  -3   5    8.80    7.70
   4  -3   5    2.00    7.10
  -5   3  -5  331.07   20.70
  -5   3  -5  314.97   21.60
  -5   3  -5  329.57   20.30
   5  -3   5  344.77   21.90
   5  -3   5  304.37   19.10
   5  -3   5  320.57   21.40
  -6   3  -5  351.16   20.90
  -6   3  -5  330.77   23.80
  -6   3  -5  298.17   23.50
  -6   3  -5  331.17   22.80
  -6   3  -5  333.27   22.80
   6  -3   5  352.36   24.40
   6  -3   5  315.17   24.20
   6  -3   5  347.57   23.50
  -7   3  -5   61.69   15.70
  -7   3  -5   19.90   14.70
  -7   3  -5   25.00   11.90
  -7   3  -5   22.10   13.30
  -7   3  -5   45.70   14.90
   7  -3   5    7.00   15.20
   7  -3   5   16.20   14.00
   7  -3   5   36.30   13.80
   7  -3   5   47.60   10.30
   7   2  -5   30.80   13.50
   7   2  -5   30.30   12.30
   7   2  -5   14.90   12.90
  -7  -2   5   34.70   13.00
  -7  -2   5   18.50   13.80
  -7  -2   5   30.10   11.90
  -7  -2   5   33.70   12.40
   6   2  -5  882.41   36.50
   6   2  -5  845.02   35.80
   6   2  -5  947.31   37.10
  -6  -2   5  852.61   35.80
  -6  -2   5  889.41   36.90
  -6  -2   5  897.01   36.20
  -6  -2   5  840.22   35.70
  -6  -2   5  843.02   31.40
   5   2  -5  563.84   25.50
   5   2  -5  548.65   25.80
   5   2  -5  616.04   26.70
  -5  -2   5  601.14   22.60
  -5  -2   5  601.44   25.90
  -5  -2   5  586.14   25.60
  -5  -2   5  583.04   25.90
  -5  -2   5  587.74   25.80
   4   2  -5   15.80    7.30
   4   2  -5   12.30    6.50
   4   2  -5   20.60    6.80
  -4  -2   5    6.60    6.10
  -4  -2   5   11.10    6.20
  -4  -2   5   11.30    7.20
  -4  -2   5   15.80    6.70
  -4  -2   5    9.70    4.80
   3   2  -5  789.02   28.40
   3   2  -5  750.32   27.90
   3   2  -5  739.03   27.80
  -3  -2   5  772.92   27.70
  -3  -2   5  747.73   27.80
  -3  -2   5  759.02   26.40
  -3  -2   5  725.63   27.70
   2   2  -5   18.10    5.00
   2   2  -5   28.40    5.50
   2   2  -5   29.70    5.70
   2   2  -5   21.40    4.90
  -2  -2   5   24.00    5.00
  -2  -2   5   24.30    4.80
  -2  -2   5   26.80    5.80
   1   2  -5  626.54   22.10
   1   2  -5  604.04   23.30
   1   2  -5  594.14   22.60
   1   2  -5  640.74   23.50
  -1  -2   5  590.64   22.40
  -1  -2   5  645.64   23.80
  -1  -2   5  591.74   22.40
   0   2  -5  493.35   20.00
   0   2  -5  429.66   19.40
   0   2  -5  464.65   19.70
   0   2  -5  472.25   17.90
   0  -2   5  472.15   18.10
   0  -2   5  497.35   19.20
   0  -2   5  452.05   20.20
   0  -2   5  491.45   19.20
  -1   2  -5    3.10    5.00
  -1   2  -5   -2.40    4.80
  -1   2  -5    2.60    5.40
  -1   2  -5   -2.80    4.70
   1  -2   5    4.50    5.00
   1  -2   5    6.20    4.70
   1  -2   5   -0.70    4.70
   1  -2   5   -3.80    4.70
  -2   2  -5  470.15   19.50
  -2   2  -5  497.25   20.00
  -2   2  -5  465.25   19.50
   2  -2   5  507.35   20.30
   2  -2   5  479.25   18.90
   2  -2   5  488.15   19.80
   2  -2   5  475.35   19.80
  -3   2  -5  194.88   12.90
  -3   2  -5  193.18   12.80
  -3   2  -5  173.78   11.90
   3  -2   5  197.68   13.50
   3  -2   5  191.58   12.50
   3  -2   5  181.88   12.70
  -4   2  -5  675.33   28.00
  -4   2  -5  694.13   27.80
  -4   2  -5  697.63   27.30
  -4   2  -5  674.13   27.40
   4  -2   5  662.73   27.30
   4  -2   5  682.13   28.70
   4  -2   5  702.73   28.20
  -5   2  -5   11.90    8.40
  -5   2  -5    4.80   10.20
  -5   2  -5   -3.70    7.80
  -5   2  -5   -6.70    8.70
   5  -2   5   -4.90    7.80
   5  -2   5    0.10    8.70
   5  -2   5   -9.30    9.10
  -6   2  -5   96.79   13.70
  -6   2  -5  113.09   15.10
  -6   2  -5  106.29   13.30
  -6   2  -5  107.99   15.20
  -6   2  -5  159.68   16.80
   6  -2   5  121.39   14.50
   6  -2   5  135.39   16.40
   6  -2   5  109.69   15.00
  -7   2  -5  559.24   28.60
  -7   2  -5  581.04   31.40
  -7   2  -5  577.84   31.30
  -7   2  -5  550.44   32.60
  -7   2  -5  550.94   31.10
   7  -2   5  612.84   26.00
   7  -2   5  580.84   33.50
   7  -2   5  546.85   30.10
   7  -2   5  561.34   31.70
   8   1  -5   21.20   14.20
  -8  -1   5   46.20   15.50
  -8  -1   5   55.79   17.10
  -8  -1   5   32.30   15.50
   7   1  -5  216.88   21.00
   7   1  -5  200.58   21.30
   7   1  -5  191.28   21.80
  -7  -1   5  213.58   20.20
  -7  -1   5  211.18   21.10
  -7  -1   5  239.78   22.30
  -7  -1   5  213.88   21.10
   6   1  -5   49.30   11.00
   6   1  -5   63.99   10.80
  -6  -1   5   48.90   10.60
  -6  -1   5   36.60    7.60
  -6  -1   5   41.40   10.40
  -6  -1   5   53.59   11.80
  -6  -1   5   59.49   10.80
   5   1  -5  164.58   13.40
   5   1  -5  139.49   14.30
   5   1  -5  175.58   14.90
  -5  -1   5  158.68   14.10
  -5  -1   5  168.98   11.70
  -5  -1   5  167.28   13.10
  -5  -1   5  179.68   15.40
  -5  -1   5  168.28   14.10
   4   1  -5 1236.38   45.10
   4   1  -5 1396.86   45.70
   4   1  -5 1303.87   45.80
  -4  -1   5 1335.17   45.20
  -4  -1   5 1340.07   45.50
  -4  -1   5 1305.47   44.00
  -4  -1   5 1307.37   45.80
  -4  -1   5 1388.96   45.50
   3   1  -5 1813.02   59.99
   3   1  -5 1770.22   59.99
   3   1  -5 1834.52   59.89
   3   1  -5 1863.31   60.09
  -3  -1   5 1872.51   59.69
  -3  -1   5 1824.12   59.79
  -3  -1   5 1830.62   60.09
  -3  -1   5 1909.81   59.99
  -3  -1   5 1857.61   59.29
   2   1  -5 1739.73   57.49
   2   1  -5 1721.53   54.99
   2   1  -5 1800.42   57.49
   2   1  -5 1749.82   57.69
   2   1  -5 1817.42   57.39
  -2  -1   5 1799.12   57.29
  -2  -1   5 1818.22   57.59
  -2  -1   5 1810.22   57.19
   1   1  -5 1494.85   47.60
   1   1  -5 1509.65   47.90
   1   1  -5 1419.16   47.40
   1   1  -5 1453.95   47.80
   1   1  -5 1470.35   45.90
  -1  -1   5 1414.36   47.10
  -1  -1   5 1446.36   47.70
  -1  -1   5 1382.66   47.00
  -1  -1   5 1486.55   47.70
   0   1  -5 2356.36   74.89
   0   1  -5 2275.27   74.79
   0   1  -5 2329.47   73.39
   0   1  -5 2369.96   74.79
   0   1  -5 2395.16   74.79
   0  -1   5 2282.37   74.69
   0  -1   5 2328.57   74.19
   0  -1   5 2366.86   75.29
   0  -1   5 2339.67   74.19
  -1   1  -5  141.19    9.00
  -1   1  -5  136.59    9.00
  -1   1  -5  147.79    9.50
  -1   1  -5  134.29    9.50
   1  -1   5  134.59    9.00
   1  -1   5  144.39    9.10
   1  -1   5  134.19    9.50
   1  -1   5  133.49    9.50
  -2   1  -5  129.69    5.10
  -2   1  -5  103.99    9.00
  -2   1  -5  118.79    9.50
  -2   1  -5  128.29    9.30
  -2   1  -5  131.59   10.10
   2  -1   5  107.09    9.10
   2  -1   5  118.19    9.70
   2  -1   5  137.89    9.80
  -3   1  -5 1394.16   46.10
  -3   1  -5 1402.16   46.70
  -3   1  -5 1360.16   45.80
  -3   1  -5 1258.27   45.60
   3  -1   5 1398.06   46.20
   3  -1   5 1352.06   46.50
   3  -1   5 1296.37   45.60
  -4   1  -5   39.90    8.00
  -4   1  -5   28.90    7.50
  -4   1  -5   24.00    8.00
  -4   1  -5   22.10    7.60
   4  -1   5   29.40    8.20
   4  -1   5   30.50    8.00
   4  -1   5   30.80    9.00
  -5   1  -5    7.30    8.90
  -5   1  -5   15.20    8.70
  -5   1  -5   13.40    9.00
  -5   1  -5   20.00    9.90
  -5   1  -5   14.40    8.40
   5  -1   5   13.80   10.30
   5  -1   5    6.20    9.00
   5  -1   5    6.50    9.10
  -6   1  -5   45.00   10.70
  -6   1  -5   38.10   11.40
  -6   1  -5   38.80   11.60
  -6   1  -5   49.70   12.30
  -6   1  -5   48.10   12.60
   6  -1   5   48.70   11.60
   6  -1   5   33.70   13.10
   6  -1   5   49.70   12.50
  -7   1  -5   70.59   15.60
  -7   1  -5   81.39   13.70
  -7   1  -5   59.29   14.70
  -7   1  -5   63.09   14.10
  -7   1  -5   51.29   15.00
   7  -1   5   66.09   15.20
   7  -1   5   88.19   10.50
   7  -1   5   82.79   16.00
   7  -1   5   41.10   15.70
   8   0  -5  365.96   28.20
   8   0  -5  383.96   27.60
  -8   0   5  384.56   27.50
  -8   0   5  370.06   27.80
  -8   0   5  377.86   24.80
  -8   0   5  418.26   29.30
   7   0  -5  101.69   13.70
  -7   0   5  104.69   13.20
  -7   0   5   97.69   11.20
  -7   0   5  103.99   15.00
  -7   0   5   99.19   13.80
  -7   0   5   87.49   12.20
   6   0  -5    9.20    9.30
   6   0  -5    6.70    9.20
  -6   0   5   -1.70    8.50
  -6   0   5   19.80    8.60
  -6   0   5   14.90    9.00
  -6   0   5   20.20    7.10
  -6   0   5   14.50    7.60
   5   0  -5  296.27   16.80
   5   0  -5  269.07   16.60
   5   0  -5  301.07   17.10
  -5   0   5  258.67   16.00
  -5   0   5  306.77   15.10
  -5   0   5  279.87   17.10
  -5   0   5  262.17   15.90
  -5   0   5  283.47   16.20
   4   0  -5   63.29    7.50
   4   0  -5   67.39    8.10
   4   0  -5   65.29    7.90
   4   0  -5   80.29    9.80
  -4   0   5   62.59    7.00
  -4   0   5   64.29    7.40
  -4   0   5   52.69    7.40
  -4   0   5   83.29    9.10
  -4   0   5   72.79    7.70
   3   0  -5  128.79    9.10
   3   0  -5  123.29   10.00
   3   0  -5  127.39    9.00
   3   0  -5  135.99    9.20
  -3   0   5  132.79    8.90
  -3   0   5  130.69    8.70
  -3   0   5  127.59    9.00
  -3   0   5  119.59    9.20
  -3   0   5  127.89    8.90
   2   0  -5   27.60    4.40
   2   0  -5   28.10    4.40
   2   0  -5   25.30    4.00
   2   0  -5   23.00    5.50
  -2   0   5   31.90    5.60
  -2   0   5   25.20    4.10
  -2   0   5   23.10    3.90
  -2   0   5   23.80    5.10
   1   0  -5  595.54   20.40
   1   0  -5  559.24   19.50
   1   0  -5  583.54   20.00
   1   0  -5  552.64   21.60
   1   0  -5  550.24   20.30
  -1   0   5  587.24   19.50
  -1   0   5  549.54   19.90
  -1   0   5  542.35   19.80
  -1   0   5  570.04   19.80
  -1   0   5  581.34   21.90
   0   0  -5  902.51   30.40
   0   0  -5  919.61   32.40
   0   0  -5  920.61   30.80
   0   0  -5  934.11   30.90
   0   0  -5  893.81   30.50
   0   0   5  909.21   30.50
   0   0   5  944.21   31.20
   0   0   5  879.41   29.60
   0   0   5  892.21   29.90
   0   0   5  890.81   32.00
   0   0   5  909.81   30.00
  -1   0  -5   42.20    5.60
  -1   0  -5   32.70    4.50
  -1   0  -5   39.60    5.10
  -1   0  -5   37.70    5.00
   1   0   5   55.39    7.10
   1   0   5   36.50    4.80
   1   0   5   42.30    4.80
   1   0   5   35.80    4.80
  -2   0  -5 1275.97   42.00
  -2   0  -5 1235.48   42.60
  -2   0  -5 1248.78   42.10
  -2   0  -5 1265.77   42.50
  -2   0  -5 1248.98   40.10
   2   0   5 1289.17   42.10
   2   0   5 1271.27   42.40
   2   0   5 1286.77   42.20
  -3   0  -5  178.58   12.90
  -3   0  -5  171.08   12.70
  -3   0  -5  163.18   11.30
  -3   0  -5  183.78   12.00
   3   0   5  166.08   11.40
   3   0   5  191.28   12.60
   3   0   5  184.48   12.60
  -4   0  -5  169.28   13.70
  -4   0  -5  151.18   14.00
  -4   0  -5  140.29   13.10
  -4   0  -5  191.08   14.50
  -4   0  -5  120.59   13.50
   4   0   5  150.88   14.70
   4   0   5  137.49   14.00
   4   0   5  147.69   13.60
  -5   0  -5  859.41   35.40
  -5   0  -5  863.51   34.10
  -5   0  -5  866.91   34.60
  -5   0  -5  849.52   33.40
   5   0   5  817.42   34.80
   5   0   5  858.71   34.80
   5   0   5  859.01   34.60
  -6   0  -5   15.80   11.20
  -6   0  -5    6.60   10.90
  -6   0  -5   12.10    9.70
  -6   0  -5   10.60   11.50
   6   0   5   -0.60   11.50
   6   0   5   16.80   11.40
   6   0   5    8.20   10.40
  -7   0  -5   51.19   15.20
  -7   0  -5   39.60   13.70
  -7   0  -5   20.90   15.70
  -7   0  -5   24.10   15.00
  -7   0  -5   53.19   13.40
   7   0   5   48.90   14.10
   7   0   5   23.20   15.20
   7   0   5   31.90    8.40
   7   0   5   54.19   15.30
   8  -1  -5    7.20   13.00
   8  -1  -5   11.40   11.80
   8  -1  -5    1.10   13.20
  -8   1   5   25.50   14.50
  -8   1   5  -10.70   10.90
  -8   1   5   -2.50   12.30
  -8   1   5   -8.50   12.20
   7  -1  -5   15.50   13.30
   7  -1  -5    8.50    9.50
   7  -1  -5   -3.30    7.90
   7  -1  -5   -9.40    9.90
  -7   1   5    8.90    9.60
  -7   1   5  -13.90    9.90
  -7   1   5   19.80   11.70
  -7   1   5   -4.10    9.20
   6  -1  -5 1055.59   36.90
   6  -1  -5  942.21   35.40
   6  -1  -5  988.90   37.20
   6  -1  -5  928.91   37.50
  -6   1   5  970.20   36.70
  -6   1   5  969.60   36.70
  -6   1   5  985.90   37.80
  -6   1   5  916.91   36.40
  -6   1   5  948.01   35.60
   5  -1  -5   35.90    7.50
   5  -1  -5   35.80    8.10
   5  -1  -5   36.50    7.60
   5  -1  -5   28.00    7.70
   5  -1  -5   34.60    7.20
  -5   1   5   31.80    7.00
  -5   1   5   25.10    7.50
  -5   1   5   26.50    6.80
  -5   1   5   30.40    7.30
  -5   1   5   26.20    7.20
   4  -1  -5   32.80    7.10
   4  -1  -5   17.60    5.50
   4  -1  -5   20.60    5.70
   4  -1  -5   17.50    5.90
  -4   1   5   18.20    2.10
  -4   1   5   12.40    5.10
  -4   1   5   22.80    6.00
  -4   1   5   19.30    5.80
  -4   1   5   15.60    5.30
  -4   1   5   13.50    6.10
   3  -1  -5 2416.26   76.19
   3  -1  -5 2414.96   75.99
   3  -1  -5 2349.26   75.89
   3  -1  -5 2427.66   77.29
  -3   1   5 2394.56   74.29
  -3   1   5 2389.26   75.69
  -3   1   5 2407.46   75.89
  -3   1   5 2440.46   76.09
  -3   1   5 2443.76   75.99
  -3   1   5 2350.86   76.49
   2  -1  -5    3.30    3.00
   2  -1  -5    6.90    2.90
   2  -1  -5    4.20    3.00
   2  -1  -5    3.90    5.10
  -2   1   5    4.70    3.00
  -2   1   5    5.30    2.70
  -2   1   5    1.00    2.80
  -2   1   5    2.90    2.80
  -2   1   5   -1.70    4.10
  -2   1   5    1.60    5.10
  -2   1   5    3.50    2.70
   1  -1  -5   79.29    5.50
   1  -1  -5   79.49    9.00
   1  -1  -5   86.79    5.00
   1  -1  -5   78.89    6.70
  -1   1   5   71.59    5.30
  -1   1   5   84.69    5.50
  -1   1   5   77.19    6.20
  -1   1   5   90.19    9.50
  -1   1   5   86.59    5.00
   0  -1  -5 2361.66   73.29
   0  -1  -5 2402.16   73.39
   0  -1  -5 2250.27   74.09
   0   1   5 2423.46   73.59
   0   1   5 2314.57   74.19
   0   1   5 2265.87   72.59
   0   1   5 2354.16   75.59
   0   1   5 2312.57   72.59
   0   1   5 2368.56   73.99
  -1  -1  -5   41.60    4.80
  -1  -1  -5   37.80    5.90
  -1  -1  -5   41.20    4.40
  -1  -1  -5   49.80    4.70
  -1  -1  -5   42.60    4.60
   1   1   5   41.90    4.70
   1   1   5   38.60    5.40
   1   1   5   45.00    5.80
   1   1   5   50.69    7.00
   1   1   5   46.40    5.80
   1   1   5   32.00    5.90
  -2  -1  -5   45.10    5.40
  -2  -1  -5   46.20    4.80
  -2  -1  -5   42.60    6.90
  -2  -1  -5   39.40    5.80
  -2  -1  -5   57.59    6.40
   2   1   5   50.39    6.60
   2   1   5   34.00    5.40
   2   1   5   35.90    6.90
   2   1   5   45.90    6.10
  -3  -1  -5  793.22   27.40
  -3  -1  -5  809.32   30.30
  -3  -1  -5  789.42   29.20
  -3  -1  -5  808.82   29.20
  -3  -1  -5  733.93   28.50
  -3  -1  -5  773.22   29.50
   3   1   5  809.92   29.50
   3   1   5  778.02   28.90
   3   1   5  783.02   29.30
  -4  -1  -5   26.60    7.40
  -4  -1  -5   12.60    7.70
  -4  -1  -5   27.30    8.80
  -4  -1  -5   27.20    8.90
  -4  -1  -5   26.70    8.00
   4   1   5   14.60    6.90
   4   1   5   19.20    8.40
   4   1   5   25.20    7.90
  -5  -1  -5   10.80   10.30
  -5  -1  -5    3.10    8.30
  -5  -1  -5  -12.90    9.00
  -5  -1  -5    6.20    8.70
   5   1   5   16.60    9.20
   5   1   5   19.30    9.70
   5   1   5    3.90    9.30
  -6  -1  -5  129.99   15.10
  -6  -1  -5  149.99   14.50
  -6  -1  -5  119.79   13.80
  -6  -1  -5  130.09   15.80
   6   1   5  116.69   16.20
   6   1   5  107.39   13.70
   6   1   5  114.69   15.30
  -7  -1  -5  -12.00   11.50
  -7  -1  -5   31.10   20.40
  -7  -1  -5   63.29   14.20
  -7  -1  -5   30.70   16.10
  -7  -1  -5   49.10   14.80
   7   1   5   60.79    8.90
   7   1   5   41.30   15.30
   7   1   5   62.99   15.90
   7   1   5   22.80   14.40
   8  -2  -5  321.57   24.80
   8  -2  -5  298.67   25.90
   8  -2  -5  279.77   21.00
   8  -2  -5  299.77   22.20
  -8   2   5  269.67   21.70
  -8   2   5  290.57   26.40
  -8   2   5  294.47   23.40
  -8   2   5  312.37   23.60
   7  -2  -5  -15.50   10.80
   7  -2  -5    6.90   10.20
   7  -2  -5    0.20    8.90
   7  -2  -5    2.20    9.40
  -7   2   5    6.30    8.00
  -7   2   5    0.30    9.50
  -7   2   5    2.60    8.80
  -7   2   5  -14.20   10.20
   6  -2  -5    1.40    8.00
   6  -2  -5   -5.90    7.90
   6  -2  -5   19.90    8.80
   6  -2  -5   14.40    7.60
  -6   2   5   11.90    7.70
  -6   2   5   17.40    8.80
  -6   2   5    7.80    8.00
  -6   2   5   18.40    7.80
  -6   2   5   12.40    7.50
   5  -2  -5  357.06   17.90
   5  -2  -5  381.96   18.10
   5  -2  -5  331.87   17.80
   5  -2  -5  374.66   17.50
  -5   2   5  357.16   12.60
  -5   2   5  313.17   16.60
  -5   2   5  357.36   17.60
  -5   2   5  365.66   18.20
  -5   2   5  386.86   17.10
  -5   2   5  352.46   17.60
   4  -2  -5   42.50    6.10
   4  -2  -5   38.60    6.30
   4  -2  -5   33.50    6.50
   4  -2  -5   43.00    7.40
  -4   2   5   38.90    6.30
  -4   2   5   40.30    5.70
  -4   2   5   50.69    7.80
  -4   2   5   32.10    5.80
  -4   2   5   36.30    3.70
  -4   2   5   47.30    5.80
   3  -2  -5  125.89    7.90
   3  -2  -5  125.59    8.20
   3  -2  -5  125.89    7.90
   3  -2  -5  118.99   10.50
  -3   2   5  121.59    7.70
  -3   2   5  129.89    7.30
  -3   2   5  111.79    9.70
  -3   2   5  127.29    7.50
  -3   2   5  106.59    6.70
  -3   2   5  123.59    8.00
   2  -2  -5  481.65   16.30
   2  -2  -5  478.85   16.30
   2  -2  -5  478.35   16.10
   2  -2  -5  482.35   19.90
  -2   2   5  486.05   16.00
  -2   2   5  489.45   17.30
  -2   2   5  475.05   16.00
  -2   2   5  463.75   15.90
  -2   2   5  459.75   19.90
  -2   2   5  468.25   16.00
  -2   2   5  464.25   18.70
   1  -2  -5  736.13   23.30
   1  -2  -5  760.62   23.20
  -1   2   5  722.23   25.60
  -1   2   5  733.03   26.10
  -1   2   5  728.43   27.40
  -1   2   5  749.13   26.90
   0  -2  -5 1000.20   34.30
   0  -2  -5 1004.70   31.90
   0  -2  -5 1021.80   32.10
   0  -2  -5  988.90   31.60
   0  -2  -5 1014.70   32.20
   0   2   5  986.50   32.10
   0   2   5 1015.40   31.50
   0   2   5 1041.40   31.60
   0   2   5  998.10   34.30
   0   2   5  979.60   34.50
   0   2   5 1005.60   35.60
  -1  -2  -5   50.19    6.40
  -1  -2  -5   49.99    5.70
  -1  -2  -5   53.19    5.80
  -1  -2  -5   56.09    7.10
  -1  -2  -5   57.99    7.10
  -1  -2  -5   59.39    6.00
   1   2   5   45.90    5.70
   1   2   5   49.20    4.70
   1   2   5   54.09    7.00
   1   2   5   54.49    6.00
   1   2   5   48.20    7.20
  -2  -2  -5  390.76   18.30
  -2  -2  -5  403.46   16.20
  -2  -2  -5  382.46   16.30
  -2  -2  -5  387.66   16.70
  -2  -2  -5  384.06   16.00
  -2  -2  -5  385.36   15.90
   2   2   5  382.76   17.90
   2   2   5  404.46   16.40
   2   2   5  398.66   15.90
   2   2   5  385.26   16.10
  -3  -2  -5  248.88   14.50
  -3  -2  -5  229.88   14.40
  -3  -2  -5  246.78   15.10
  -3  -2  -5  252.77   16.10
  -3  -2  -5  252.77   13.80
  -3  -2  -5  243.58   13.40
   3   2   5  246.78   14.30
   3   2   5  235.08   16.20
   3   2   5  255.47   14.40
   3   2   5  245.08   13.40
  -4  -2  -5    4.10    7.00
  -4  -2  -5   19.30    8.10
  -4  -2  -5   10.70    8.60
  -4  -2  -5    9.80    6.60
  -4  -2  -5    8.40    7.90
  -4  -2  -5    2.00    7.60
   4   2   5   13.00    8.20
   4   2   5   10.30    7.20
   4   2   5    7.90    7.80
  -5  -2  -5  183.98   16.00
  -5  -2  -5  188.58   15.70
  -5  -2  -5  185.78   18.10
  -5  -2  -5  207.98   18.60
  -5  -2  -5  198.08   17.50
   5   2   5  163.98   17.00
   5   2   5  188.38   19.10
   5   2   5  203.58   17.90
  -6  -2  -5   61.69   14.20
  -6  -2  -5   62.49   13.40
  -6  -2  -5   49.90   11.60
  -6  -2  -5   59.79   13.00
  -6  -2  -5   62.79   11.20
   6   2   5   34.60   12.90
   6   2   5   41.20   12.70
   6   2   5   44.00    7.00
   6   2   5   57.79   14.80
   8  -3  -5  112.09   13.80
   8  -3  -5  115.79   16.20
   8  -3  -5  111.59   13.50
   8  -3  -5  103.19   15.50
  -8   3   5  129.09   17.00
  -8   3   5  161.98   18.40
  -8   3   5  119.09    7.40
  -8   3   5  162.28   17.30
  -8   3   5   89.89   12.80
   7  -3  -5   18.30   11.00
   7  -3  -5    8.80    9.40
   7  -3  -5    6.00    9.60
   7  -3  -5    6.90    9.10
  -7   3   5   -3.50    9.00
  -7   3   5  -11.50    8.40
  -7   3   5   12.20   10.10
  -7   3   5    1.10   10.20
  -7   3   5   12.20    8.30
   6  -3  -5  347.17   19.70
   6  -3  -5  401.46   20.00
   6  -3  -5  377.06   19.60
  -6   3   5  354.66   20.00
  -6   3   5  362.46   18.80
  -6   3   5  340.77   19.60
  -6   3   5  367.36   18.80
   5  -3  -5  198.28   14.10
   5  -3  -5  200.38   14.40
   5  -3  -5  182.78   13.60
  -5   3   5  190.58   13.40
  -5   3   5  176.28   12.30
  -5   3   5  191.38   13.30
  -5   3   5  186.28   12.40
  -5   3   5  198.18   14.70
   4  -3  -5   14.70    6.60
   4  -3  -5    9.90    5.10
   4  -3  -5   12.80    6.60
  -4   3   5   10.20    4.90
  -4   3   5   12.80    4.50
  -4   3   5    8.30    6.70
  -4   3   5   14.50    3.90
  -4   3   5   13.30    4.90
  -4   3   5   15.20    4.60
   3  -3  -5  638.24   25.20
   3  -3  -5  657.23   22.30
  -3   3   5  634.94   24.20
  -3   3   5  621.74   21.90
  -3   3   5  652.13   21.90
  -3   3   5  632.24   21.50
  -3   3   5  636.94   22.40
  -3   3   5  656.03   25.00
  -3   3   5  640.84   21.50
   2  -3  -5  516.85   16.50
   2  -3  -5  522.75   16.60
   2  -3  -5  494.65   21.40
  -2   3   5  511.85   21.80
  -2   3   5  497.45   18.80
  -2   3   5  519.05   21.70
  -2   3   5  496.85   19.90
  -1   3   5  150.08    9.70
  -1   3   5  174.38   12.00
  -1   3   5  167.48   10.10
  -1   3   5  151.38   11.80
   0  -3  -5  389.46   13.10
   0  -3  -5  374.26   16.50
   0  -3  -5  383.56   13.00
   0  -3  -5  386.16   12.90
   0  -3  -5  377.06   12.60
   0  -3  -5  394.26   16.50
   0   3   5  387.46   17.00
   0   3   5  384.36   18.10
   0   3   5  349.57   17.70
   0   3   5  398.46   15.80
  -1  -3  -5  173.38    8.60
  -1  -3  -5  169.68    8.20
  -1  -3  -5  134.49    8.30
  -1  -3  -5  162.68   12.50
  -1  -3  -5  156.48   11.00
  -1  -3  -5  170.18    8.10
   1   3   5  159.08   12.00
   1   3   5  143.59    8.30
   1   3   5  158.88    8.50
   1   3   5  174.88    8.70
   1   3   5  160.88   13.60
  -2  -3  -5  268.67   13.10
  -2  -3  -5  278.37   13.40
  -2  -3  -5  258.07   14.10
  -2  -3  -5  258.77   12.60
  -2  -3  -5  274.17   12.80
  -2  -3  -5  273.57   16.20
   2   3   5  252.77   12.30
   2   3   5  257.47   15.90
   2   3   5  261.37   13.00
  -3  -3  -5   83.09   10.90
  -3  -3  -5   87.19    9.00
  -3  -3  -5   77.29   10.00
  -3  -3  -5   67.19    8.40
  -3  -3  -5   80.29   10.10
   3   3   5   54.89    9.70
   3   3   5   81.49   10.10
   3   3   5   76.29    8.40
  -4  -3  -5   95.59   10.80
  -4  -3  -5   93.79   11.20
  -4  -3  -5  119.99   13.40
  -4  -3  -5   93.89   10.90
  -4  -3  -5   93.69   11.70
   4   3   5   84.49   11.90
   4   3   5   94.59   10.70
   4   3   5   80.29   10.10
  -5  -3  -5  189.08   17.80
  -5  -3  -5  159.18   18.80
  -5  -3  -5  173.18   16.40
  -5  -3  -5  214.08   19.10
  -5  -3  -5  200.98   18.00
   5   3   5  199.88   18.90
   5   3   5  180.98   17.20
  -6  -3  -5  -11.70   13.50
  -6  -3  -5   13.10   11.60
  -6  -3  -5    4.10   10.80
  -6  -3  -5   19.20   11.50
  -6  -3  -5   -4.80   11.10
  -6  -3  -5  -10.90    8.80
   6   3   5   20.50   12.70
   6   3   5    6.30   11.80
   6   3   5   12.90    5.30
   6   3   5    2.90   12.60
   7  -4  -5  218.78   19.20
   7  -4  -5  203.28   17.40
   7  -4  -5  239.88   18.80
  -7   4   5  198.98   18.80
  -7   4   5  210.78   19.30
  -7   4   5  211.18   17.40
  -7   4   5  228.68   17.40
  -7   4   5  243.78   20.60
   6  -4  -5  246.38   16.60
   6  -4  -5  248.58   17.20
  -6   4   5  208.78   16.70
  -6   4   5  232.18   15.00
  -6   4   5  223.68   15.00
  -6   4   5  223.08   16.00
   5  -4  -5  135.29   13.30
   5  -4  -5  162.08   10.80
   5  -4  -5  178.58   14.60
   5  -4  -5  164.18   13.00
  -5   4   5  157.58   11.40
  -5   4   5  185.58   12.00
  -5   4   5  168.58   12.30
  -5   4   5  150.08   12.30
   4  -4  -5  223.58   12.20
   4  -4  -5  214.98   14.60
   4  -4  -5  221.38   14.70
  -4   4   5  198.08   11.50
  -4   4   5  234.88   11.80
  -4   4   5  232.68   14.80
  -4   4   5  224.68   10.80
  -4   4   5  231.78   10.90
  -4   4   5  243.88   12.00
   3  -4  -5 1141.39   36.60
   3  -4  -5 1128.49   40.40
   3  -4  -5 1221.88   37.10
   3  -4  -5 1139.59   39.50
  -3   4   5 1096.69   36.20
  -3   4   5 1145.99   36.50
  -3   4   5 1169.98   36.20
  -3   4   5 1148.19   36.00
  -3   4   5 1154.08   41.90
  -3   4   5 1137.69   39.70
  -3   4   5 1117.79   40.50
  -3   4   5 1129.59   38.30
  -2   4   5  732.53   26.90
  -2   4   5  705.63   28.80
  -2   4   5  717.43   26.20
  -2   4   5  769.52   29.60
  -1   4   5   54.19    8.80
  -1   4   5   43.80    6.30
  -1   4   5   34.50    5.90
  -1   4   5   48.90    8.60
   0  -4  -5  368.86   17.40
   0  -4  -5  355.06   12.50
   0  -4  -5  377.16   13.00
   0  -4  -5  383.76   12.30
   0  -4  -5  382.06   12.80
   0   4   5  370.46   19.20
   0   4   5  359.56   15.40
   0   4   5  359.36   16.80
   0   4   5  366.46   17.70
  -1  -4  -5  770.82   25.30
  -1  -4  -5  747.63   25.40
  -1  -4  -5  768.02   28.90
  -1  -4  -5  741.93   28.50
  -1  -4  -5  757.72   25.70
   1   4   5  749.62   25.30
   1   4   5  743.43   28.60
   1   4   5  703.13   30.80
   1   4   5  774.42   26.30
   1   4   5  756.02   25.70
  -2  -4  -5   27.20    8.30
  -2  -4  -5   16.70    5.20
  -2  -4  -5   20.60    5.80
  -2  -4  -5   15.30    5.10
  -2  -4  -5   24.80    7.90
  -2  -4  -5   18.10    6.00
   2   4   5   16.40    6.10
   2   4   5   24.60    4.70
   2   4   5   22.00    5.30
   2   4   5   20.40    7.90
  -3  -4  -5  359.96   18.10
  -3  -4  -5  348.07   20.30
  -3  -4  -5  374.56   19.30
  -3  -4  -5  343.57   18.00
  -3  -4  -5  354.26   17.30
   3   4   5  347.17   18.10
   3   4   5  342.77   17.10
   3   4   5  351.66   20.20
  -4  -4  -5   87.69   12.10
  -4  -4  -5   87.79   11.50
  -4  -4  -5  122.39   15.90
   4   4   5   71.49   10.40
   4   4   5   94.59   11.30
  -5  -4  -5   53.99   12.60
  -5  -4  -5   96.29   13.90
  -5  -4  -5   64.89   12.40
  -5  -4  -5   80.69   11.80
  -5  -4  -5   68.59   11.40
   5   4   5   74.49   13.00
   5   4   5   55.59   11.50
   5   4   5   59.19    6.70
   7  -5  -5   11.60    9.80
   7  -5  -5   -1.80    4.90
   7  -5  -5    8.00    9.60
   7  -5  -5    4.30   10.70
  -7   5   5    3.90    8.40
  -7   5   5  -10.30    8.10
  -7   5   5   20.60   11.10
  -7   5   5    6.50    9.90
   6  -5  -5  126.29   12.80
   6  -5  -5  116.99   14.30
   6  -5  -5  110.49   13.40
  -6   5   5  127.79   13.10
  -6   5   5   94.69   11.90
  -6   5   5  102.29   12.40
  -6   5   5  125.69   11.40
   5  -5  -5  492.85   20.10
   5  -5  -5  456.45   20.90
   5  -5  -5  461.75   19.00
   5  -5  -5  486.35   22.20
   5  -5  -5  495.45   23.10
  -5   5   5  482.95   19.50
  -5   5   5  457.35   20.00
  -5   5   5  485.15   19.20
  -5   5   5  485.55   20.20
   4  -5  -5   51.09    8.50
   4  -5  -5   48.90    6.40
   4  -5  -5   47.80    4.90
   4  -5  -5   49.90    9.20
  -4   5   5   54.89    6.60
  -4   5   5   56.09    7.00
  -4   5   5   51.39    5.90
  -4   5   5   46.70    5.60
  -4   5   5   59.19    6.40
  -4   5   5   28.10    8.10
  -4   5   5   44.70   10.40
   3  -5  -5   89.39    9.00
   3  -5  -5   55.99    5.30
  -3   5   5   66.49    7.60
  -3   5   5   71.29   10.00
  -3   5   5   65.29    8.60
  -3   5   5   75.39   11.80
  -2   5   5  956.40   36.40
  -2   5   5  979.10   35.30
  -2   5   5  889.21   33.00
  -2   5   5  905.81   33.10
  -1   5   5   29.20    8.00
  -1   5   5   23.40    8.20
  -1   5   5   23.20    6.40
  -1   5   5   22.90    6.20
   0  -5  -5  278.77   10.60
   0  -5  -5  271.67   10.50
   0  -5  -5  268.27   16.60
   0  -5  -5  296.97   11.50
   0  -5  -5  288.87    9.90
   0   5   5  281.77   18.50
   0   5   5  286.87   13.50
   0   5   5  287.77   17.00
   0   5   5  283.57   16.10
  -1  -5  -5   58.09    7.50
  -1  -5  -5   58.59    6.60
  -1  -5  -5   56.49    9.80
   1   5   5   72.59    7.80
   1   5   5   68.39    9.80
   1   5   5   64.59    6.20
   1   5   5   50.59    6.50
  -2  -5  -5   30.60    6.50
  -2  -5  -5   20.70    5.50
  -2  -5  -5   29.60    9.20
  -2  -5  -5   27.70    5.90
  -2  -5  -5   25.70    6.60
   2   5   5   19.60    5.60
   2   5   5   36.50    5.00
   2   5   5   26.10    6.60
  -3  -5  -5  589.34   26.90
  -3  -5  -5  593.04   25.50
  -3  -5  -5  612.84   25.20
   3   5   5  613.24   20.60
   3   5   5  594.14   24.10
   3   5   5  588.84   25.30
  -4  -5  -5   26.10   10.50
  -4  -5  -5    1.00    9.10
  -4  -5  -5   16.10    9.80
   4   5   5   -2.80   11.70
   4   5   5   12.60    9.40
   4   5   5    2.50    8.60
   4   5   5    2.00    3.10
  -5  -5  -5   26.90   10.30
  -5  -5  -5   47.60   12.20
  -5  -5  -5   11.80   11.70
  -5  -5  -5   20.90   13.30
   5   5   5   14.40   14.30
   5   5   5   12.00   11.10
   5   5   5   22.50   12.20
   7  -6  -5   11.80   10.40
   7  -6  -5   -2.70   11.20
   7  -6  -5   12.10   10.60
   7  -6  -5   -7.10    4.80
  -7   6   5    5.50    9.50
  -7   6   5  -21.10    9.20
  -7   6   5    5.10    8.80
  -7   6   5   10.10    8.40
   6  -6  -5    7.50    8.90
   6  -6  -5   -0.60    4.20
   6  -6  -5    2.80    5.40
   6  -6  -5   -4.40    9.80
  -6   6   5   -4.80   13.80
  -6   6   5    1.60    6.80
  -6   6   5    4.40    7.30
  -6   6   5    6.00   11.40
  -6   6   5   -2.30    6.30
  -6   6   5    3.40    7.20
   5  -6  -5 1091.29   37.90
   5  -6  -5 1108.99   41.80
   5  -6  -5 1137.79   39.80
  -5   6   5 1150.88   38.80
  -5   6   5 1085.39   39.00
  -5   6   5 1162.28   42.30
  -5   6   5 1165.78   38.00
  -5   6   5 1130.79   38.00
   4  -6  -5  275.27   13.90
   4  -6  -5  282.07   17.10
   4  -6  -5  272.37   11.40
   4  -6  -5  261.27   12.00
  -4   6   5  280.27   15.10
  -4   6   5  273.87   10.60
  -4   6   5  240.08   11.10
  -4   6   5  287.97   11.30
  -4   6   5  272.27   12.20
  -4   6   5  279.27   21.80
  -4   6   5  273.67   17.60
   3  -6  -5   16.10    3.30
   3  -6  -5   23.80    7.40
  -3   6   5   19.40   10.00
  -3   6   5   26.60    9.80
  -3   6   5   22.60    7.60
  -3   6   5   21.50    7.10
  -2   6   5  706.33   29.10
  -2   6   5  811.32   31.40
  -2   6   5  779.62   28.90
  -2   6   5  797.32   32.60
  -1   6   5  205.68   18.00
  -1   6   5  209.28   12.30
  -1   6   5  189.08   15.40
  -1   6   5  188.78   13.50
   0  -6  -5   40.60    5.30
   0  -6  -5   47.00    4.40
   0  -6  -5   41.20   10.10
   0  -6  -5   49.60    4.30
   0  -6  -5   60.29    5.60
   0   6   5   40.30    9.30
   0   6   5   41.70   11.50
   0   6   5   62.99   10.30
   0   6   5   55.39    6.50
  -1  -6  -5   40.70    5.90
  -1  -6  -5   44.50    5.20
  -1  -6  -5   33.10   10.50
  -1  -6  -5   38.10    6.10
   1   6   5   44.70    5.80
   1   6   5   37.40    4.70
   1   6   5   53.59    6.60
  -2  -6  -5    8.80    7.00
  -2  -6  -5    3.10    5.80
  -2  -6  -5    4.70    5.00
  -2  -6  -5    2.80    6.30
  -2  -6  -5    6.70    9.50
   2   6   5    3.70    4.20
   2   6   5   -3.20    6.80
   2   6   5    7.40    5.30
  -3  -6  -5  229.28   19.50
  -3  -6  -5  203.58   15.30
   3   6   5  246.78   14.80
   3   6   5  218.48   21.60
   3   6   5  241.88    9.30
   3   6   5  237.98   17.20
  -4  -6  -5    0.50    7.70
  -4  -6  -5  -14.10    5.90
  -4  -6  -5   17.50   11.70
  -4  -6  -5   10.00    9.10
  -4  -6  -5    6.90   10.10
   4   6   5   20.60    9.50
   4   6   5    4.80   10.50
   4   6   5    8.60   13.80
   6  -7  -5  168.28   15.90
  -6   7   5  180.88   15.80
  -6   7   5  152.18   13.20
  -6   7   5  175.98   13.20
  -6   7   5  170.98   21.40
  -6   7   5  206.18   14.80
   5  -7  -5  121.69   12.50
   5  -7  -5  119.39   13.50
  -5   7   5  130.59    9.30
  -5   7   5  123.29   10.90
  -5   7   5  114.49   10.40
  -5   7   5  106.19   16.20
  -5   7   5  118.09    9.50
  -5   7   5  114.49   13.40
   4  -7  -5    5.80    8.30
   4  -7  -5   12.20    3.70
   4  -7  -5   10.00    6.00
  -4   7   5   13.20    3.30
  -4   7   5    7.80    8.80
  -4   7   5    3.50    8.60
  -4   7   5   16.30    8.00
  -4   7   5   25.80   11.60
  -4   7   5   10.30    3.20
  -3   7   5  977.90   39.40
  -3   7   5 1019.50   37.40
  -3   7   5 1022.00   42.20
  -3   7   5 1017.80   37.00
  -2   7   5  145.39   15.30
  -2   7   5  121.49   14.20
  -2   7   5  124.89   15.10
  -2   7   5  116.59   12.70
  -1   7   5   95.99   11.60
  -1   7   5   95.69   10.60
  -1   7   5   77.69   12.80
  -1   7   5   91.79    8.90
   0  -7  -5  989.90   31.90
   0  -7  -5  939.81   31.40
   0  -7  -5  987.50   31.00
   0  -7  -5  973.00   32.80
   0  -7  -5  975.00   39.00
   0   7   5  928.21   41.20
   0   7   5  990.10   34.00
   0   7   5  999.60   38.30
   0   7   5  990.30   37.50
  -1  -7  -5  575.44   23.30
  -1  -7  -5  629.34   24.00
  -1  -7  -5  670.13   30.30
   1   7   5  658.83   23.90
   1   7   5  666.13   23.20
   1   7   5  612.34   21.80
  -2  -7  -5   65.09    7.90
  -2  -7  -5   59.79    8.40
  -2  -7  -5   48.50   11.90
   2   7   5   60.79    5.40
   2   7   5   58.89    7.50
   2   7   5   58.99    9.40
   2   7   5   64.69   16.00
  -3  -7  -5  278.57   18.00
  -3  -7  -5  265.97   17.30
  -3  -7  -5  278.27   23.00
   3   7   5  297.57   16.30
   3   7   5  230.78   24.70
   3   7   5  254.37   19.00
   6  -8  -5    3.60    4.80
   6  -8  -5   13.40   11.70
   6  -8  -5   16.50   11.00
  -6   8   5    0.00    6.20
  -6   8   5    7.70    8.30
  -6   8   5   31.80    8.00
  -6   8   5   10.30    6.50
  -6   8   5   29.40   22.90
   5  -8  -5    0.80    3.60
   5  -8  -5   22.60    8.80
   5  -8  -5    1.40    3.80
   5  -8  -5    0.80    9.70
  -5   8   5    1.00    4.60
  -5   8   5    4.40   15.70
  -5   8   5   -2.30    3.90
  -5   8   5    5.10    5.30
  -5   8   5   12.30    9.10
  -5   8   5   -7.40    3.40
   4  -8  -5  511.05   24.80
   4  -8  -5  513.15   18.90
  -4   8   5  471.75   24.90
  -4   8   5  503.35   23.90
  -4   8   5  484.45   25.00
  -4   8   5  504.85   30.90
  -3   8   5   94.79   11.50
  -3   8   5  101.29   13.70
  -3   8   5  123.99   17.00
  -3   8   5  132.99   12.60
  -2   8   5   19.20   10.10
  -2   8   5   11.90    9.10
  -2   8   5   21.50   13.00
  -2   8   5   12.70    8.00
  -1   8   5   -3.00    6.60
  -1   8   5  -21.70   11.40
  -1   8   5   -3.70    9.40
  -1   8   5    0.20    9.50
   0  -8  -5  217.88   21.30
   0  -8  -5  175.58    9.80
   0  -8  -5  182.38    8.80
   0  -8  -5  169.98    8.10
   0   8   5  182.08   19.80
   0   8   5  188.48   12.80
   0   8   5  179.28   18.90
   0   8   5  162.98   17.30
  -1  -8  -5    5.90    5.20
  -1  -8  -5   18.00   13.10
  -1  -8  -5    8.60    5.20
  -1  -8  -5   10.30    6.30
  -1  -8  -5   15.60    8.90
   1   8   5   21.10    6.30
   1   8   5    7.90   11.00
   1   8   5    4.70    4.10
  -2  -8  -5  231.68   15.00
  -2  -8  -5  242.68   23.90
   2   8   5  251.47   15.00
   2   8   5  213.28   16.80
   2   8   5  232.78   24.20
   5  -9  -5  396.06   24.80
   5  -9  -5  410.16   19.30
  -5   9   5  364.56   23.60
   4  -9  -5  279.57   19.50
  -4   9   5  261.47   20.60
  -4   9   5  292.37   28.30
  -4   9   5  283.87   21.30
  -3   9   5   43.20   12.70
  -3   9   5   57.49   12.20
  -3   9   5   55.49   16.40
  -2   9   5 1837.92   67.79
  -2   9   5 1933.01   63.89
  -2   9   5 1672.13   62.79
  -1   9   5   -2.50   10.40
  -1   9   5   27.40   11.90
  -1   9   5  -13.60   14.60
   0  -9  -5   10.70    5.00
   0  -9  -5   10.10    3.80
   0  -9  -5    0.50   13.70
   0  -9  -5   15.40    4.40
   0   9   5    9.10   12.50
   0   9   5   -0.90   12.40
  -2  10   5   60.79   13.50
  -2  10   5   11.30   15.50
  -2  10   5   31.30   12.40
   1  12  -6   63.49   14.50
   1  12  -6   66.09   15.50
  -1 -12   6  120.49   22.60
  -1 -12   6   29.20   14.60
  -1 -12   6   55.49   16.10
   0  12  -6   78.29   15.30
   0  12  -6   90.89   21.00
   0  12  -6  101.99   16.00
   0 -12   6   65.69   16.90
   0 -12   6  108.09   10.30
   0 -12   6   91.49   19.80
   0 -12   6  100.49   17.70
  -1  12  -6   76.09   15.60
  -1  12  -6   80.09    9.20
  -1  12  -6   69.99   15.30
  -1  12  -6   97.79   19.60
   1 -12   6  114.79   22.20
   1 -12   6   65.29    9.80
   1 -12   6   80.79   18.30
   1 -12   6   91.59   18.70
   1 -12   6   33.60   13.70
  -2  12  -6   27.30   14.90
  -2  12  -6   36.10   17.90
  -2  12  -6   26.90    6.40
  -2  12  -6   29.80   13.80
   2 -12   6   13.50   17.40
   2 -12   6   24.70    9.70
   2 -12   6   22.50   17.60
   2 -12   6   22.20   13.50
   2 -12   6  108.39   23.30
  -3  12  -6   16.10   17.70
  -3  12  -6   27.40   15.70
  -3  12  -6   41.30   16.40
   3 -12   6    5.50   15.40
   3 -12   6   34.70   22.20
   3 -12   6   39.50   14.10
   3 -12   6   43.90   11.30
  -4  12  -6   84.99   19.00
   4 -12   6   93.39   14.40
   2  11  -6   19.60   13.00
   2  11  -6   40.80   16.30
   2  11  -6   32.00   12.90
  -2 -11   6   23.60   14.60
  -2 -11   6   35.00   14.60
  -2 -11   6   22.10   14.10
  -2 -11   6   21.20   14.90
   1  11  -6  116.29   21.20
   1  11  -6   94.39   14.40
   1  11  -6   75.79   14.40
  -1 -11   6  118.49   17.60
  -1 -11   6   92.89   17.50
  -1 -11   6  112.89   16.90
  -1 -11   6   84.69   17.00
   0  11  -6   -2.80   12.40
   0  11  -6   -6.90   11.00
   0  11  -6   18.70   17.00
   0 -11   6   -2.80   12.60
   0 -11   6  -15.60   15.50
   0 -11   6   -4.30   14.80
   0 -11   6   10.30   15.30
  -1  11  -6   93.09   10.80
  -1  11  -6   70.09   13.90
  -1  11  -6   69.29   14.20
  -1  11  -6   85.49   19.60
   1 -11   6  112.29   19.70
   1 -11   6   98.99   20.10
   1 -11   6   80.09   16.70
  -2  11  -6   -4.10   12.50
  -2  11  -6   -1.20   15.50
  -2  11  -6    0.90    5.50
  -2  11  -6    8.80   13.70
   2 -11   6  -32.30   14.30
   2 -11   6   -2.80   15.30
   2 -11   6    8.90   18.80
  -3  11  -6   -3.30    8.70
  -3  11  -6    7.10   13.90
  -3  11  -6   26.60   14.30
  -3  11  -6  -15.50   15.00
   3 -11   6   -4.50   17.30
   3 -11   6  -35.80   18.20
   3 -11   6   -9.90   15.80
  -4  11  -6   70.39   17.30
  -4  11  -6   91.39   18.50
  -4  11  -6  104.19   18.10
   4 -11   6   77.89   20.10
   4 -11   6   68.49   21.90
   4 -11   6  125.59   20.90
  -5  11  -6   23.80   15.50
  -5  11  -6   14.30   18.50
  -5  11  -6    7.10   16.00
   5 -11   6   20.00   12.60
   5 -11   6   15.80   14.40
   5 -11   6   18.50   20.20
   5 -11   6   11.90   19.70
   3  10  -6  215.08   22.60
   3  10  -6  209.68   24.40
   3  10  -6  260.57   29.30
   3  10  -6  159.58   18.00
  -3 -10   6  201.68   23.00
  -3 -10   6  224.58   23.80
  -3 -10   6  224.38   27.20
  -3 -10   6  287.37   27.50
   2  10  -6   -0.10   12.40
   2  10  -6    9.80   11.60
   2  10  -6    9.60   13.90
  -2 -10   6   14.50   14.10
  -2 -10   6   20.00   13.50
  -2 -10   6   -9.10   12.40
  -2 -10   6   -5.00   11.90
   1  10  -6  -10.30   14.30
   1  10  -6   -4.10    9.90
   1  10  -6    8.10   10.80
  -1 -10   6   25.90   12.80
  -1 -10   6   19.30   13.00
  -1 -10   6   -2.00   10.90
   0  10  -6  172.08   18.60
   0  10  -6  190.18   20.30
   0  10  -6  224.58   26.90
   0 -10   6  179.18   20.80
   0 -10   6  211.38   26.00
   0 -10   6  239.18   24.60
  -1  10  -6   37.80   16.60
  -1  10  -6   34.70   12.20
  -1  10  -6   22.90    6.60
  -1  10  -6   27.60   12.00
   1 -10   6   18.70   12.80
   1 -10   6   13.50   16.80
   1 -10   6   22.60   14.60
  -2  10  -6    2.00   12.00
  -2  10  -6   15.10   12.10
  -2  10  -6    5.20   15.10
  -2  10  -6    4.80    5.30
   2 -10   6   -8.50   12.90
   2 -10   6   -8.20   14.90
   2 -10   6    4.80   18.20
  -3  10  -6    5.50   13.90
  -3  10  -6   -1.70   12.60
  -3  10  -6   -4.80    8.80
  -3  10  -6    7.20   12.20
   3 -10   6   -6.50   17.40
  -4  10  -6   98.59   17.10
  -4  10  -6   92.99   11.60
  -4  10  -6   83.49   17.30
  -4  10  -6  110.79   16.80
   4 -10   6  109.79   18.10
   4 -10   6   65.29   18.00
   4 -10   6   99.29   30.70
  -5  10  -6   54.69   15.30
  -5  10  -6   40.00   16.40
  -5  10  -6   70.29   17.30
  -5  10  -6   33.70   10.60
   5 -10   6    7.50   19.10
   5 -10   6   33.00   17.60
   5 -10   6   63.39   17.70
  -6  10  -6   29.90   20.40
  -6  10  -6   42.20   18.70
   6 -10   6  -18.30   14.00
   6 -10   6   24.00   18.40
   6 -10   6   33.20   20.80
   4   9  -6   13.70   15.60
   4   9  -6    2.90   12.50
   4   9  -6   19.30   12.90
   4   9  -6    0.20   10.10
  -4  -9   6  -14.90   13.80
  -4  -9   6   11.30   14.80
  -4  -9   6  -32.50   12.90
  -4  -9   6   -4.50   13.10
   3   9  -6  545.25   24.20
   3   9  -6  501.25   27.70
   3   9  -6  512.05   32.10
   3   9  -6  461.25   27.10
  -3  -9   6  487.25   30.30
  -3  -9   6  483.35   30.40
  -3  -9   6  468.35   27.80
  -3  -9   6  504.95   29.70
   2   9  -6  398.56   28.70
   2   9  -6  408.76   24.90
   2   9  -6  382.86   25.50
  -2  -9   6  367.06   24.60
  -2  -9   6  401.06   25.20
  -2  -9   6  404.96   22.90
  -2  -9   6  421.76   26.60
   1   9  -6  365.96   23.30
   1   9  -6  329.17   27.00
   1   9  -6  343.67   23.20
  -1  -9   6  372.26   24.20
  -1  -9   6  375.96   25.40
  -1  -9   6  396.86   26.00
  -1  -9   6  352.06   21.80
   0   9  -6  344.47   23.00
   0   9  -6  312.97   22.70
   0   9  -6  345.67   25.70
   0  -9   6  290.17   21.10
   0  -9   6  297.97   22.30
   0  -9   6  376.16   26.30
   0  -9   6  325.17   25.30
  -1   9  -6  105.49   10.00
  -1   9  -6  143.09   19.60
  -1   9  -6  151.38   19.10
  -1   9  -6   99.99   13.80
   1  -9   6   73.89   13.30
   1  -9   6  129.89   18.20
   1  -9   6  127.69   16.70
   1  -9   6  114.69   14.50
  -2   9  -6  922.01   38.70
  -2   9  -6  948.31   39.30
  -2   9  -6  899.61   30.30
  -2   9  -6  724.63   40.70
   2  -9   6  742.03   37.10
   2  -9   6  917.51   42.40
   2  -9   6  991.00   43.90
  -3   9  -6   76.49   14.30
  -3   9  -6   80.89   14.20
  -3   9  -6   88.99   10.30
  -3   9  -6   76.39   17.00
   3  -9   6   70.09   18.60
   3  -9   6   99.19   17.50
  -4   9  -6   12.00   14.70
  -4   9  -6   27.30   13.50
  -4   9  -6   13.20   13.30
  -4   9  -6   28.60    8.70
   4  -9   6   38.50   14.90
   4  -9   6   39.80   14.20
   4  -9   6   34.00   13.80
  -5   9  -6  262.77   26.50
  -5   9  -6  283.87   26.90
  -5   9  -6  284.17   26.20
  -5   9  -6  263.77   18.90
   5  -9   6  290.77   27.70
   5  -9   6  303.37   26.70
   5  -9   6  283.47   29.80
  -6   9  -6    6.80   10.40
  -6   9  -6   24.30   16.50
  -6   9  -6    2.30   15.80
  -6   9  -6   18.20   18.30
   6  -9   6    5.70   16.00
   6  -9   6    2.40   14.40
   6  -9   6   30.50   16.60
   6  -9   6    8.80   12.20
   5   8  -6  150.88   20.80
   5   8  -6  123.19   18.50
   5   8  -6  118.49   16.60
  -5  -8   6  129.09   17.50
  -5  -8   6  178.08   19.70
  -5  -8   6  141.89   19.90
  -5  -8   6  130.89   19.30
   4   8  -6    5.10   11.70
   4   8  -6    0.70    8.20
   4   8  -6    5.30   11.30
   4   8  -6   15.80   13.10
  -4  -8   6    1.10    2.60
  -4  -8   6   16.40   13.00
  -4  -8   6   -7.20   11.30
  -4  -8   6   11.00   12.40
   3   8  -6  541.25   30.50
   3   8  -6  531.25   22.90
   3   8  -6  510.15   26.70
   3   8  -6  501.75   28.20
  -3  -8   6  500.65   27.20
  -3  -8   6  534.55   29.30
  -3  -8   6  515.25   29.60
  -3  -8   6  544.65   28.60
   2   8  -6  590.34   30.70
   2   8  -6  545.05   27.60
   2   8  -6  534.95   28.10
  -2  -8   6  558.44   28.50
  -2  -8   6  554.94   29.90
  -2  -8   6  546.15   26.40
  -2  -8   6  545.05   29.00
   1   8  -6   75.39   11.50
   1   8  -6   92.59   15.00
   1   8  -6  106.49   13.50
  -1  -8   6   91.99   14.50
  -1  -8   6   75.29   12.60
  -1  -8   6  101.79   14.00
  -1  -8   6  102.69   12.50
   0   8  -6   39.60    7.10
   0   8  -6   59.79   14.60
   0   8  -6   41.30   11.30
   0   8  -6   29.10    9.90
   0  -8   6   30.40   11.20
   0  -8   6   29.40   10.00
   0  -8   6   53.69   13.30
   0  -8   6   34.60   11.80
  -1   8  -6  180.58   20.90
  -1   8  -6  134.59    9.90
  -1   8  -6  141.29   15.50
  -1   8  -6  154.58   15.30
   1  -8   6  139.29   17.10
   1  -8   6  139.79   17.80
   1  -8   6  150.28   17.20
   1  -8   6  107.69   12.50
  -2   8  -6  327.97   15.10
  -2   8  -6  314.47   24.10
  -2   8  -6  372.86   23.80
  -2   8  -6  299.57   22.90
   2  -8   6  348.47   23.80
   2  -8   6  356.26   27.50
   2  -8   6  296.47   20.80
   2  -8   6  331.27   26.20
  -3   8  -6  -10.00   12.80
  -3   8  -6   -5.50   11.00
  -3   8  -6   -5.50   11.90
  -3   8  -6    2.90    6.30
   3  -8   6   -2.50   12.80
   3  -8   6  -14.10   12.30
   3  -8   6   -2.30   12.70
  -4   8  -6  152.38   17.10
  -4   8  -6  142.89   12.90
  -4   8  -6  130.19   17.30
  -4   8  -6  133.59   17.30
   4  -8   6  123.19   16.60
   4  -8   6   78.19   15.60
   4  -8   6  115.89   16.70
  -5   8  -6   58.79   14.60
  -5   8  -6   25.80    8.50
  -5   8  -6   60.09   15.80
  -5   8  -6   19.10   14.70
   5  -8   6   31.00   13.60
   5  -8   6   75.29   16.80
   5  -8   6   21.40   14.30
  -6   8  -6    1.30    9.20
  -6   8  -6  -16.60   16.60
  -6   8  -6  -26.30   15.30
  -6   8  -6    8.30   14.60
   6  -8   6   16.10   14.50
   6  -8   6   -3.50   16.30
   6  -8   6  -10.50   13.90
  -7   8  -6  120.09   13.70
  -7   8  -6  162.78   21.40
  -7   8  -6  109.79   22.80
  -7   8  -6  175.88   21.30
   7  -8   6  156.48   23.80
   7  -8   6  204.08   24.00
   7  -8   6  172.48   24.00
   5   7  -6   28.30   12.70
   5   7  -6   42.40   13.80
   5   7  -6   54.29   15.30
  -5  -7   6   45.50   14.80
  -5  -7   6   35.30   13.00
  -5  -7   6   53.49   14.90
  -5  -7   6   35.10   14.80
   4   7  -6 1176.98   45.90
   4   7  -6 1175.08   45.90
   4   7  -6 1157.08   41.10
   4   7  -6 1185.28   47.90
  -4  -7   6 1102.89   38.20
  -4  -7   6 1210.38   46.70
  -4  -7   6 1210.88   47.00
  -4  -7   6 1188.28   46.60
   3   7  -6    7.70   10.10
   3   7  -6   -4.20   10.90
   3   7  -6    3.50    8.70
  -3  -7   6    6.60   10.40
  -3  -7   6   12.10   10.40
  -3  -7   6   12.30   10.00
   2   7  -6  298.37   20.30
   2   7  -6  297.07   20.40
   2   7  -6  272.77   19.90
  -2  -7   6  265.87   20.10
  -2  -7   6  279.37   19.60
  -2  -7   6  280.87   21.60
   1   7  -6 1929.31   65.59
   1   7  -6 1886.91   67.49
   1   7  -6 1928.11   65.69
  -1  -7   6 1913.61   63.79
  -1  -7   6 1924.21   67.09
  -1  -7   6 1881.71   65.79
  -1  -7   6 1743.83   64.89
   0   7  -6  559.84   26.80
   0   7  -6  539.95   26.30
   0   7  -6  548.75   20.80
   0   7  -6  557.34   29.60
   0  -7   6  500.65   26.50
   0  -7   6  546.95   27.20
   0  -7   6  499.65   25.90
   0  -7   6  526.45   23.50
  -1   7  -6  188.58   16.60
  -1   7  -6  181.18   18.20
  -1   7  -6  189.08   10.90
  -1   7  -6  202.28   20.10
   1  -7   6  161.98   19.20
   1  -7   6  204.18   20.10
   1  -7   6  193.48   15.30
   1  -7   6  216.78   20.90
  -2   7  -6  594.84   29.50
  -2   7  -6  624.24   29.30
  -2   7  -6  605.24   23.10
  -2   7  -6  548.25   29.80
   2  -7   6  629.24   31.20
   2  -7   6  593.54   25.80
   2  -7   6  633.24   31.20
   2  -7   6  616.74   30.30
  -3   7  -6  693.93   32.30
  -3   7  -6  706.03   25.70
  -3   7  -6  716.13   32.80
  -3   7  -6  618.74   31.90
   3  -7   6  683.13   32.70
   3  -7   6  714.53   33.90
   3  -7   6  694.93   33.00
  -4   7  -6   -1.20   10.70
  -4   7  -6   -2.10    5.70
  -4   7  -6  -10.00   11.90
  -4   7  -6  -13.40   11.40
   4  -7   6   11.10   11.90
   4  -7   6    8.20   13.20
   4  -7   6  -14.30   10.50
  -5   7  -6   39.00    7.80
  -5   7  -6   59.59   15.30
  -5   7  -6   31.70   13.10
  -5   7  -6   36.00   14.10
   5  -7   6   24.40   14.70
   5  -7   6   32.60   12.80
   5  -7   6   36.80    4.80
   5  -7   6   34.70   12.90
  -6   7  -6   90.09   17.00
  -6   7  -6  124.59   17.60
  -6   7  -6   89.99   10.90
  -6   7  -6  110.09   18.10
   6  -7   6  105.79   17.40
   6  -7   6   96.69   16.60
   6  -7   6  130.99   18.80
  -7   7  -6   65.79   17.80
  -7   7  -6  114.19   21.00
  -7   7  -6   70.89   16.90
  -7   7  -6   36.40   10.20
   7  -7   6   96.69   18.60
   7  -7   6   69.29   18.20
   7  -7   6   56.09   17.90
   7  -7   6   47.80   12.80
   6   6  -6   25.40   14.70
   6   6  -6   35.70   14.00
   6   6  -6   43.50   14.80
  -6  -6   6   14.10   14.70
  -6  -6   6   16.00   13.00
  -6  -6   6   24.40   15.70
  -6  -6   6    6.50   13.20
   5   6  -6  670.23   33.10
   5   6  -6  709.93   33.80
   5   6  -6  688.83   33.90
  -5  -6   6  773.62   34.60
  -5  -6   6  742.03   34.70
  -5  -6   6  768.92   34.40
  -5  -6   6  711.03   33.90
   4   6  -6   18.30   11.00
   4   6  -6    6.10    5.60
   4   6  -6    6.80    9.40
   4   6  -6    3.10    9.50
  -4  -6   6   17.40   10.50
  -4  -6   6    8.50    4.70
  -4  -6   6   -3.10    9.60
  -4  -6   6    4.60   10.10
   3   6  -6    1.70   10.10
   3   6  -6   16.00    9.80
   3   6  -6    8.70    8.80
  -3  -6   6   20.10    9.10
  -3  -6   6   13.40    9.60
  -3  -6   6   16.30    9.80
   2   6  -6   56.19   11.00
   2   6  -6   46.70    9.50
   2   6  -6   66.19   10.80
  -2  -6   6   42.90    9.20
  -2  -6   6   51.99   10.00
  -2  -6   6   38.90   11.10
   1   6  -6  549.05   26.30
   1   6  -6  565.64   26.60
   1   6  -6  574.34   26.50
  -1  -6   6  574.14   25.10
  -1  -6   6  533.15   27.40
  -1  -6   6  601.74   23.70
  -1  -6   6  548.25   25.70
   0   6  -6   15.30    5.20
   0   6  -6    5.70    8.00
   0   6  -6   14.50    9.60
   0   6  -6   14.80    8.90
   0  -6   6    7.50    9.00
   0  -6   6   11.20    6.40
   0  -6   6   18.40    9.30
   0  -6   6   17.20    8.60
  -1   6  -6  620.44   28.70
  -1   6  -6  536.15   26.50
  -1   6  -6  587.14   27.10
  -1   6  -6  572.44   21.40
   1  -6   6  592.04   28.00
   1  -6   6  515.45   23.50
   1  -6   6  571.94   28.50
   1  -6   6  613.74   27.50
  -2   6  -6   -8.60    8.40
  -2   6  -6  -15.20   10.30
  -2   6  -6   -3.40    5.90
  -2   6  -6   -4.00    8.30
   2  -6   6    0.00    8.90
   2  -6   6    9.10    9.80
   2  -6   6    4.60    5.50
   2  -6   6   -2.80   10.00
  -3   6  -6  349.07   15.00
  -3   6  -6  370.26   22.40
  -3   6  -6  379.06   23.60
  -3   6  -6  324.97   21.20
   3  -6   6  360.86   14.20
   3  -6   6  391.66   23.20
   3  -6   6  343.67   23.00
   3  -6   6  361.46   21.90
  -4   6  -6  543.35   30.50
  -4   6  -6  689.53   31.00
  -4   6  -6  700.43   31.40
  -4   6  -6  677.83   24.20
   4  -6   6  688.83   23.60
   4  -6   6  651.13   31.40
   4  -6   6  728.83   31.70
   4  -6   6  579.94   31.70
  -5   6  -6  450.15   26.80
  -5   6  -6  401.06   25.40
  -5   6  -6  379.26   24.60
  -5   6  -6  356.46   18.00
   5  -6   6  425.46   25.90
   5  -6   6  381.56   16.90
   5  -6   6  385.66   26.70
   5  -6   6  408.36   25.90
  -6   6  -6  288.97   26.30
  -6   6  -6  275.47   25.70
  -6   6  -6  299.87   24.80
  -6   6  -6  250.37   17.00
   6  -6   6  217.98   23.60
   6  -6   6  283.37   25.60
   6  -6   6  263.07   22.90
  -7   6  -6   25.50    9.10
  -7   6  -6   -5.40   17.30
  -7   6  -6   56.69   18.40
  -7   6  -6   56.99   16.70
   7  -6   6   54.19   15.90
   7  -6   6   16.60   11.50
   7  -6   6   76.49   17.30
   7  -6   6   61.39   17.40
   6   5  -6  715.83   36.30
   6   5  -6  730.13   36.70
   6   5  -6  744.93   36.10
  -6  -5   6  739.03   35.10
  -6  -5   6  728.53   37.00
  -6  -5   6  738.53   35.20
  -6  -5   6  799.62   36.40
   5   5  -6  126.39   15.70
   5   5  -6  129.59    8.90
   5   5  -6  136.39   15.30
   5   5  -6  151.98   19.90
  -5  -5   6  127.59   10.20
  -5  -5   6  132.29   15.10
  -5  -5   6  143.69   15.30
  -5  -5   6  131.89   14.60
  -5  -5   6  135.99   17.40
   4   5  -6   19.60    4.70
   4   5  -6   24.50    9.30
   4   5  -6   17.70    9.00
   4   5  -6   19.30    9.90
  -4  -5   6   13.60    5.30
  -4  -5   6   21.20    9.90
  -4  -5   6   24.80    9.10
  -4  -5   6   13.20    8.70
   3   5  -6 4226.98  136.39
   3   5  -6 4219.08  136.79
   3   5  -6 4222.58  136.79
  -3  -5   6 4460.35  137.59
  -3  -5   6 4246.67  136.39
  -3  -5   6 4224.68  135.99
   2   5  -6  168.58   15.10
   2   5  -6  167.88   15.40
   2   5  -6  158.58   13.70
  -2  -5   6  159.28   14.80
  -2  -5   6  181.18   13.40
  -2  -5   6  183.98   14.40
   1   5  -6   84.39    8.60
   1   5  -6   74.29   11.00
   1   5  -6   71.59   10.70
   1   5  -6   85.19   11.40
  -1  -5   6   77.79   10.10
  -1  -5   6   76.79    9.80
  -1  -5   6   83.59   11.40
   0   5  -6 4405.46  139.49
   0   5  -6 4329.47  139.69
   0   5  -6 4323.97  135.99
   0   5  -6 4483.95  140.69
   0  -5   6 4336.07  139.09
   0  -5   6 4464.55  136.39
   0  -5   6 4198.48  140.09
   0  -5   6 4356.46  139.09
  -1   5  -6  359.56   20.30
  -1   5  -6  403.16   22.30
  -1   5  -6  358.26   15.60
  -1   5  -6  354.56   20.20
   1  -5   6  305.77   15.70
   1  -5   6  347.07   19.60
   1  -5   6  373.86   21.80
   1  -5   6  397.06   20.90
  -2   5  -6  721.33   30.90
  -2   5  -6  759.92   31.40
  -2   5  -6  718.03   31.10
   2  -5   6  787.72   31.00
   2  -5   6  697.03   30.90
   2  -5   6  768.52   31.10
   2  -5   6  734.73   25.90
  -3   5  -6  447.96   16.60
  -3   5  -6  476.75   24.40
  -3   5  -6  431.96   22.60
  -3   5  -6  459.75   23.30
   3  -5   6  426.96   23.30
   3  -5   6  454.05   23.00
   3  -5   6  488.25   24.20
   3  -5   6  459.05   18.10
  -4   5  -6  312.77   13.40
  -4   5  -6  305.77   20.30
  -4   5  -6  360.46   22.10
  -4   5  -6  304.27   21.20
   4  -5   6  278.87   14.50
   4  -5   6  319.77   20.60
   4  -5   6  307.27   21.10
   4  -5   6  276.67   21.60
  -5   5  -6   58.69   13.00
  -5   5  -6   75.79   13.40
  -5   5  -6   66.39    7.60
  -5   5  -6   63.59   14.00
   5  -5   6   62.09   12.60
   5  -5   6   60.19    8.40
   5  -5   6   81.29   14.60
   5  -5   6   52.09   11.60
  -6   5  -6   31.00   14.50
  -6   5  -6   32.80   13.70
  -6   5  -6   45.70   13.90
   6  -5   6   21.60   12.30
   6  -5   6   21.20   13.70
   6  -5   6   37.30    9.20
   6  -5   6   36.40   14.90
  -7   5  -6   40.90   12.40
  -7   5  -6   11.60   16.40
  -7   5  -6   23.30   14.50
  -7   5  -6   26.60   16.40
   7  -5   6   -8.50   15.20
   7  -5   6   37.80   16.00
   7  -5   6   43.30   17.70
   7   4  -6  231.38   26.30
   7   4  -6  221.98   22.30
   7   4  -6  239.88   26.20
  -7  -4   6  196.38   25.10
  -7  -4   6  231.58   24.70
  -7  -4   6  227.18   27.00
  -7  -4   6  226.68   24.90
   6   4  -6  241.18   21.90
   6   4  -6  223.58   22.60
   6   4  -6  219.58   22.60
  -6  -4   6  207.18   20.90
  -6  -4   6  225.08   21.50
  -6  -4   6  185.68   13.40
  -6  -4   6  203.18   20.60
  -6  -4   6  224.98   21.00
   5   4  -6   28.70   10.40
   5   4  -6   38.70   11.50
   5   4  -6   38.70   11.40
  -5  -4   6   25.10    6.00
  -5  -4   6   43.80   11.00
  -5  -4   6   38.50   10.90
  -5  -4   6   29.70   10.40
  -5  -4   6   21.30    9.70
   4   4  -6  102.59    6.30
   4   4  -6  124.39   14.00
   4   4  -6   94.69   11.00
   4   4  -6  101.09   13.10
  -4  -4   6  104.99   11.60
  -4  -4   6  105.49   11.70
  -4  -4   6   96.59   10.90
  -4  -4   6   85.29    9.30
   3   4  -6   43.30    8.90
   3   4  -6   38.70    8.10
   3   4  -6   39.00    8.50
  -3  -4   6   48.20    9.60
  -3  -4   6   42.10    7.80
  -3  -4   6   38.30    7.70
   2   4  -6 1149.08   42.20
   2   4  -6 1210.18   42.80
   2   4  -6 1193.28   43.10
  -2  -4   6 1186.88   42.00
  -2  -4   6 1237.78   43.90
  -2  -4   6 1193.78   41.90
   1   4  -6 1641.84   54.79
   1   4  -6 1643.64   54.99
   1   4  -6 1590.24   54.29
   1   4  -6 1610.04   51.89
  -1  -4   6 1564.54   53.39
  -1  -4   6 1546.55   53.49
  -1  -4   6 1449.06   54.69
   0   4  -6   98.79   11.60
   0   4  -6  103.69   11.80
   0   4  -6   98.19   10.60
   0   4  -6  111.89    8.70
   0  -4   6   94.29   10.80
   0  -4   6  104.89   11.80
   0  -4   6   92.39    9.80
  -1   4  -6  566.84   21.60
  -1   4  -6  565.34   24.70
  -1   4  -6  585.54   25.50
  -1   4  -6  546.35   24.40
   1  -4   6  565.94   24.80
   1  -4   6  481.45   19.80
   1  -4   6  586.14   24.80
   1  -4   6  569.34   24.00
   1  -4   6  563.64   20.90
  -2   4  -6 9267.77  285.67
  -2   4  -6 9366.86  286.07
  -2   4  -6 9309.87  286.17
   2  -4   6 9258.77  285.47
   2  -4   6 8913.91  285.57
   2  -4   6 9214.08  283.07
   2  -4   6 9084.59  286.17
  -3   4  -6   36.00    3.70
  -3   4  -6   34.60    9.50
  -3   4  -6   34.80    9.20
  -3   4  -6   35.00    8.60
   3  -4   6   38.90    9.30
   3  -4   6   41.50    6.70
   3  -4   6   40.60    9.10
   3  -4   6   40.50    9.10
  -4   4  -6  143.79   15.40
  -4   4  -6  144.79    8.60
  -4   4  -6  137.69   14.60
  -4   4  -6  156.78   17.60
   4  -4   6  156.38   14.30
   4  -4   6  137.19   16.50
   4  -4   6  127.49   15.20
   4  -4   6  121.29   11.40
  -5   4  -6 2127.59   72.39
  -5   4  -6 1991.30   71.09
  -5   4  -6 2074.19   71.79
   5  -4   6 2027.20   71.29
   5  -4   6 2036.60   72.19
   5  -4   6 2195.58   72.39
  -6   4  -6  288.67   24.80
  -6   4  -6  290.67   20.80
  -6   4  -6  299.67   23.50
  -6   4  -6  325.57   24.20
   6  -4   6  334.77   25.00
   6  -4   6  317.77   23.80
   6  -4   6  312.07   25.50
  -7   4  -6  289.17   27.10
  -7   4  -6  308.27   23.80
  -7   4  -6  277.47   28.30
  -7   4  -6  291.07   28.40
  -7   4  -6  312.57   28.00
   7  -4   6  275.97   25.90
   7  -4   6  254.27   24.00
   7  -4   6  244.88   26.90
   7   3  -6  214.28   24.60
   7   3  -6  188.38   24.80
   7   3  -6  216.18   24.60
  -7  -3   6  219.58   25.60
  -7  -3   6  238.28   23.50
  -7  -3   6  238.28   16.00
  -7  -3   6  234.68   23.50
  -7  -3   6  221.48   24.10
   6   3  -6 1591.24   57.69
   6   3  -6 1564.24   58.29
   6   3  -6 1562.64   57.99
  -6  -3   6 1633.24   58.89
  -6  -3   6 1597.34   57.09
  -6  -3   6 1539.45   52.59
  -6  -3   6 1566.74   57.19
  -6  -3   6 1567.04   57.49
   5   3  -6  483.45   24.20
   5   3  -6  471.05   23.80
   5   3  -6  435.26   22.90
  -5  -3   6  477.65   23.40
  -5  -3   6  432.66   22.10
  -5  -3   6  441.36   23.30
  -5  -3   6  432.76   19.10
   4   3  -6 1380.26   49.00
   4   3  -6 1384.96   49.10
   4   3  -6 1366.76   49.40
  -4  -3   6 1266.07   48.30
  -4  -3   6 1389.56   49.20
  -4  -3   6 1479.45   49.00
  -4  -3   6 1480.15   50.19
  -4  -3   6 1424.96   46.30
   3   3  -6 1183.18   40.90
   3   3  -6 1124.29   40.70
   3   3  -6 1104.39   40.80
  -3  -3   6 1162.88   39.00
  -3  -3   6 1160.78   40.50
  -3  -3   6 1165.18   40.70
  -3  -3   6 1147.39   41.50
   2   3  -6 3698.43  112.69
   2   3  -6 3588.44  112.79
   2   3  -6 3338.77  111.09
   2   3  -6 3513.45  112.29
  -2  -3   6 3363.46  111.79
  -2  -3   6 3524.95  111.69
  -2  -3   6 3694.63  113.19
   1   3  -6  953.80   31.30
   1   3  -6  919.91   32.90
   1   3  -6  883.91   33.50
   1   3  -6  877.41   33.20
  -1  -3   6  846.12   33.70
  -1  -3   6  856.31   32.00
  -1  -3   6  904.31   32.30
   0   3  -6   66.99    8.60
   0   3  -6   75.69    8.30
   0   3  -6   49.90    8.10
   0   3  -6   69.59    8.70
   0  -3   6   86.79    8.30
   0  -3   6   72.19    8.10
   0  -3   6   87.19    9.00
   0  -3   6   66.09    8.80
  -1   3  -6 3017.90   96.99
  -1   3  -6 3058.49   95.79
  -1   3  -6 3132.09   97.29
  -1   3  -6 2922.11   96.59
   1  -3   6 3148.98   96.59
   1  -3   6 3011.90   97.29
   1  -3   6 2954.30   96.49
   1  -3   6 2780.12   92.29
   1  -3   6 3040.70   95.19
  -2   3  -6  299.77   16.10
  -2   3  -6  319.67   16.60
  -2   3  -6  301.87   16.90
   2  -3   6  306.57   14.90
   2  -3   6  316.37   17.30
   2  -3   6  326.47   16.90
   2  -3   6  313.67   17.00
  -3   3  -6  340.07   12.00
  -3   3  -6  333.57   18.20
  -3   3  -6  367.16   18.80
  -3   3  -6  335.57   17.80
   3  -3   6  339.07   16.30
   3  -3   6  358.56   18.70
   3  -3   6  388.96   19.60
   3  -3   6  374.76   19.20
  -4   3  -6   13.40    9.00
  -4   3  -6   14.90    8.20
  -4   3  -6   17.40    8.10
   4  -3   6   17.70    9.70
   4  -3   6   17.10    8.80
   4  -3   6   31.60    9.80
  -5   3  -6  129.49   14.40
  -5   3  -6  110.39   11.80
  -5   3  -6   88.49   14.50
  -5   3  -6  141.69   17.00
   5  -3   6  104.49   13.30
   5  -3   6   98.69   12.40
   5  -3   6  131.69   14.30
  -6   3  -6   85.09   14.90
  -6   3  -6   81.19   13.60
  -6   3  -6   78.49   14.30
  -6   3  -6   89.89   12.40
  -6   3  -6   84.69   15.10
   6  -3   6   65.09   14.10
   6  -3   6   75.29   14.00
   6  -3   6   89.79   15.10
  -7   3  -6  176.38   19.70
  -7   3  -6  205.38   23.40
  -7   3  -6  168.48   20.10
  -7   3  -6  207.88   22.30
  -7   3  -6  231.48   25.00
   7  -3   6  156.28   19.50
   7  -3   6  232.28   24.00
   7  -3   6  200.28   22.30
   7   2  -6    4.30   12.10
   7   2  -6   -2.30   13.10
   7   2  -6   25.90   13.60
  -7  -2   6   17.60   11.90
  -7  -2   6   17.50   12.20
  -7  -2   6   16.80   13.40
  -7  -2   6   21.40   11.80
  -7  -2   6    7.90    8.60
   6   2  -6   27.60   11.20
   6   2  -6    9.40   10.70
  -6  -2   6   36.30    7.80
  -6  -2   6   25.90   11.40
  -6  -2   6   29.80   10.60
  -6  -2   6   36.20   10.50
  -6  -2   6   40.40   10.10
   5   2  -6   52.99    9.60
   5   2  -6   54.19   10.00
   5   2  -6   40.80   10.40
  -5  -2   6   58.69    9.50
  -5  -2   6   57.29    9.30
  -5  -2   6   58.09   11.10
  -5  -2   6   54.09    7.60
  -5  -2   6   61.89    9.80
   4   2  -6  915.11   34.10
   4   2  -6  908.61   33.90
   4   2  -6  903.91   33.70
  -4  -2   6  914.41   33.60
  -4  -2   6  877.81   33.60
  -4  -2   6  931.41   33.50
  -4  -2   6  882.71   31.80
  -4  -2   6  881.71   33.80
   3   2  -6   19.60    6.20
   3   2  -6   25.00    6.50
   3   2  -6   26.30    7.00
   3   2  -6   21.10    6.20
  -3  -2   6   16.00    5.90
  -3  -2   6   29.60    6.80
  -3  -2   6   19.80    5.60
  -3  -2   6   29.50    6.20
   2   2  -6  225.08   12.80
   2   2  -6  205.08   12.20
   2   2  -6  218.78    8.40
   2   2  -6  198.78   12.20
   2   2  -6  219.08   12.30
  -2  -2   6  209.48   11.90
  -2  -2   6  214.18   11.80
  -2  -2   6  208.28   11.30
   1   2  -6 3301.07  106.29
   1   2  -6 3244.28  105.89
   1   2  -6 3516.85  105.59
   1   2  -6 3202.38  106.39
  -1  -2   6 3332.27  105.49
  -1  -2   6 3215.28  106.39
  -1  -2   6 3377.36  105.39
  -1  -2   6 3506.45  105.59
   0   2  -6 1544.75   52.29
   0   2  -6 1508.55   51.49
   0   2  -6 1541.15   52.59
   0   2  -6 1587.44   52.59
   0  -2   6 1635.54   53.19
   0  -2   6 1564.74   51.59
   0  -2   6 1552.44   51.79
   0  -2   6 1522.75   51.69
  -1   2  -6 1444.96   49.10
  -1   2  -6 1469.95   49.00
  -1   2  -6 1425.86   48.80
   1  -2   6 1458.35   48.60
   1  -2   6 1441.16   49.30
   1  -2   6 1398.16   48.20
   1  -2   6 1487.45   48.50
  -2   2  -6  395.96   18.80
  -2   2  -6  406.86   17.90
  -2   2  -6  399.26   18.10
   2  -2   6  420.66   18.00
   2  -2   6  406.16   18.20
   2  -2   6  398.56   18.20
   2  -2   6  375.16   17.50
  -3   2  -6 2877.91   91.19
  -3   2  -6 2831.12   91.99
  -3   2  -6 2714.03   91.09
  -3   2  -6 2936.21   91.89
   3  -2   6 2872.91   91.69
   3  -2   6 2832.62   91.99
   3  -2   6 2709.93   91.19
   3  -2   6 2908.01   90.89
  -4   2  -6  420.16   21.00
  -4   2  -6  469.35   22.80
  -4   2  -6  348.87   20.40
  -4   2  -6  408.36   20.20
   4  -2   6  432.26   22.00
   4  -2   6  400.66   20.90
   4  -2   6  398.56   20.80
  -5   2  -6  161.18   16.60
  -5   2  -6  171.08   16.50
  -5   2  -6  182.78   19.40
  -5   2  -6  156.28   17.10
   5  -2   6  176.88   18.30
   5  -2   6  168.68   18.50
   5  -2   6  171.18   15.60
  -6   2  -6  873.91   36.50
  -6   2  -6  843.92   37.60
  -6   2  -6  896.91   38.20
  -6   2  -6  847.32   37.30
  -6   2  -6  955.00   38.70
   6  -2   6  876.41   38.20
   6  -2   6  881.41   39.00
   6  -2   6  862.61   39.00
  -7   2  -6   44.20   15.70
  -7   2  -6   22.50   13.60
  -7   2  -6   24.00   13.10
  -7   2  -6   -2.10   13.70
  -7   2  -6   14.30   14.40
   7  -2   6   27.90   15.80
   7  -2   6   29.60   16.00
   7  -2   6    8.60   14.30
   7   1  -6  111.19   15.60
   7   1  -6   73.89   14.90
   7   1  -6   99.49   14.40
  -7  -1   6  112.89   11.70
  -7  -1   6   80.89   15.00
  -7  -1   6   74.99   13.70
  -7  -1   6   88.29   14.00
  -7  -1   6   78.09   13.30
   6   1  -6  203.18   18.80
   6   1  -6  218.78   18.60
  -6  -1   6  201.48   17.10
  -6  -1   6  200.38   17.30
  -6  -1   6  205.48   15.00
  -6  -1   6  193.18   17.50
  -6  -1   6  200.18   17.20
   5   1  -6 1462.85   50.69
   5   1  -6 1463.25   51.19
   5   1  -6 1527.25   51.49
   5   1  -6 1449.65   50.79
  -5  -1   6 1413.86   50.39
  -5  -1   6 1496.75   51.89
  -5  -1   6 1427.26   49.30
  -5  -1   6 1441.46   50.89
  -5  -1   6 1460.85   50.89
   4   1  -6   70.59    8.90
   4   1  -6   59.19    8.10
   4   1  -6   74.29    9.20
   4   1  -6   65.99    8.30
  -4  -1   6   57.39    7.60
  -4  -1   6   55.39    8.40
  -4  -1   6   58.09    7.50
  -4  -1   6   51.49    7.00
  -4  -1   6   64.79    8.20
   3   1  -6 1314.17   44.20
   3   1  -6 1288.47   43.90
   3   1  -6 1332.07   44.40
   3   1  -6 1316.07   44.40
  -3  -1   6 1306.67   43.80
  -3  -1   6 1272.07   43.50
  -3  -1   6 1289.57   43.90
  -3  -1   6 1293.47   43.70
   2   1  -6  472.85   16.60
   2   1  -6  487.25   19.10
   2   1  -6  474.05   19.90
   2   1  -6  506.65   19.30
   2   1  -6  504.95   19.60
  -2  -1   6  487.85   19.20
  -2  -1   6  486.65   18.70
  -2  -1   6  482.85   19.00
   1   1  -6  490.05   19.70
   1   1  -6  469.05   19.80
   1   1  -6  502.75   20.10
   1   1  -6  500.25   17.60
   1   1  -6  491.15   20.20
  -1  -1   6  489.75   19.00
  -1  -1   6  489.95   19.10
  -1  -1   6  512.25   19.90
  -1  -1   6  477.05   19.40
   0   1  -6 1276.87   42.90
   0   1  -6 1312.37   43.30
   0   1  -6 1279.17   43.70
   0   1  -6 1321.67   43.40
   0   1  -6 1247.68   41.80
   0  -1   6 1282.07   42.40
   0  -1   6 1287.07   43.70
   0  -1   6 1224.18   42.20
   0  -1   6 1246.68   43.50
  -1   1  -6  669.43   25.10
  -1   1  -6  682.73   25.10
  -1   1  -6  660.93   25.00
  -1   1  -6  653.23   24.50
   1  -1   6  687.53   24.70
   1  -1   6  683.13   24.70
   1  -1   6  678.53   25.40
   1  -1   6  702.53   25.60
  -2   1  -6   64.79    7.80
  -2   1  -6   80.09    8.40
  -2   1  -6   79.19    9.40
  -2   1  -6   84.99    9.60
   2  -1   6   72.89    7.50
   2  -1   6   77.69    9.40
   2  -1   6   73.89    9.00
   2  -1   6   89.69    9.40
  -3   1  -6  102.49   12.20
  -3   1  -6   84.99    9.40
  -3   1  -6   89.69   11.00
  -3   1  -6   88.89   11.00
  -3   1  -6   95.79    6.00
   3  -1   6   97.39   11.40
   3  -1   6   84.49   10.70
   3  -1   6   78.59    8.90
  -4   1  -6 1013.70   35.80
  -4   1  -6  929.61   35.40
  -4   1  -6  959.20   35.40
  -4   1  -6  810.22   34.30
   4  -1   6  828.52   35.00
   4  -1   6  968.20   35.30
   4  -1   6  927.31   35.80
  -5   1  -6  180.78   17.10
  -5   1  -6  174.48   16.60
  -5   1  -6  170.98   17.70
  -5   1  -6  163.88   16.80
   5  -1   6  140.29   16.70
   5  -1   6  178.78   18.00
   5  -1   6  172.08   18.10
  -6   1  -6    1.80   12.00
  -6   1  -6   14.90   10.50
  -6   1  -6    2.30   13.10
  -6   1  -6    8.50   11.50
  -6   1  -6    7.30   11.10
   6  -1   6   -7.40   11.10
   6  -1   6   -4.60   10.60
   6  -1   6   -7.00   12.50
  -7   1  -6   75.99   16.30
  -7   1  -6   54.89   16.40
  -7   1  -6   70.59   14.70
  -7   1  -6   56.39   14.20
  -7   1  -6   62.39   18.30
   7  -1   6   51.99   15.10
   7  -1   6   72.09   15.00
   7  -1   6   56.29   16.10
   7   0  -6  485.85   26.80
   7   0  -6  476.55   25.80
   7   0  -6  495.85   28.20
  -7   0   6  506.05   26.10
  -7   0   6  520.05   26.90
  -7   0   6  469.25   27.90
  -7   0   6  456.75   26.20
   6   0  -6  268.27   19.50
   6   0  -6  301.67   18.70
   6   0  -6  245.18   18.40
  -6   0   6  247.28   17.40
  -6   0   6  293.27   18.80
  -6   0   6  260.77   16.80
  -6   0   6  276.87   19.50
  -6   0   6  270.17   18.10
   5   0  -6  177.88   14.50
   5   0  -6  165.38   14.30
   5   0  -6  149.79   13.40
   5   0  -6  170.38   14.60
  -5   0   6  160.88   13.10
  -5   0   6  131.69   12.70
  -5   0   6  171.18   13.50
  -5   0   6  171.48   14.90
  -5   0   6  165.18   13.60
   4   0  -6  577.04   22.60
   4   0  -6  548.25   22.80
   4   0  -6  551.64   23.20
   4   0  -6  545.65   22.60
  -4   0   6  560.04   22.40
  -4   0   6  570.74   22.10
  -4   0   6  567.44   22.10
  -4   0   6  534.55   22.20
  -4   0   6  552.74   22.90
   3   0  -6 2292.27   72.79
   3   0  -6 2260.27   72.59
   3   0  -6 2233.98   72.89
   3   0  -6 2381.96   73.99
  -3   0   6 2239.28   72.29
  -3   0   6 2209.28   72.99
  -3   0   6 2364.56   72.79
  -3   0   6 2185.88   72.69
  -3   0   6 2279.07   72.49
   2   0  -6  293.27   13.00
   2   0  -6  310.37   12.90
   2   0  -6  289.57   11.50
   2   0  -6  293.67   13.00
   2   0  -6  294.67   14.50
  -2   0   6  295.17   14.50
  -2   0   6  317.37   15.40
  -2   0   6  297.67   12.80
  -2   0   6  300.17   12.60
  -2   0   6  292.47   12.70
   1   0  -6   73.39    7.50
   1   0  -6   71.59    7.70
   1   0  -6   66.89    6.90
   1   0  -6   63.89    6.50
   1   0  -6   73.39    8.20
  -1   0   6   76.79    8.60
  -1   0   6   68.59    6.90
  -1   0   6   57.49    6.90
  -1   0   6   67.19    7.00
   0   0  -6 2188.48   68.99
   0   0  -6 2113.79   68.69
   0   0  -6 2157.08   68.99
   0   0  -6 2126.59   68.49
   0   0   6 2155.88   70.39
   0   0   6 2226.18   69.39
   0   0   6 2161.28   68.09
   0   0   6 2128.49   68.09
   0   0   6 2149.28   67.79
  -1   0  -6  897.31   30.00
  -1   0  -6  873.71   30.10
  -1   0  -6  833.62   29.70
  -1   0  -6  830.32   30.30
   1   0   6  865.61   29.50
   1   0   6  867.71   30.10
   1   0   6  850.81   31.40
   1   0   6  871.01   29.70
  -2   0  -6 1857.31   60.09
  -2   0  -6 1853.01   60.99
  -2   0  -6 1845.32   57.89
  -2   0  -6 1858.01   60.39
  -2   0  -6 1856.91   60.69
   2   0   6 1850.11   60.29
   2   0   6 1860.81   60.49
   2   0   6 1840.72   60.19
  -3   0  -6   59.39    7.50
  -3   0  -6   73.49    6.80
  -3   0  -6   61.69    8.50
  -3   0  -6   85.39    9.50
  -3   0  -6   74.09    9.40
   3   0   6   73.79    8.80
   3   0   6   67.79    8.70
   3   0   6   62.79    7.80
  -4   0  -6 1169.08   42.10
  -4   0  -6 1134.29   41.90
  -4   0  -6 1133.59   42.00
  -4   0  -6 1188.08   42.80
  -4   0  -6 1164.08   41.70
  -4   0  -6 1199.18   38.60
   4   0   6 1153.48   42.20
   4   0   6 1142.69   42.40
   4   0   6 1109.79   41.50
  -5   0  -6  657.63   30.40
  -5   0  -6  642.34   28.60
  -5   0  -6  614.14   28.60
  -5   0  -6  614.04   28.90
   5   0   6  616.84   29.10
   5   0   6  635.64   29.40
   5   0   6  627.14   27.60
  -6   0  -6  258.57   21.80
  -6   0  -6  282.07   23.20
  -6   0  -6  293.47   22.30
  -6   0  -6  227.48   21.10
   6   0   6  268.97   22.20
   6   0   6  260.07   23.00
   6   0   6  217.28   22.80
  -7   0  -6  200.38   24.40
  -7   0  -6  210.68   19.20
  -7   0  -6  181.68   21.40
   7   0   6  243.38   27.50
   7   0   6  202.18   16.70
   7   0   6  233.38   24.60
   8  -1  -6   24.10   14.90
   8  -1  -6   32.00   13.40
  -8   1   6   18.60   16.50
  -8   1   6   43.30   15.60
  -8   1   6   25.30   11.80
  -8   1   6   35.10   11.80
   7  -1  -6  604.84   30.70
   7  -1  -6  597.44   28.20
   7  -1  -6  598.34   29.50
  -7   1   6  603.74   28.90
  -7   1   6  627.44   29.00
  -7   1   6  615.74   30.40
  -7   1   6  623.34   28.50
   6  -1  -6  581.74   26.00
   6  -1  -6  573.94   25.90
  -6   1   6  577.04   25.40
  -6   1   6  569.54   26.40
  -6   1   6  561.54   25.20
  -6   1   6  600.94   25.70
  -6   1   6  537.95   25.20
   5  -1  -6  393.06   19.20
   5  -1  -6  349.96   18.10
   5  -1  -6  343.17   18.80
   5  -1  -6  367.66   17.90
  -5   1   6  356.46   17.50
  -5   1   6  356.96   17.70
  -5   1   6  335.47   17.80
  -5   1   6  357.46   18.70
  -5   1   6  351.86   17.80
   4  -1  -6  715.53   26.60
   4  -1  -6  700.53   27.70
   4  -1  -6  721.33   26.50
   4  -1  -6  687.53   26.70
  -4   1   6  689.43   26.70
  -4   1   6  729.03   27.30
  -4   1   6  727.43   26.00
  -4   1   6  701.53   26.20
  -4   1   6  729.23   26.80
  -4   1   6  751.72   22.80
   3  -1  -6  216.78   11.40
   3  -1  -6  220.78   11.00
   3  -1  -6  201.68   13.60
   3  -1  -6  213.18   10.90
  -3   1   6  205.48   10.30
  -3   1   6  216.78    8.90
  -3   1   6  204.08   12.70
  -3   1   6  222.48   10.50
  -3   1   6  212.88   10.70
  -3   1   6  204.28   10.80
   2  -1  -6 2048.59   66.49
   2  -1  -6 2152.58   66.49
   2  -1  -6 2126.39   66.19
   2  -1  -6 2117.69   69.09
  -2   1   6 2073.09   66.19
  -2   1   6 2153.08   69.19
  -2   1   6 2183.28   68.29
  -2   1   6 2089.39   66.29
  -2   1   6 2102.29   66.09
  -2   1   6 2089.49   66.29
  -2   1   6 2056.19   66.09
   1  -1  -6   34.40    4.30
   1  -1  -6   27.10    5.10
   1  -1  -6   35.20    3.90
   1  -1  -6   30.90    7.50
  -1   1   6   27.10    4.80
  -1   1   6   26.10    3.60
  -1   1   6   38.20    4.80
  -1   1   6   34.00    7.50
  -1   1   6   29.90    3.50
   0  -1  -6   56.29    6.90
   0  -1  -6   56.89    7.00
   0  -1  -6   74.19    7.20
   0   1   6   66.19    7.50
   0   1   6   90.79    9.60
   0   1   6   72.59    7.80
   0   1   6   68.99    5.60
   0   1   6   61.09    5.50
   0   1   6   69.39    8.10
  -1  -1  -6 1551.94   49.10
  -1  -1  -6 1547.55   49.30
  -1  -1  -6 1534.05   50.59
  -1  -1  -6 1529.25   49.20
   1   1   6 1500.25   49.10
   1   1   6 1550.54   50.69
   1   1   6 1549.74   48.80
   1   1   6 1534.95   49.00
   1   1   6 1326.27   49.40
   1   1   6 1565.34   51.89
  -2  -1  -6 1138.49   37.90
  -2  -1  -6 1160.28   39.30
  -2  -1  -6 1181.38   39.80
  -2  -1  -6 1126.09   40.50
  -2  -1  -6 1163.88   39.10
   2   1   6 1192.08   39.30
   2   1   6 1173.38   39.60
   2   1   6 1130.69   39.10
   2   1   6 1194.58   41.10
  -3  -1  -6    5.40    6.60
  -3  -1  -6    0.00    4.60
  -3  -1  -6    5.80    5.90
  -3  -1  -6    4.20    6.30
  -3  -1  -6   -1.00    7.50
  -3  -1  -6    0.90    6.60
   3   1   6   -0.10    6.50
   3   1   6    4.10    6.60
   3   1   6    7.10    5.90
  -4  -1  -6   10.70    8.10
  -4  -1  -6   11.10    8.80
  -4  -1  -6   11.70    5.80
  -4  -1  -6   12.40    7.60
  -4  -1  -6    6.40    8.30
  -4  -1  -6   10.20    8.60
   4   1   6   13.60    7.20
   4   1   6   -2.80    7.70
   4   1   6    5.00    7.70
  -5  -1  -6  798.32   34.10
  -5  -1  -6  784.22   30.30
  -5  -1  -6  817.02   33.40
  -5  -1  -6  864.31   35.30
  -5  -1  -6  805.32   33.70
   5   1   6  813.92   33.80
   5   1   6  794.62   34.10
   5   1   6  807.82   34.20
  -6  -1  -6  171.88   16.80
  -6  -1  -6  161.48   18.20
  -6  -1  -6  168.18   15.90
  -6  -1  -6  163.98   20.50
  -6  -1  -6  124.39   16.30
   6   1   6  179.18   20.90
   6   1   6  189.38   21.60
   6   1   6  154.58   17.50
   7  -2  -6   22.30   10.40
   7  -2  -6   10.90   11.30
   7  -2  -6   20.10   10.60
  -7   2   6   26.90    9.30
  -7   2   6   18.30    9.70
  -7   2   6   19.50   11.40
  -7   2   6   15.20   10.20
  -7   2   6   24.80   10.30
   6  -2  -6  198.38   16.20
   6  -2  -6  206.98   15.20
  -6   2   6  191.68   15.60
  -6   2   6  181.08   14.90
  -6   2   6  197.18   15.30
  -6   2   6  195.38   16.00
   5  -2  -6  464.05   20.50
   5  -2  -6  476.05   21.90
   5  -2  -6  483.65   21.10
  -5   2   6  439.96   15.70
  -5   2   6  449.06   20.60
  -5   2   6  482.75   20.20
  -5   2   6  455.85   20.80
  -5   2   6  486.35   20.10
  -5   2   6  474.25   21.50
   4  -2  -6  449.06   18.90
   4  -2  -6  446.06   20.90
   4  -2  -6  461.55   18.40
  -4   2   6  472.45   18.10
  -4   2   6  473.05   18.50
  -4   2   6  390.06   19.50
  -4   2   6  449.86   18.50
  -4   2   6  461.35   16.10
  -4   2   6  488.65   18.10
   3  -2  -6    0.70    3.60
   3  -2  -6    8.70    4.10
   3  -2  -6   -1.60    6.70
   3  -2  -6    4.90    4.10
  -3   2   6    4.60    3.50
  -3   2   6    1.60    4.20
  -3   2   6    3.90    6.10
  -3   2   6   11.10    7.00
  -3   2   6   -0.20    3.60
  -3   2   6    6.90    3.50
  -3   2   6    7.20    3.40
   2  -2  -6 1838.32   61.49
   2  -2  -6 1893.81   57.59
   2  -2  -6 1832.82   57.69
   2  -2  -6 1870.31   57.39
  -2   2   6 1835.52   57.09
  -2   2   6 1840.32   57.29
  -2   2   6 1804.32   56.99
  -2   2   6 1803.72   59.99
  -2   2   6 1836.12   57.49
  -2   2   6 1855.81   61.79
  -2   2   6 1824.52   58.69
   1  -2  -6  612.64   18.80
   1  -2  -6  584.74   19.20
   1  -2  -6  605.64   19.30
   1  -2  -6  601.24   22.20
  -1   2   6  585.54   22.60
  -1   2   6  577.84   23.10
  -1   2   6  565.14   21.70
  -1   2   6  589.34   24.60
   0  -2  -6 1044.10   32.90
   0  -2  -6  986.30   32.40
   0  -2  -6 1030.70   33.00
   0  -2  -6  984.30   35.30
   0   2   6 1005.50   35.20
   0   2   6  961.70   36.60
   0   2   6 1011.10   31.90
   0   2   6 1030.30   32.50
   0   2   6 1008.80   35.30
   0   2   6 1044.30   32.10
  -1  -2  -6 3214.28  101.39
  -1  -2  -6 3152.08   99.69
  -1  -2  -6 3124.59   99.19
  -1  -2  -6 3143.69   98.89
  -1  -2  -6 3213.48   99.29
  -1  -2  -6 3191.68   98.99
   1   2   6 3196.08   98.89
   1   2   6 3142.89  101.29
   1   2   6 3128.49   99.09
   1   2   6 3217.68   99.09
   1   2   6 3249.87  102.39
  -2  -2  -6    0.40    4.60
  -2  -2  -6    9.00    4.80
  -2  -2  -6   -2.90    6.70
  -2  -2  -6   -0.20    5.00
  -2  -2  -6    5.40    5.50
  -2  -2  -6    3.30    4.80
   2   2   6   -0.30    4.50
   2   2   6    1.50    5.20
   2   2   6    1.50    6.50
   2   2   6    2.40    4.80
  -3  -2  -6 1543.45   53.89
  -3  -2  -6 1585.34   53.49
  -3  -2  -6 1635.44   52.89
  -3  -2  -6 1657.83   54.49
  -3  -2  -6 1632.14   55.39
   3   2   6 1601.14   53.89
   3   2   6 1645.64   55.99
   3   2   6 1585.44   53.59
   3   2   6 1577.04   54.09
  -4  -2  -6  125.39   15.00
  -4  -2  -6  110.09   12.60
  -4  -2  -6  124.49   12.00
  -4  -2  -6  116.49   14.00
  -4  -2  -6  134.29   14.10
   4   2   6  122.79   15.10
   4   2   6  127.79   13.50
   4   2   6  108.39   13.80
  -5  -2  -6  239.78   19.50
  -5  -2  -6  178.48   15.30
  -5  -2  -6  191.58   18.00
  -5  -2  -6  206.98   19.50
  -5  -2  -6  204.38   18.60
   5   2   6  210.78   18.20
   5   2   6  229.98   18.60
   5   2   6  196.68   19.90
  -6  -2  -6  702.43   29.70
  -6  -2  -6  660.73   34.20
  -6  -2  -6  680.63   32.80
  -6  -2  -6  661.53   32.80
  -6  -2  -6  667.83   33.20
   6   2   6  689.13   34.00
   6   2   6  670.83   34.10
   6   2   6  660.13   32.90
   7  -3  -6   77.89   13.40
   7  -3  -6   96.19   12.40
   7  -3  -6  116.79   13.00
  -7   3   6   86.59    5.10
  -7   3   6   96.49   11.70
  -7   3   6   77.69   11.60
  -7   3   6   93.09   13.00
  -7   3   6   86.49   13.10
  -7   3   6   88.29   11.50
   6  -3  -6   10.00    7.80
   6  -3  -6   10.50    9.00
   6  -3  -6   33.00    9.00
  -6   3   6   15.70    7.50
  -6   3   6   33.50    8.90
  -6   3   6   23.60    3.80
  -6   3   6   25.20    7.80
  -6   3   6   29.80    8.50
   5  -3  -6 1051.19   37.10
   5  -3  -6 1022.90   36.20
   5  -3  -6 1026.70   38.10
  -5   3   6  934.41   35.60
  -5   3   6 1062.79   38.30
  -5   3   6 1063.09   35.80
  -5   3   6 1055.89   36.60
  -5   3   6 1003.40   36.30
  -5   3   6 1040.00   33.70
   4  -3  -6  541.05   21.00
   4  -3  -6  540.65   20.20
   4  -3  -6  535.75   23.40
  -4   3   6  541.15   20.30
  -4   3   6  494.35   19.60
  -4   3   6  538.35   19.40
  -4   3   6  557.44   19.90
  -4   3   6  538.75   20.40
  -4   3   6  550.24   23.00
   3  -3  -6   14.40    8.10
   3  -3  -6   24.10    3.80
   3  -3  -6   23.90    4.20
  -3   3   6   31.20    3.60
  -3   3   6   22.80    7.00
  -3   3   6   26.10    3.50
  -3   3   6   17.80    4.60
  -3   3   6   20.50    3.70
  -3   3   6   19.40    3.50
  -3   3   6   31.60    8.10
  -2   3   6  288.97   14.70
  -2   3   6  275.07   13.10
  -2   3   6  281.47   16.10
  -2   3   6  263.17   16.70
  -1   3   6  953.10   35.10
  -1   3   6  934.71   33.00
  -1   3   6  920.81   34.30
  -1   3   6  948.81   33.00
   0  -3  -6  307.87   11.60
   0  -3  -6  324.07   11.40
   0  -3  -6  338.47   16.50
   0  -3  -6  300.37   11.10
   0  -3  -6  309.17   10.60
   0   3   6  327.17   17.00
   0   3   6  316.47   17.40
   0   3   6  299.37   14.70
   0   3   6  328.47   15.90
  -1  -3  -6    8.90    3.90
  -1  -3  -6   10.60    4.30
  -1  -3  -6   11.60    5.90
  -1  -3  -6    9.20    3.50
  -1  -3  -6   12.60    6.80
   1   3   6   14.50    6.90
   1   3   6   -4.50    7.50
   1   3   6    7.20    3.80
   1   3   6   12.50    4.20
  -2  -3  -6  159.18   11.50
  -2  -3  -6  163.28   11.20
  -2  -3  -6  158.88   13.80
  -2  -3  -6  144.19   10.30
  -2  -3  -6  146.99   10.30
  -2  -3  -6  173.58   12.30
   2   3   6  166.78   14.60
   2   3   6  150.58   10.80
   2   3   6  148.99   10.00
  -3  -3  -6 1085.59   40.40
  -3  -3  -6 1123.99   39.80
  -3  -3  -6 1198.18   41.30
  -3  -3  -6 1131.79   40.30
  -3  -3  -6 1126.29   39.80
  -3  -3  -6 1164.58   42.00
   3   3   6 1161.28   43.20
   3   3   6 1144.79   40.10
   3   3   6 1093.19   39.50
  -4  -3  -6   44.50    9.90
  -4  -3  -6   12.30    7.40
  -4  -3  -6   46.00    8.80
  -4  -3  -6   31.40   10.80
   4   3   6   43.50    9.40
   4   3   6   29.10    9.00
  -5  -3  -6   51.49   12.00
  -5  -3  -6   70.29   10.70
  -5  -3  -6   74.79   12.90
  -5  -3  -6   60.29   11.80
  -5  -3  -6   68.19   13.70
   5   3   6   63.39   11.50
   5   3   6   72.99   12.70
   7  -4  -6   24.70   11.40
   7  -4  -6   43.80   11.30
   7  -4  -6   18.40    9.90
  -7   4   6   47.00   13.70
  -7   4   6   38.10    5.20
  -7   4   6   41.40    9.80
  -7   4   6    8.10   10.80
  -7   4   6   43.40    9.50
  -7   4   6   29.90   10.70
   6  -4  -6  290.07   17.00
   6  -4  -6  306.57   18.80
   6  -4  -6  319.97   19.40
  -6   4   6  296.57   16.50
  -6   4   6  277.97   17.20
  -6   4   6  271.87   13.00
  -6   4   6  297.87   16.40
  -6   4   6  291.97   19.60
  -6   4   6  292.87   17.70
   5  -4  -6  345.27   19.60
   5  -4  -6  365.26   16.50
   5  -4  -6  367.06   17.70
   5  -4  -6  344.67   18.90
  -5   4   6  365.56   16.80
  -5   4   6  316.27   15.70
  -5   4   6  342.67   15.60
  -5   4   6  353.56   15.00
  -5   4   6  339.27   16.40
   4  -4  -6    3.80    4.90
   4  -4  -6    0.80    8.10
  -4   4   6    6.10    4.50
  -4   4   6    3.00    4.50
  -4   4   6    6.00    3.70
  -4   4   6    5.40    3.80
  -4   4   6    0.30    4.80
  -4   4   6    1.60    7.60
   3  -4  -6 1470.45   50.89
   3  -4  -6 1509.55   46.10
   3  -4  -6 1471.05   45.80
  -3   4   6 1467.55   51.49
  -3   4   6 1459.95   51.39
  -3   4   6 1434.56   48.10
  -3   4   6 1408.66   49.60
  -2   4   6    9.40    5.30
  -2   4   6    3.90    6.30
  -2   4   6    4.90    7.30
  -2   4   6    4.00    7.80
  -1   4   6  424.16   19.10
  -1   4   6  463.85   21.60
  -1   4   6  414.86   18.70
  -1   4   6  458.85   21.40
   0  -4  -6 1427.96   46.60
   0  -4  -6 1541.85   46.70
   0   4   6 1555.74   51.19
   0   4   6 1513.15   49.60
   0   4   6 1483.05   52.19
   0   4   6 1469.65   52.39
  -1  -4  -6  340.07   13.80
  -1  -4  -6  360.06   13.90
  -1  -4  -6  353.26   14.50
  -1  -4  -6  359.46   19.70
  -1  -4  -6  362.16   18.30
   1   4   6  360.66   14.20
   1   4   6  353.16   13.70
   1   4   6  364.96   18.40
   1   4   6  363.66   16.10
  -2  -4  -6  194.48   12.20
  -2  -4  -6  201.78   12.70
  -2  -4  -6  210.38   14.60
  -2  -4  -6  186.38   11.40
  -2  -4  -6  181.58   11.30
  -2  -4  -6  178.08   16.70
   2   4   6  194.98   11.50
   2   4   6  204.48   12.60
   2   4   6  182.78   10.80
  -3  -4  -6  512.35   22.40
  -3  -4  -6  457.55   21.60
  -3  -4  -6  456.95   20.90
  -3  -4  -6  452.35   23.70
  -3  -4  -6  503.05   22.90
   3   4   6  489.75   20.80
   3   4   6  502.85   21.90
  -4  -4  -6  780.82   35.70
  -4  -4  -6  852.01   35.70
  -4  -4  -6  834.52   34.30
  -4  -4  -6  848.02   33.10
   4   4   6  808.92   36.20
   4   4   6  828.52   33.60
   4   4   6  807.52   32.40
  -5  -4  -6   13.70   12.40
  -5  -4  -6    3.20   11.50
  -5  -4  -6   -4.20    7.90
  -5  -4  -6   18.80   12.60
  -5  -4  -6    2.70    9.70
  -5  -4  -6    8.70   10.10
   5   4   6   -5.30   11.10
   5   4   6   -2.30   10.70
   7  -5  -6  465.25   25.70
   7  -5  -6  475.55   25.20
   7  -5  -6  459.05   25.80
  -7   5   6  471.35   23.10
  -7   5   6  445.26   26.90
  -7   5   6  434.96   18.80
  -7   5   6  459.25   23.20
  -7   5   6  471.95   24.50
  -7   5   6  456.55   22.60
   6  -5  -6   12.60    9.40
   6  -5  -6   30.90   10.20
   6  -5  -6   20.80   10.80
  -6   5   6   22.10    6.00
  -6   5   6   28.70   18.50
  -6   5   6   25.10    7.10
  -6   5   6   17.20    7.90
  -6   5   6   23.80    7.40
  -6   5   6   30.10    7.60
   5  -5  -6  172.28   12.80
   5  -5  -6  183.58   16.50
   5  -5  -6  181.78   16.20
  -5   5   6  167.48   12.10
  -5   5   6  189.48   12.00
  -5   5   6  174.48   12.60
  -5   5   6  163.48   10.90
  -5   5   6  189.88   10.90
   4  -5  -6  294.57   13.60
   4  -5  -6  297.27   12.30
  -4   5   6  293.37   17.80
  -4   5   6  283.87   12.10
  -4   5   6  297.67   11.60
  -4   5   6  283.57   11.40
  -4   5   6  308.87   22.00
  -4   5   6  294.27   10.90
  -4   5   6  310.67   15.10
  -3   5   6   -1.60    8.80
  -3   5   6   -5.60    8.70
  -3   5   6    3.80    7.50
  -3   5   6   -3.90    5.60
  -2   5   6  240.38   17.00
  -2   5   6  194.18   17.40
  -2   5   6  223.98   14.60
  -2   5   6  222.58   13.50
  -1   5   6   -1.40    7.10
  -1   5   6    4.10    8.00
  -1   5   6    5.50    8.80
  -1   5   6    1.30    6.30
   0   5   6   10.00    8.40
   0   5   6   16.10    9.00
   0   5   6   12.40    6.00
   0   5   6   14.70    8.20
  -1  -5  -6  251.37   11.50
  -1  -5  -6  239.28   12.10
  -1  -5  -6  251.07   11.90
  -1  -5  -6  266.57   17.30
  -1  -5  -6  258.57   11.10
   1   5   6  240.38   13.30
   1   5   6  241.08   17.70
   1   5   6  271.77   11.70
   1   5   6  235.98   10.60
  -2  -5  -6   23.60    9.20
  -2  -5  -6   22.60    6.60
  -2  -5  -6   28.90    6.80
  -2  -5  -6   26.70    6.00
  -2  -5  -6   21.50    5.80
   2   5   6   31.10    5.80
   2   5   6   25.70    5.50
   2   5   6   24.80    6.80
  -3  -5  -6   55.99   10.50
  -3  -5  -6   45.40    9.00
  -3  -5  -6   37.80    8.10
   3   5   6   22.00   13.00
   3   5   6   43.70    7.40
   3   5   6   52.09    5.90
   3   5   6   58.29    9.30
  -4  -5  -6   99.09   11.80
  -4  -5  -6   92.39   12.30
  -4  -5  -6  106.49   13.30
   4   5   6  112.89   14.70
   4   5   6  125.59    8.10
   4   5   6   99.19   16.60
   4   5   6  110.69   13.00
   6  -6  -6   -6.30    5.10
   6  -6  -6   -7.40   10.70
   6  -6  -6    3.60   11.10
  -6   6   6    0.80    7.10
  -6   6   6    0.50    6.70
  -6   6   6   -4.10    6.50
  -6   6   6   -9.60   12.90
  -6   6   6   -3.50    6.30
  -6   6   6  -12.00   12.00
  -6   6   6   -9.90    8.20
   5  -6  -6  374.96   17.70
   5  -6  -6  381.66   21.80
  -5   6   6  365.36   15.00
  -5   6   6  369.66   18.10
  -5   6   6  361.26   26.70
  -5   6   6  364.56   15.60
  -5   6   6  382.76   22.60
  -5   6   6  370.46   14.60
  -5   6   6  361.16   15.90
   4  -6  -6  143.89   10.10
  -4   6   6  161.18   16.90
  -4   6   6  165.68   16.60
  -4   6   6  135.99   13.30
  -4   6   6  154.48   16.90
  -3   6   6   14.20    7.70
  -3   6   6   26.60    7.40
  -3   6   6   20.00   10.80
  -3   6   6   15.90   10.80
  -2   6   6  798.02   32.60
  -2   6   6  739.03   29.70
  -2   6   6  799.32   30.00
  -2   6   6  801.22   34.00
  -1   6   6   84.79   11.70
  -1   6   6   82.69   13.10
  -1   6   6   87.69   10.70
  -1   6   6   90.59    9.20
   0  -6  -6    0.30    9.30
   0   6   6   -0.70    9.70
   0   6   6   -7.40    6.20
   0   6   6   -7.70    8.00
   0   6   6    4.40    9.90
  -1  -6  -6  647.14   23.40
  -1  -6  -6  675.83   29.70
  -1  -6  -6  641.84   22.50
  -1  -6  -6  656.03   23.40
   1   6   6  628.94   21.70
   1   6   6  663.13   22.70
   1   6   6  654.53   24.30
  -2  -6  -6  109.79   11.60
  -2  -6  -6  114.09   13.50
   2   6   6  122.99    9.90
   2   6   6  127.59   10.80
   2   6   6  101.99   12.30
  -3  -6  -6  -13.60    5.50
  -3  -6  -6   -5.10    6.40
  -3  -6  -6   13.40   10.80
  -3  -6  -6    5.00    7.50
   3   6   6   -1.80    4.40
   3   6   6    3.20    8.90
   3   6   6   20.00   13.60
   3   6   6   -3.80    6.20
  -4  -6  -6  273.47   22.80
  -4  -6  -6  261.87   20.90
  -4  -6  -6  233.28   27.00
   4   6   6  248.28   21.00
   4   6   6  238.68   16.90
   4   6   6  272.77   25.60
   6  -7  -6   -3.80    6.50
   6  -7  -6    4.20   11.10
  -6   7   6    4.00    7.00
  -6   7   6    0.80    5.70
  -6   7   6    6.70    6.80
  -6   7   6  -14.20    8.00
  -6   7   6   26.10   16.50
  -6   7   6    2.90   11.60
  -6   7   6   -4.40    5.90
   5  -7  -6   38.50   10.50
   5  -7  -6   36.70    8.00
  -5   7   6   44.10    9.20
  -5   7   6   36.40    4.70
  -5   7   6   28.90    5.10
  -5   7   6   44.60   15.40
  -5   7   6   30.90   12.60
  -4   7   6  290.97   25.10
  -4   7   6  285.77   21.20
  -4   7   6  277.47   19.80
  -4   7   6  302.57   18.40
  -3   7   6   66.79   14.30
  -3   7   6   41.50    9.80
  -3   7   6   40.10   12.00
  -3   7   6   44.90    9.20
  -2   7   6   42.40   12.70
  -2   7   6   55.99   11.30
  -2   7   6   35.90    8.30
  -2   7   6   41.60    9.40
  -1   7   6  272.77   22.90
  -1   7   6  241.28   15.60
  -1   7   6  259.67   18.00
  -1   7   6  296.07   19.90
   0  -7  -6  328.77   22.10
   0   7   6  282.17   21.20
   0   7   6  320.97   15.90
   0   7   6  315.37   22.00
   0   7   6  260.37   24.50
  -1  -7  -6    4.90    5.30
  -1  -7  -6    4.30    5.40
  -1  -7  -6    0.40   10.40
  -1  -7  -6  -11.50    4.30
   1   7   6   16.80   10.80
   1   7   6   11.10    6.00
  -2  -7  -6   42.70    7.20
  -2  -7  -6   53.49   13.50
   2   7   6   37.30   13.30
   2   7   6   44.30    6.20
   2   7   6   42.80    6.70
   2   7   6   46.90    8.60
  -3  -7  -6  298.17   18.00
  -3  -7  -6  319.07   19.90
  -3  -7  -6  302.57   25.50
   3   7   6  292.77   27.30
   3   7   6  292.77   19.60
   3   7   6  304.07   17.80
  -5   8   6  277.37   27.70
  -5   8   6  293.67   23.30
  -5   8   6  315.57   19.90
  -4   8   6  277.27   27.00
  -4   8   6  242.88   20.60
  -4   8   6  237.18   21.90
  -4   8   6  294.07   19.70
  -3   8   6   -6.40    8.70
  -3   8   6   -1.80    9.60
  -3   8   6    2.30   11.50
  -3   8   6   12.30   13.80
  -2   8   6  220.38   24.60
  -2   8   6  296.97   21.10
  -2   8   6  260.67   17.90
  -2   8   6  274.37   18.70
  -1   8   6  363.96   23.60
  -1   8   6  328.27   18.30
  -1   8   6  335.57   26.60
  -1   8   6  311.17   20.90
   0   8   6   13.00   11.70
   0   8   6   -1.40    6.80
   0   8   6    3.00   11.90
   0   8   6   -4.20   15.20
  -1  -8  -6  202.38   12.30
  -1  -8  -6  248.68   22.90
  -1  -8  -6  202.78   10.40
   1   8   6  188.58   13.00
   1   8   6  196.28   21.10
  -4   9   6    2.60   22.60
  -4   9   6   37.10   12.50
  -4   9   6    8.90   13.30
  -4   9   6   18.90   12.10
  -3   9   6   13.30   10.90
  -3   9   6   31.50   15.60
  -3   9   6   22.80   13.60
  -3   9   6   19.20   11.60
  -2   9   6  291.17   22.40
  -2   9   6  244.38   28.00
  -2   9   6  213.98   22.00
  -2   9   6  253.17   19.20
  -1   9   6    9.20   15.00
  -1   9   6   48.90   14.10
  -1   9   6   13.40    8.90
  -1   9   6   27.00   13.20
   0   9   6   35.40   22.50
   0   9   6   20.20   14.10
   0  12  -7  291.37   26.80
   0  12  -7  333.37   19.50
   0  12  -7  402.66   32.80
   0  12  -7  286.17   25.50
   0 -12   7  262.07   27.90
   0 -12   7  400.66   32.40
   0 -12   7  251.97   28.00
  -1  12  -7   22.30    7.90
  -1  12  -7    8.10   18.90
  -1  12  -7   12.20   15.80
  -1  12  -7   -8.60   14.30
   1 -12   7   -1.10   15.60
   1 -12   7    8.20   15.10
   1 -12   7   41.60   20.20
   1 -12   7    3.60   15.50
  -2  12  -7  262.47   27.50
  -2  12  -7  233.78   27.60
  -2  12  -7  220.98   13.50
  -2  12  -7  259.77   31.70
   2 -12   7  244.48   28.10
   2 -12   7  183.78   23.40
   2 -12   7  232.98   29.90
  -3  12  -7   -0.80   17.40
  -3  12  -7   -4.40   17.00
  -3  12  -7    3.60   17.80
   3 -12   7   20.60   16.30
   3 -12   7   29.20   23.60
   3 -12   7   -0.50   20.70
   2  11  -7  122.59   17.80
   2  11  -7  114.29   16.70
   2  11  -7  105.59   20.50
  -2 -11   7  133.59   17.70
  -2 -11   7  123.39   21.40
  -2 -11   7   82.89   16.30
  -2 -11   7  149.29   21.30
   1  11  -7    2.20   14.00
   1  11  -7   24.60   18.40
   1  11  -7   35.90   13.40
  -1 -11   7   10.10   14.10
  -1 -11   7   54.29   17.70
  -1 -11   7   39.80   17.10
  -1 -11   7   27.40   14.20
   0  11  -7   -7.00   14.20
   0  11  -7   -7.10    8.00
   0  11  -7   -5.70   13.30
   0  11  -7   18.60   17.10
   0 -11   7   66.19   17.20
   0 -11   7    1.90   14.60
   0 -11   7   13.10   12.70
   0 -11   7  -28.70   16.30
  -1  11  -7  149.09   17.80
  -1  11  -7  115.39   19.80
  -1  11  -7  125.09   18.00
  -1  11  -7  101.29   11.90
   1 -11   7  141.69   20.70
   1 -11   7  101.89   19.40
   1 -11   7  142.29   19.50
   1 -11   7   95.69   15.90
  -2  11  -7  261.77   14.60
  -2  11  -7  274.87   27.20
  -2  11  -7  285.77   26.60
  -2  11  -7  266.17   31.30
   2 -11   7  250.27   26.80
   2 -11   7  279.27   30.80
   2 -11   7  340.57   33.90
   2 -11   7  363.46   32.70
  -3  11  -7  -12.00   14.60
  -3  11  -7    6.00   18.40
  -3  11  -7   23.20   14.90
   3 -11   7  -16.80   17.30
   3 -11   7    0.50   17.70
   3 -11   7    9.10   20.70
  -4  11  -7    7.40   10.80
  -4  11  -7  -29.10   16.90
  -4  11  -7  -20.10   16.90
  -4  11  -7   -3.00   16.70
   4 -11   7  -16.40   18.20
   4 -11   7   36.20   18.90
   4 -11   7  -19.30   18.50
   3  10  -7    8.80   10.50
   3  10  -7   -1.40   14.50
   3  10  -7    2.50   12.60
   3  10  -7   -0.10   17.00
  -3 -10   7   -4.00   15.40
  -3 -10   7  -12.50   14.80
  -3 -10   7   -9.80   15.20
  -3 -10   7   -0.80   12.10
   2  10  -7  139.29   17.90
   2  10  -7  133.99   21.20
   2  10  -7  162.38   18.10
  -2 -10   7  152.78   18.30
  -2 -10   7  118.99   17.50
  -2 -10   7  141.99   19.10
  -2 -10   7  175.68   21.60
   1  10  -7  919.31   42.90
   1  10  -7  813.92   38.20
   1  10  -7  850.01   39.00
  -1 -10   7  964.10   42.10
  -1 -10   7  868.51   38.20
  -1 -10   7  845.52   41.70
  -1 -10   7  890.01   41.90
   0  10  -7  145.49   13.60
   0  10  -7  208.38   23.30
   0  10  -7  178.38   18.30
   0  10  -7  178.98   22.10
   0 -10   7  197.08   21.00
   0 -10   7  170.08   22.40
   0 -10   7  203.18   24.00
   0 -10   7  156.68   19.00
  -1  10  -7  106.69   18.20
  -1  10  -7  126.99   17.10
  -1  10  -7  105.69   16.00
  -1  10  -7  102.39   11.40
   1 -10   7   87.99   14.00
   1 -10   7   99.19   17.80
   1 -10   7   64.49   15.60
   1 -10   7  141.99   20.40
  -2  10  -7  313.27   30.20
  -2  10  -7  326.67   15.70
  -2  10  -7  322.67   24.40
  -2  10  -7  300.07   26.10
   2 -10   7  233.38   25.30
   2 -10   7  339.77   29.50
   2 -10   7  329.07   31.40
   2 -10   7  320.37   29.70
  -3  10  -7  539.65   32.60
  -3  10  -7  542.75   32.60
  -3  10  -7  439.96   35.10
   3 -10   7  464.35   35.20
   3 -10   7  524.05   33.10
   3 -10   7  539.65   34.90
  -4  10  -7    2.10    9.20
  -4  10  -7   18.30   18.00
  -4  10  -7   14.60   14.70
  -4  10  -7    7.10   14.80
   4 -10   7  -11.30   17.40
   4 -10   7  -10.00   16.30
   4 -10   7  -26.00   16.00
  -5  10  -7   18.20    9.90
  -5  10  -7   26.10   17.60
  -5  10  -7   26.80   17.90
  -5  10  -7    7.80   18.20
   5 -10   7   -9.30   19.30
   5 -10   7   -1.00   17.20
   5 -10   7   -1.80   17.50
   4   9  -7  -16.40   12.00
   4   9  -7   13.80   15.60
   4   9  -7  -15.60   15.00
   4   9  -7   -3.90    9.90
  -4  -9   7  -25.90   12.60
  -4  -9   7  -14.60   14.50
  -4  -9   7    7.40   14.90
  -4  -9   7    0.10    3.50
  -4  -9   7   -7.50   15.40
  -4  -9   7   23.90   14.80
   3   9  -7   -2.80   15.30
   3   9  -7   -1.80   12.00
   3   9  -7  -11.70   12.60
  -3  -9   7    4.60   13.70
  -3  -9   7   -4.00   13.80
  -3  -9   7    7.50   11.40
  -3  -9   7   -6.00   13.10
   2   9  -7   33.00   13.90
   2   9  -7   21.60   12.60
   2   9  -7   25.80   13.90
  -2  -9   7   23.40   15.00
  -2  -9   7    8.70   12.80
  -2  -9   7   19.70   12.70
  -2  -9   7   19.80   11.00
   1   9  -7   34.70   11.90
   1   9  -7   36.20   12.70
   1   9  -7   50.69   14.70
  -1  -9   7   49.10   13.50
  -1  -9   7   25.60   14.90
  -1  -9   7   37.50   11.40
  -1  -9   7   38.10   12.50
   0   9  -7   20.50    7.30
   0   9  -7    5.00   10.90
   0   9  -7   20.70   11.80
   0   9  -7   13.50   13.30
   0  -9   7    9.90   12.70
   0  -9   7   29.00   10.60
   0  -9   7   65.19   13.30
   0  -9   7   28.20   13.10
  -1   9  -7   66.99   13.20
  -1   9  -7   72.49    8.40
  -1   9  -7   95.39   17.70
  -1   9  -7   81.19   14.90
   1  -9   7   90.29   16.70
   1  -9   7   54.59   12.20
   1  -9   7   81.29   15.20
   1  -9   7   99.69   16.90
  -2   9  -7  -14.90   13.70
  -2   9  -7   -9.50    6.20
  -2   9  -7  -22.40   12.50
  -2   9  -7   -4.20   11.70
   2  -9   7    0.50   14.00
   2  -9   7  -11.80   13.80
   2  -9   7   -6.30   10.50
   2  -9   7   13.30   16.00
  -3   9  -7  121.59   16.00
  -3   9  -7  107.09   16.70
  -3   9  -7   56.19   17.60
   3  -9   7  105.49   18.30
   3  -9   7   86.19   18.00
   3  -9   7  122.09   19.30
  -4   9  -7  114.09   17.50
  -4   9  -7  108.89   19.50
  -4   9  -7  133.99   13.90
  -4   9  -7  142.39   18.10
   4  -9   7  126.69   19.10
   4  -9   7   89.59   17.40
   4  -9   7   95.19   18.00
  -5   9  -7  103.99   18.80
  -5   9  -7   88.89   16.80
  -5   9  -7   81.39   19.80
  -5   9  -7   98.89   11.00
   5  -9   7   80.09   20.10
   5  -9   7   93.59   20.20
   5  -9   7  103.49   21.10
  -6   9  -7   18.70   19.80
  -6   9  -7   51.09   17.90
  -6   9  -7   11.80    8.40
  -6   9  -7   42.30   18.10
   6  -9   7   11.50   18.20
   6  -9   7   26.20   20.80
   6  -9   7   51.89   19.20
   5   8  -7   27.00   14.90
   5   8  -7   28.70   17.80
   5   8  -7   51.39   15.60
  -5  -8   7   49.90   16.50
  -5  -8   7   43.10   16.60
  -5  -8   7   29.60   15.80
  -5  -8   7   44.90   16.70
   4   8  -7  153.58   18.50
   4   8  -7  143.39   16.80
   4   8  -7  168.48   19.20
   4   8  -7  181.78   16.00
  -4  -8   7  177.08   20.30
  -4  -8   7  170.48   17.70
  -4  -8   7  182.58   21.80
  -4  -8   7  161.18   18.30
   3   8  -7  609.04   31.80
   3   8  -7  617.14   32.30
   3   8  -7  598.54   33.50
  -3  -8   7  661.73   32.80
  -3  -8   7  594.54   31.70
  -3  -8   7  594.04   32.50
   2   8  -7   33.60   12.80
   2   8  -7   39.10   11.90
   2   8  -7   43.40   13.80
  -2  -8   7   27.70   12.90
  -2  -8   7   46.50   12.80
  -2  -8   7   34.40   13.10
  -2  -8   7   44.90   11.10
   1   8  -7   39.20   11.30
   1   8  -7   60.19    8.90
   1   8  -7   40.20   12.70
   1   8  -7   28.40   13.10
  -1  -8   7   27.40   11.30
  -1  -8   7   42.90    9.90
  -1  -8   7   45.30   12.30
  -1  -8   7   31.70   12.20
   0   8  -7 1174.78   46.80
   0   8  -7 1340.57   48.00
   0   8  -7 1163.18   41.10
   0   8  -7 1221.98   49.00
   0  -8   7 1055.39   47.40
   0  -8   7 1196.78   47.50
   0  -8   7 1199.78   44.20
   0  -8   7 1201.58   47.60
  -1   8  -7   -4.90   12.20
  -1   8  -7    3.50    5.80
  -1   8  -7   -3.30   11.10
  -1   8  -7   -5.90   11.40
   1  -8   7    3.30   11.50
   1  -8   7    3.60   11.20
   1  -8   7   -2.90    8.70
   1  -8   7   -0.20   13.50
  -2   8  -7   -6.50   11.20
  -2   8  -7   16.30   11.10
  -2   8  -7    3.40   13.90
  -2   8  -7   -5.40    6.50
   2  -8   7   -8.10    8.40
   2  -8   7    7.30   14.90
   2  -8   7   -5.10   12.10
   2  -8   7   14.00   14.20
  -3   8  -7  262.47   26.70
  -3   8  -7  369.46   25.90
  -3   8  -7  347.07   24.00
  -3   8  -7  341.87   16.70
   3  -8   7  321.67   26.80
   3  -8   7  289.57   27.00
   3  -8   7  364.16   28.40
  -4   8  -7   31.80   13.20
  -4   8  -7   20.90    6.90
  -4   8  -7    2.80   13.40
  -4   8  -7    8.30   13.90
   4  -8   7   13.60   13.80
   4  -8   7   22.30   15.30
   4  -8   7    4.90   14.20
  -5   8  -7   22.30   14.70
  -5   8  -7    7.60    7.50
  -5   8  -7    9.00   15.60
  -5   8  -7   33.70   15.10
   5  -8   7    5.70   13.90
   5  -8   7   45.10   15.80
   5  -8   7  -15.50   14.50
  -6   8  -7   56.29   18.70
  -6   8  -7   86.39   18.60
  -6   8  -7   11.00   18.00
   6  -8   7   63.89   19.00
   6  -8   7   65.59   19.10
   6  -8   7   66.79   18.90
   5   7  -7  164.58   18.80
   5   7  -7  180.48   20.80
   5   7  -7  197.58   19.70
  -5  -7   7  178.38   19.10
  -5  -7   7  187.98   21.50
  -5  -7   7  175.28   19.70
  -5  -7   7  183.38   18.70
   4   7  -7   -1.20   12.40
   4   7  -7   -7.30    6.80
   4   7  -7    7.40   11.50
   4   7  -7   -2.40   11.60
  -4  -7   7   20.70   13.10
  -4  -7   7    4.10   12.40
  -4  -7   7    2.20    5.70
  -4  -7   7    6.00   12.00
  -4  -7   7   -8.90   12.10
   3   7  -7   14.10   11.30
   3   7  -7   15.90   11.00
   3   7  -7    6.30   10.90
  -3  -7   7    1.10   12.30
  -3  -7   7    0.50   10.00
  -3  -7   7   -8.00   10.20
   2   7  -7   66.59   13.30
   2   7  -7   89.29   14.50
   2   7  -7   89.39   13.90
  -2  -7   7   92.19   13.20
  -2  -7   7   81.39   12.10
  -2  -7   7   64.69   13.20
   1   7  -7   89.69   13.20
   1   7  -7   99.29   11.20
   1   7  -7   86.29   12.90
   1   7  -7   91.19   13.50
  -1  -7   7   97.59   12.70
  -1  -7   7   77.29   10.10
  -1  -7   7  103.19   14.90
  -1  -7   7   95.69   12.40
   0   7  -7   51.59    7.30
   0   7  -7   29.50   13.70
   0   7  -7   47.10   12.20
   0   7  -7   31.20   10.70
   0  -7   7   56.59    9.20
   0  -7   7   47.70   11.30
   0  -7   7   69.19   12.80
   0  -7   7   34.30   12.70
  -1   7  -7    4.90   11.00
  -1   7  -7   20.70   10.30
  -1   7  -7    6.30    5.80
  -1   7  -7   20.70   13.10
   1  -7   7    7.20    7.80
   1  -7   7   -6.80   11.40
   1  -7   7   18.10   11.20
   1  -7   7    9.10   11.80
  -2   7  -7  361.96   23.90
  -2   7  -7  388.86   18.20
  -2   7  -7  394.06   24.80
  -2   7  -7  325.47   26.20
   2  -7   7  367.96   25.80
   2  -7   7  406.06   26.30
   2  -7   7  373.96   24.40
   2  -7   7  390.26   19.10
  -3   7  -7   22.60   11.60
  -3   7  -7   19.10   12.90
  -3   7  -7    3.40   10.60
  -3   7  -7   31.20    5.60
   3  -7   7   20.10   12.00
   3  -7   7    5.00   11.20
   3  -7   7   16.80   12.40
  -4   7  -7   -7.90   12.40
  -4   7  -7   17.00   13.10
  -4   7  -7    8.50    5.60
  -4   7  -7  -12.70   11.20
   4  -7   7    0.40    4.70
   4  -7   7    5.90   12.30
   4  -7   7  -10.50   11.90
   4  -7   7  -15.40   13.50
  -5   7  -7  226.58   23.10
  -5   7  -7  218.08   23.00
  -5   7  -7  222.98   13.90
  -5   7  -7  254.37   25.50
   5  -7   7  228.38   23.30
   5  -7   7  203.18   11.80
   5  -7   7  222.38   26.40
   5  -7   7  252.97   24.80
  -6   7  -7   45.70   15.90
  -6   7  -7   95.29   18.60
  -6   7  -7   78.99   17.50
   6  -7   7   67.89   16.30
   6  -7   7   59.59   18.90
   6  -7   7  101.09   18.60
  -7   7  -7  -26.90   15.90
  -7   7  -7  -25.70   17.40
   7  -7   7    0.20   17.30
   7  -7   7   14.80   19.70
   7  -7   7   40.60   16.20
   6   6  -7  183.78   23.50
   6   6  -7  159.28   21.10
   6   6  -7  148.39   18.60
  -6  -6   7  175.98   18.60
  -6  -6   7  171.08   19.20
  -6  -6   7  139.79   17.60
  -6  -6   7  137.09   18.70
   5   6  -7    2.40    3.80
   5   6  -7   15.10   12.30
   5   6  -7   18.40   11.80
   5   6  -7    8.50   13.10
  -5  -6   7    4.90    5.70
  -5  -6   7    3.10   11.70
  -5  -6   7    8.90   12.30
  -5  -6   7   14.40   14.60
  -5  -6   7   20.60   12.70
   4   6  -7  103.79   14.60
   4   6  -7   93.69    9.90
   4   6  -7  108.89   14.10
   4   6  -7  121.89   15.40
  -4  -6   7   79.79   12.60
  -4  -6   7  101.69   15.80
  -4  -6   7   94.39   13.40
  -4  -6   7   86.59    8.40
  -4  -6   7   97.79   13.90
   3   6  -7  647.94   30.50
   3   6  -7  655.13   31.00
   3   6  -7  641.84   30.60
  -3  -6   7  604.14   29.50
  -3  -6   7  672.83   32.30
  -3  -6   7  633.84   29.40
   2   6  -7  188.48   18.20
   2   6  -7  170.08   17.90
   2   6  -7  150.68   17.60
  -2  -6   7  149.99   17.20
  -2  -6   7  151.48   16.70
  -2  -6   7  125.39   16.30
   1   6  -7   -9.20    8.70
   1   6  -7   16.50    6.20
   1   6  -7    8.10    9.10
   1   6  -7    6.20   10.20
  -1  -6   7   16.50    9.30
  -1  -6   7   -0.20    8.80
  -1  -6   7   15.40   11.40
   0   6  -7  150.78   16.30
   0   6  -7  149.59   11.30
   0   6  -7  148.39   15.80
   0   6  -7  155.48   17.30
   0  -6   7  134.29   16.70
   0  -6   7  123.89   14.30
   0  -6   7  164.58   12.40
   0  -6   7  141.89   15.10
  -1   6  -7   46.50   12.70
  -1   6  -7   29.70   10.30
  -1   6  -7   37.50    6.70
  -1   6  -7   37.80   11.00
   1  -6   7   31.40    7.40
   1  -6   7   46.40   10.80
   1  -6   7   36.80   11.00
   1  -6   7   39.50   10.50
  -2   6  -7   43.20   11.00
  -2   6  -7   33.70   11.70
  -2   6  -7   64.79    9.10
  -2   6  -7   39.70   10.50
   2  -6   7   69.79   12.80
   2  -6   7   49.99   11.70
   2  -6   7   55.09   12.70
  -3   6  -7    7.30    4.00
  -3   6  -7   -6.10    9.40
  -3   6  -7   -4.00   11.80
  -3   6  -7   -3.50   10.00
   3  -6   7   -3.50    5.00
   3  -6   7   -6.50   11.30
   3  -6   7    1.60   10.10
   3  -6   7  -11.20    9.90
  -4   6  -7    9.50   12.00
  -4   6  -7   -2.20   11.00
  -4   6  -7    3.70   12.80
  -4   6  -7    8.80    4.60
   4  -6   7    4.70   10.80
   4  -6   7    6.80    5.90
   4  -6   7   16.60   12.80
   4  -6   7    2.80   11.20
  -5   6  -7   21.50    6.00
  -5   6  -7   50.19   13.40
  -5   6  -7   17.70   14.80
  -5   6  -7   23.70   14.00
   5  -6   7   34.80   12.50
   5  -6   7   18.90    7.30
   5  -6   7   38.10   15.20
   5  -6   7   28.40   13.20
  -6   6  -7   -4.80   16.30
  -6   6  -7    3.80   13.90
  -6   6  -7   27.00   15.90
  -6   6  -7   -3.20    5.20
   6  -6   7    2.70   14.60
   6  -6   7  -10.80   13.50
   6  -6   7    2.00    6.70
   6  -6   7   11.80   16.50
  -7   6  -7   31.10   16.90
  -7   6  -7    1.70    7.10
  -7   6  -7   40.10   18.60
  -7   6  -7   15.00   19.00
   7  -6   7   26.30    7.90
   7  -6   7   14.20   19.10
   7  -6   7   42.20   17.10
   7  -6   7   42.50   18.70
   6   5  -7  146.99   17.70
   6   5  -7  111.99   17.80
   6   5  -7  160.48   19.20
  -6  -5   7  104.69   16.50
  -6  -5   7  132.79   17.10
  -6  -5   7  147.59   17.10
  -6  -5   7  135.29   12.00
  -6  -5   7  151.38   17.50
   5   5  -7   39.40   13.20
   5   5  -7   48.70   12.70
   5   5  -7   17.60   11.00
  -5  -5   7   24.20    6.60
  -5  -5   7   18.80   11.00
  -5  -5   7   11.50   10.50
  -5  -5   7    8.90    9.90
  -5  -5   7   16.40   13.30
   4   5  -7  181.78    9.40
   4   5  -7  153.88   17.70
   4   5  -7  159.48   16.00
   4   5  -7  160.18   17.10
  -4  -5   7  173.68   12.30
  -4  -5   7  169.98   18.20
  -4  -5   7  175.88   18.80
  -4  -5   7  159.98   15.50
   3   5  -7  604.64   27.50
   3   5  -7  533.75   26.10
   3   5  -7  584.24   27.50
  -3  -5   7  566.44   26.30
  -3  -5   7  553.94   28.00
  -3  -5   7  536.25   26.00
   2   5  -7   43.30   10.00
   2   5  -7   31.50    9.90
   2   5  -7   38.60    9.10
   2   5  -7   33.70    7.40
  -2  -5   7   40.50   10.90
  -2  -5   7   29.10    8.30
  -2  -5   7   38.20    9.20
   1   5  -7   63.79   10.20
   1   5  -7   60.39   11.00
   1   5  -7   58.79   10.40
   1   5  -7   67.59    8.00
  -1  -5   7   74.79   10.40
  -1  -5   7   60.09   12.20
  -1  -5   7   58.59    9.40
   0   5  -7  285.37   19.40
   0   5  -7  292.47   18.90
   0   5  -7  297.27   14.70
   0   5  -7  260.87   18.20
   0  -5   7  282.17   14.00
   0  -5   7  296.67   18.70
   0  -5   7  277.87   20.40
   0  -5   7  302.77   18.90
  -1   5  -7  175.58   17.10
  -1   5  -7  173.38   11.70
  -1   5  -7  211.88   16.60
  -1   5  -7  204.18   15.80
   1  -5   7  191.88   17.00
   1  -5   7  191.88   16.70
   1  -5   7  181.68   18.20
   1  -5   7  141.59   10.90
  -2   5  -7   14.70    8.70
  -2   5  -7   33.20    9.40
  -2   5  -7   14.70    9.50
   2  -5   7   26.10    9.30
   2  -5   7   18.50    9.10
   2  -5   7   20.70    5.70
   2  -5   7   -0.60    8.80
  -3   5  -7  270.47   20.90
  -3   5  -7  269.77   19.90
  -3   5  -7  276.47   10.50
  -3   5  -7  272.97   18.70
   3  -5   7  264.47   20.30
   3  -5   7  267.17   14.20
   3  -5   7  253.17   20.00
   3  -5   7  241.08   18.50
  -4   5  -7   97.29   13.30
  -4   5  -7   66.69   13.20
  -4   5  -7   75.59    6.90
  -4   5  -7  103.09   14.00
   4  -5   7   95.89    9.50
   4  -5   7   99.59   14.60
   4  -5   7   59.59   13.10
   4  -5   7  101.09   13.80
  -5   5  -7   48.50    6.30
  -5   5  -7   64.29   12.70
  -5   5  -7   54.79   13.30
  -5   5  -7   47.00   14.90
   5  -5   7   62.19   14.70
   5  -5   7   69.89   14.60
   5  -5   7   51.59    9.00
   5  -5   7   50.39   12.50
  -6   5  -7  208.18   24.20
  -6   5  -7  213.88   26.00
  -6   5  -7  197.48   22.10
   6  -5   7  198.78   16.70
   6  -5   7  221.58   22.00
   6  -5   7  211.38   23.20
   6  -5   7  182.58   19.30
  -7   5  -7   -4.30   17.50
  -7   5  -7    2.50   12.80
  -7   5  -7   -1.40   16.90
  -7   5  -7   12.60    6.50
  -7   5  -7  -24.40   17.60
   7  -5   7   18.40   15.30
   7  -5   7   15.40   16.00
   7  -5   7  -29.80   15.30
   7  -5   7   18.80    9.60
   7   4  -7   42.10   16.10
   7   4  -7   66.09   17.30
   7   4  -7   25.50   18.10
  -7  -4   7   30.70   13.40
  -7  -4   7   47.60   15.10
  -7  -4   7    7.60    6.90
  -7  -4   7   24.60   16.60
  -7  -4   7   35.00   15.40
   6   4  -7  156.58   20.20
   6   4  -7  132.69   16.60
   6   4  -7  204.18   21.70
  -6  -4   7  231.38   23.60
  -6  -4   7  165.98   20.40
  -6  -4   7  162.28   20.30
  -6  -4   7  163.08   16.90
  -6  -4   7  175.58   13.70
   5   4  -7  118.49   14.20
   5   4  -7  120.49   14.00
   5   4  -7  140.99   15.60
  -5  -4   7  144.29   17.90
  -5  -4   7  126.89   16.40
  -5  -4   7  121.09   11.80
  -5  -4   7  119.49   15.10
  -5  -4   7  123.09   13.70
   4   4  -7  160.38   16.20
   4   4  -7  112.59   13.10
   4   4  -7  126.79   14.80
  -4  -4   7  130.99   11.90
  -4  -4   7  170.78   14.20
  -4  -4   7  138.39   16.20
  -4  -4   7  154.08   16.30
   3   4  -7   27.20    9.20
   3   4  -7   28.40    7.90
   3   4  -7   20.90    8.30
   3   4  -7   22.40    8.80
  -3  -4   7   35.40    9.40
  -3  -4   7   34.70    7.90
  -3  -4   7   33.90    8.60
   2   4  -7  670.03   28.50
   2   4  -7  644.74   27.40
   2   4  -7  628.04   24.60
   2   4  -7  669.83   28.00
  -2  -4   7  610.14   26.30
  -2  -4   7  646.24   28.00
  -2  -4   7  639.84   26.20
   1   4  -7   -8.30    7.10
   1   4  -7    8.90    5.90
   1   4  -7   -1.50    8.10
   1   4  -7   13.90    7.60
  -1  -4   7   -3.10    8.90
  -1  -4   7   13.60    7.30
  -1  -4   7    4.20    6.90
   0   4  -7    1.80    8.20
   0   4  -7   -6.00    8.00
   0   4  -7    1.10    5.20
   0   4  -7  -11.80    7.70
   0  -4   7    5.70    6.80
   0  -4   7    1.00    7.30
   0  -4   7   -2.30    7.50
  -1   4  -7   58.79   10.00
  -1   4  -7   49.60    9.30
  -1   4  -7   48.90    9.10
  -1   4  -7   60.89    8.50
   1  -4   7   46.60    9.50
   1  -4   7   50.69    6.40
   1  -4   7   57.39    9.60
   1  -4   7   60.49    9.40
   1  -4   7   58.69    7.30
  -2   4  -7  137.19   13.80
  -2   4  -7  156.28   15.20
  -2   4  -7  135.09   15.80
   2  -4   7  152.38   14.90
   2  -4   7  148.39   15.00
   2  -4   7  162.88   11.80
   2  -4   7  159.08   14.50
  -3   4  -7   30.90    9.80
  -3   4  -7    9.70    8.30
  -3   4  -7   27.70   10.20
   3  -4   7   18.80    9.80
   3  -4   7    5.80    8.50
   3  -4   7   19.30    7.00
   3  -4   7    5.40    8.40
  -4   4  -7   64.49   11.20
  -4   4  -7   86.09   12.10
  -4   4  -7   76.59   12.60
  -4   4  -7   75.69    5.80
   4  -4   7   73.49   11.90
   4  -4   7   95.49   12.70
   4  -4   7   84.09   10.10
   4  -4   7   75.89   12.70
  -5   4  -7   24.80   12.00
  -5   4  -7    8.20   13.10
  -5   4  -7   16.10   10.40
  -5   4  -7   10.00    4.60
   5  -4   7    7.60    8.70
   5  -4   7   22.60   12.50
   5  -4   7    5.30   10.00
   5  -4   7   17.50   12.40
  -6   4  -7  107.59   14.10
  -6   4  -7   95.29   16.10
  -6   4  -7   85.09   16.30
  -6   4  -7   72.99   15.40
   6  -4   7   90.59   15.30
   6  -4   7   54.39   14.60
   6  -4   7  119.19   13.10
   6  -4   7   92.19   15.80
  -7   4  -7   -7.30   14.50
  -7   4  -7    4.10   16.60
  -7   4  -7   -9.40   16.90
  -7   4  -7   -1.90   12.30
  -7   4  -7    4.20   14.80
   7  -4   7    5.00   14.10
   7  -4   7  -31.00   15.80
   7  -4   7   10.50   17.50
   7   3  -7  304.97   27.70
   7   3  -7  251.97   23.90
   7   3  -7  243.38   26.00
  -7  -3   7  311.67   27.70
  -7  -3   7  279.07   24.60
  -7  -3   7  326.07   26.00
  -7  -3   7  256.17   17.80
  -7  -3   7  355.76   25.80
   6   3  -7   61.89   12.70
   6   3  -7   56.39   14.30
   6   3  -7   38.20   12.20
  -6  -3   7   50.19    8.40
  -6  -3   7   72.29   13.20
  -6  -3   7   43.00   12.50
  -6  -3   7   39.80   11.80
  -6  -3   7   34.80   10.60
   5   3  -7  756.42   32.10
   5   3  -7  768.22   32.20
  -5  -3   7  710.63   27.90
  -5  -3   7  747.43   31.20
  -5  -3   7  718.03   32.80
  -5  -3   7  737.03   31.20
  -5  -3   7  705.63   31.60
   4   3  -7   15.40    8.90
   4   3  -7   15.40    8.10
   4   3  -7   24.50    9.00
   4   3  -7   18.90    8.10
  -4  -3   7    4.70    8.00
  -4  -3   7   20.80    6.90
  -4  -3   7   19.50    8.10
  -4  -3   7   10.40    8.40
  -4  -3   7   16.30    7.20
   3   3  -7  108.99   13.20
   3   3  -7  116.29   13.40
   3   3  -7  111.99   11.60
   3   3  -7  102.29   11.40
   3   3  -7  105.69    5.20
  -3  -3   7  113.49    9.90
  -3  -3   7  105.49   12.00
  -3  -3   7  111.09   11.00
  -3  -3   7  117.79   13.30
   2   3  -7 1724.23   58.09
   2   3  -7 1792.02   59.39
   2   3  -7 1788.92   59.69
   2   3  -7 1784.52   59.89
  -2  -3   7 1678.23   58.39
  -2  -3   7 1728.53   58.39
  -2  -3   7 1791.12   60.19
   1   3  -7  107.59   13.60
   1   3  -7  149.59   13.20
   1   3  -7  110.69   11.30
   1   3  -7  171.88   11.40
  -1  -3   7  120.89   12.40
  -1  -3   7  154.58   12.50
  -1  -3   7  148.39   11.70
   0   3  -7  103.09   11.30
   0   3  -7   93.69   10.80
   0   3  -7  110.49   13.10
   0   3  -7   92.19   10.20
   0  -3   7  104.99   11.20
   0  -3   7   99.79    9.90
   0  -3   7  114.39   11.90
   0  -3   7  110.29   11.80
  -1   3  -7  494.95   23.00
  -1   3  -7  510.35   23.10
  -1   3  -7  540.85   23.50
  -1   3  -7  545.75   22.30
   1  -3   7  512.15   21.40
   1  -3   7  482.85   23.30
   1  -3   7  541.35   22.70
   1  -3   7  515.05   22.50
  -2   3  -7  101.99   11.60
  -2   3  -7  129.79   13.80
  -2   3  -7  101.19   10.50
   2  -3   7  121.09   11.60
   2  -3   7  118.79   12.90
   2  -3   7  105.19   12.80
   2  -3   7  117.89   12.90
  -3   3  -7  242.68   16.40
  -3   3  -7  244.28   17.80
  -3   3  -7  236.98   15.50
   3  -3   7  205.58   14.40
   3  -3   7  228.28   16.50
   3  -3   7  253.07   17.30
   3  -3   7  217.38   15.80
  -4   3  -7   20.50    9.20
  -4   3  -7   36.80    3.60
  -4   3  -7   22.60   11.50
  -4   3  -7   34.20   10.30
  -4   3  -7   43.20    9.30
   4  -3   7   32.90   10.10
   4  -3   7   27.80   10.60
   4  -3   7   24.20    8.50
   4  -3   7   34.90   10.50
  -5   3  -7   20.80   11.30
  -5   3  -7   26.50   11.70
  -5   3  -7  -13.50    9.20
  -5   3  -7    8.10    8.80
   5  -3   7    3.70   11.30
   5  -3   7    6.60   10.50
   5  -3   7   12.00   11.70
  -6   3  -7   78.79   13.50
  -6   3  -7  112.09   16.60
  -6   3  -7   79.69   15.50
  -6   3  -7   74.69   14.10
   6  -3   7   82.49   16.00
   6  -3   7   67.39   15.90
   6  -3   7   90.69   15.30
  -7   3  -7   -0.50   14.40
  -7   3  -7   -4.70   14.70
  -7   3  -7  -14.60   16.90
  -7   3  -7    1.70   13.30
  -7   3  -7    7.50   15.70
   7  -3   7  -18.30   16.50
   7  -3   7    0.20   15.00
   7  -3   7    3.40   16.50
   7   2  -7    3.40   13.10
   7   2  -7   17.60   14.80
   7   2  -7  -26.10   12.10
  -7  -2   7    6.10    7.30
  -7  -2   7   -5.60   11.40
  -7  -2   7    0.00   12.40
  -7  -2   7   -2.10   13.10
  -7  -2   7  -13.80   12.20
   6   2  -7    3.90   11.20
   6   2  -7   -1.30   10.60
   6   2  -7    4.50   10.60
  -6  -2   7    7.70    9.40
  -6  -2   7   -1.20    9.80
  -6  -2   7   -7.50    9.70
  -6  -2   7    8.50   10.00
  -6  -2   7    6.00    7.40
   5   2  -7  461.85   23.50
   5   2  -7  504.45   24.30
   5   2  -7  510.55   24.50
  -5  -2   7  482.05   23.30
  -5  -2   7  426.06   21.10
  -5  -2   7  475.65   24.30
  -5  -2   7  500.35   23.00
  -5  -2   7  497.35   23.60
   4   2  -7   53.79    8.70
   4   2  -7   54.39    9.30
   4   2  -7   54.59    8.80
   4   2  -7   59.29    9.60
  -4  -2   7   61.99    8.80
  -4  -2   7   45.20    7.90
  -4  -2   7   48.20    7.60
  -4  -2   7   62.79    9.10
  -4  -2   7   69.69   10.40
   3   2  -7  978.90   35.10
   3   2  -7  974.10   35.10
   3   2  -7  939.31   35.40
   3   2  -7  968.00   35.00
  -3  -2   7  947.41   34.40
  -3  -2   7  932.71   34.50
  -3  -2   7  986.30   34.80
  -3  -2   7  946.61   35.30
   2   2  -7  320.37   12.30
   2   2  -7  324.77   17.00
   2   2  -7  329.57   16.30
   2   2  -7  353.96   16.90
   2   2  -7  329.97   16.40
  -2  -2   7  310.57   15.50
  -2  -2   7  328.57   15.70
  -2  -2   7  324.07   16.70
   1   2  -7   23.10    7.00
   1   2  -7   44.60    7.70
   1   2  -7   15.40    7.60
   1   2  -7   25.70    7.60
   1   2  -7   28.00    4.40
  -1  -2   7   30.20    6.20
  -1  -2   7   20.50    7.30
  -1  -2   7   20.60    6.70
  -1  -2   7   32.40    6.50
   0   2  -7 2457.15   81.59
   0   2  -7 2566.04   81.99
   0   2  -7 2501.95   79.69
   0   2  -7 2564.04   82.29
   0   2  -7 2499.65   81.89
   0  -2   7 2419.06   80.99
   0  -2   7 2637.64   82.59
   0  -2   7 2499.55   81.19
   0  -2   7 2521.45   81.59
  -1   2  -7    4.70    6.00
  -1   2  -7   -1.70    6.40
  -1   2  -7    9.20    6.60
  -1   2  -7    6.20    5.20
   1  -2   7    2.90    6.20
   1  -2   7    0.30    5.70
   1  -2   7    2.10    5.60
   1  -2   7   -2.10    5.80
  -2   2  -7   81.39   10.60
  -2   2  -7   98.69   11.60
  -2   2  -7   74.09    8.60
  -2   2  -7  104.39   11.10
   2  -2   7   84.29    9.10
   2  -2   7   76.69    8.90
   2  -2   7   85.79    9.50
   2  -2   7   89.29   11.30
  -3   2  -7 1495.65   52.09
  -3   2  -7 1480.75   51.59
  -3   2  -7 1516.15   52.59
  -3   2  -7 1508.05   51.39
   3  -2   7 1518.05   51.49
   3  -2   7 1478.65   51.89
   3  -2   7 1509.55   51.89
   3  -2   7 1459.75   51.69
  -4   2  -7  125.09   12.70
  -4   2  -7  103.19   13.10
  -4   2  -7  107.19   11.80
  -4   2  -7  126.29   14.70
   4  -2   7  119.59   14.50
   4  -2   7   96.49   12.00
   4  -2   7   92.49   11.90
  -5   2  -7   10.20   10.50
  -5   2  -7    3.20    9.40
  -5   2  -7   22.00   11.50
   5  -2   7   -0.50    9.40
   5  -2   7  -11.40   10.70
   5  -2   7    9.30   10.00
  -6   2  -7  170.38   21.70
  -6   2  -7  214.78   23.00
  -6   2  -7  199.58   20.20
  -6   2  -7  203.28   22.80
  -6   2  -7  216.68   24.00
   6  -2   7  220.78   22.40
   6  -2   7  186.98   22.80
   6  -2   7  213.98   24.00
  -7   2  -7  179.08   23.00
  -7   2  -7  127.59   16.10
  -7   2  -7  169.78   19.40
  -7   2  -7  134.19   19.80
  -7   2  -7  114.59   18.80
   7  -2   7  111.39   18.50
   7  -2   7  147.29   18.70
   7  -2   7   84.99   18.20
   7   1  -7  271.67   24.60
   7   1  -7  226.38   22.70
   7   1  -7  251.47   23.70
   7   1  -7  278.07   22.50
  -7  -1   7  279.77   22.90
  -7  -1   7  267.97   24.50
  -7  -1   7  261.97   21.00
  -7  -1   7  272.97   22.50
   6   1  -7  167.78   17.60
   6   1  -7  175.58   17.90
   6   1  -7  161.18   18.70
  -6  -1   7  162.58   16.40
  -6  -1   7  166.48   16.80
  -6  -1   7  191.28   18.60
  -6  -1   7  199.38   15.50
  -6  -1   7  172.78   18.10
   5   1  -7  899.41   36.00
   5   1  -7  953.10   35.90
   5   1  -7  896.01   36.30
   5   1  -7  948.51   36.00
  -5  -1   7  952.50   35.30
  -5  -1   7  960.10   34.50
  -5  -1   7  961.60   35.70
  -5  -1   7  947.81   35.30
  -5  -1   7  885.01   36.20
   4   1  -7 1503.65   52.89
   4   1  -7 1344.37   52.39
   4   1  -7 1579.44   52.89
   4   1  -7 1589.54   52.69
  -4  -1   7 1548.55   52.59
  -4  -1   7 1506.35   51.99
  -4  -1   7 1578.34   53.09
  -4  -1   7 1642.24   52.49
  -4  -1   7 1605.74   52.09
   3   1  -7    8.60    5.70
   3   1  -7    4.20    5.80
   3   1  -7   -8.60    6.60
   3   1  -7    2.60    5.20
  -3  -1   7   -4.00    5.30
  -3  -1   7    3.10    5.30
  -3  -1   7   -7.50    6.00
  -3  -1   7    4.90    5.30
   2   1  -7  142.69    8.00
   2   1  -7  133.79   11.30
   2   1  -7  151.48   10.90
   2   1  -7  155.08   11.10
   2   1  -7  165.68   11.20
  -2  -1   7  143.29    9.80
  -2  -1   7  146.89   10.30
  -2  -1   7  145.29   10.90
   1   1  -7  809.02   29.10
   1   1  -7  667.83   29.30
   1   1  -7  738.43   29.20
   1   1  -7  839.42   27.30
   1   1  -7  847.22   30.20
  -1  -1   7  829.32   30.30
  -1  -1   7  796.62   28.40
  -1  -1   7  751.32   28.90
  -1  -1   7  843.22   28.50
   0   1  -7  396.56   17.20
   0   1  -7  383.66   17.90
   0   1  -7  391.06   18.90
   0   1  -7  382.06   16.30
   0   1  -7  381.36   18.00
   0  -1   7  396.26   16.50
   0  -1   7  416.16   16.80
   0  -1   7  422.46   18.20
   0  -1   7  368.46   18.10
  -1   1  -7   -5.30    5.50
  -1   1  -7   -0.40    5.50
  -1   1  -7   -1.50    5.70
  -1   1  -7    2.70    5.40
   1  -1   7   -1.70    5.00
   1  -1   7   -9.20    5.00
   1  -1   7    5.60    6.80
   1  -1   7    3.60    5.10
  -2   1  -7   70.59    8.20
  -2   1  -7   96.09   11.20
  -2   1  -7   70.89    8.40
  -2   1  -7   61.49    8.30
   2  -1   7   73.89    8.30
   2  -1   7   63.29    7.80
   2  -1   7   68.69    9.10
   2  -1   7   72.49    8.30
  -3   1  -7  133.19   13.10
  -3   1  -7  132.59   14.00
  -3   1  -7  153.98   13.50
  -3   1  -7  140.29    6.40
  -3   1  -7  130.79   12.90
   3  -1   7  144.79   13.90
   3  -1   7  153.18   13.80
   3  -1   7  138.19   13.40
   3  -1   7  144.99   12.80
  -4   1  -7   47.20    9.70
  -4   1  -7   48.30    4.90
  -4   1  -7   49.10    9.50
  -4   1  -7   57.69   11.00
  -4   1  -7   40.20    9.40
   4  -1   7   49.60   10.40
   4  -1   7   36.00   10.00
   4  -1   7   52.99   10.10
  -5   1  -7  433.46   23.50
  -5   1  -7  395.86   24.00
  -5   1  -7  397.46   25.10
  -5   1  -7  390.86   23.70
   5  -1   7  381.86   22.50
   5  -1   7  409.16   24.50
   5  -1   7  424.96   23.50
  -6   1  -7   16.70   14.40
  -6   1  -7   29.30   13.80
  -6   1  -7   16.30   13.40
  -6   1  -7   20.20   12.30
  -6   1  -7   26.90   12.30
   6  -1   7   38.70   13.50
   6  -1   7   24.00   11.70
   6  -1   7   35.50   14.40
   7   0  -7  103.99   14.60
   7   0  -7   93.39   15.00
   7   0  -7   97.79   15.90
  -7   0   7   95.49   13.60
  -7   0   7   85.89   12.50
  -7   0   7   90.29   12.70
  -7   0   7   90.29   14.80
  -7   0   7  103.99   12.80
   6   0  -7  792.22   34.10
   6   0  -7  810.62   34.60
   6   0  -7  849.41   34.10
  -6   0   7  800.52   34.70
  -6   0   7  875.11   33.60
  -6   0   7  821.62   32.70
  -6   0   7  855.81   33.40
  -6   0   7  873.91   34.00
   5   0  -7   -2.70    7.90
   5   0  -7   -3.00    6.10
   5   0  -7    4.50    8.10
   5   0  -7   -3.70    6.90
  -5   0   7    1.40    7.70
  -5   0   7    0.40    6.80
  -5   0   7   -5.20    6.30
  -5   0   7    3.80    7.40
  -5   0   7   -8.70    7.00
   4   0  -7 1120.79   39.40
   4   0  -7 1097.79   40.10
   4   0  -7 1114.39   38.90
   4   0  -7 1091.09   38.90
  -4   0   7 1127.99   38.90
  -4   0   7 1079.79   38.40
  -4   0   7 1110.59   39.00
  -4   0   7 1088.49   38.30
  -4   0   7 1122.09   39.30
   3   0  -7 1823.02   58.29
   3   0  -7 1796.62   58.09
   3   0  -7 1819.12   59.99
   3   0  -7 1788.52   58.39
  -3   0   7 1749.03   57.99
  -3   0   7 1773.82   59.09
  -3   0   7 1785.22   57.79
  -3   0   7 1739.73   57.89
  -3   0   7 1734.73   57.79
   2   0  -7 1574.04   50.59
   2   0  -7 1515.85   50.89
   2   0  -7 1623.64   51.09
   2   0  -7 1509.75   49.60
   2   0  -7 1480.65   52.59
  -2   0   7 1561.24   50.49
  -2   0   7 1514.05   50.49
  -2   0   7 1610.14   53.29
  -2   0   7 1558.74   50.69
  -2   0   7 1577.24   52.09
   1   0  -7 1411.56   47.60
   1   0  -7 1416.06   49.60
   1   0  -7 1307.97   47.90
   1   0  -7 1496.15   48.00
   1   0  -7 1522.65   47.40
  -1   0   7 1449.46   49.80
  -1   0   7 1438.06   47.30
  -1   0   7 1481.35   47.30
  -1   0   7 1489.75   47.20
   0   0  -7  841.92   28.80
   0   0  -7  794.72   28.00
   0   0  -7  803.22   28.90
   0   0  -7  771.22   28.50
   0   0   7  820.42   28.80
   0   0   7  770.82   30.10
   0   0   7  798.02   27.50
   0   0   7  794.32   27.20
   0   0   7  782.92   27.50
  -1   0  -7 3530.95  110.29
  -1   0  -7 3512.55  110.99
  -1   0  -7 3432.36  110.29
  -1   0  -7 3474.15  110.49
   1   0   7 3423.96  110.59
   1   0   7 3585.64  110.09
   1   0   7 3534.55  112.29
   1   0   7 3557.54  109.89
  -2   0  -7   -6.00    6.20
  -2   0  -7    1.80    6.90
  -2   0  -7    7.10    5.60
  -2   0  -7    0.30    5.70
   2   0   7    5.10    7.30
   2   0   7    7.30    5.80
   2   0   7    4.30    5.60
   2   0   7    6.20    6.00
  -3   0  -7   66.79    9.50
  -3   0  -7   41.70    8.00
  -3   0  -7   64.29    9.80
  -3   0  -7   58.29    8.40
  -3   0  -7   64.69    6.60
   3   0   7   70.99    9.40
   3   0   7   45.60    8.40
   3   0   7   53.29    8.00
  -4   0  -7 1042.60   41.10
  -4   0  -7 1103.29   40.50
  -4   0  -7 1081.19   40.00
  -4   0  -7 1119.09   40.50
  -4   0  -7 1084.39   40.40
  -4   0  -7 1064.19   35.80
   4   0   7 1063.69   40.70
   4   0   7 1088.49   40.00
   4   0   7 1047.80   40.40
  -5   0  -7  205.38   12.50
  -5   0  -7  223.38   19.80
  -5   0  -7  209.18   20.40
  -5   0  -7  208.58   19.10
  -5   0  -7  188.08   17.70
   5   0   7  160.58   19.20
   5   0   7  193.38   18.40
   5   0   7  163.48   18.60
  -6   0  -7   26.70   13.00
  -6   0  -7    8.90   13.60
  -6   0  -7   11.10    7.90
  -6   0  -7   15.60   14.70
  -6   0  -7  -16.30   12.00
  -6   0  -7  -19.30    9.00
   6   0   7    9.00   12.60
   6   0   7   -0.60   12.70
   6   0   7   17.30   12.90
   7  -1  -7 1236.88   49.60
   7  -1  -7 1239.98   47.60
   7  -1  -7 1224.08   47.30
  -7   1   7 1292.07   47.40
  -7   1   7 1294.37   47.00
  -7   1   7 1290.27   46.80
  -7   1   7 1180.98   46.80
  -7   1   7 1278.97   49.00
   6  -1  -7   29.20   10.50
   6  -1  -7   33.20    9.80
  -6   1   7   39.10    8.80
  -6   1   7   25.20    8.20
  -6   1   7   51.19   10.70
  -6   1   7   44.90    9.80
   5  -1  -7  526.35   22.90
   5  -1  -7  492.15   22.10
   5  -1  -7  510.85   23.70
  -5   1   7  489.15   22.80
  -5   1   7  462.55   22.70
  -5   1   7  477.75   21.10
  -5   1   7  505.85   21.60
  -5   1   7  514.15   22.40
   4  -1  -7  932.81   32.50
   4  -1  -7  918.41   33.10
   4  -1  -7  913.61   34.70
   4  -1  -7  887.91   32.50
  -4   1   7  905.11   32.10
  -4   1   7  918.21   32.70
  -4   1   7  920.21   32.60
  -4   1   7  898.71   33.80
  -4   1   7  910.41   32.00
   3  -1  -7  250.97   16.10
   3  -1  -7  282.77   13.10
   3  -1  -7  272.87   12.60
   3  -1  -7  264.67   13.10
  -3   1   7  266.97   12.30
  -3   1   7  273.47   15.40
  -3   1   7  265.27   12.50
  -3   1   7  259.27   12.30
  -3   1   7  259.17   12.40
  -3   1   7  264.07   11.10
   2  -1  -7   83.59    7.00
   2  -1  -7   87.09    7.40
   2  -1  -7   75.09    9.60
  -2   1   7   71.69    8.40
  -2   1   7   76.09    7.20
  -2   1   7   62.29    9.20
  -2   1   7   80.69    6.60
  -2   1   7   70.29    7.40
  -2   1   7   75.49    7.00
  -2   1   7   57.49    7.00
   1  -1  -7  130.19   13.30
   1  -1  -7  107.99    8.60
   1  -1  -7  135.69   10.20
   1  -1  -7  122.69    7.80
  -1   1   7  128.09    7.20
  -1   1   7  118.79    7.30
  -1   1   7  114.39    9.40
  -1   1   7  122.49    9.70
  -1   1   7  129.79   13.40
  -1   1   7  130.09    7.30
   0  -1  -7   28.90    5.40
   0  -1  -7   36.40    5.50
   0  -1  -7   32.00    6.40
   0   1   7   42.40    4.50
   0   1   7   38.00    5.60
   0   1   7   42.00    6.10
   0   1   7   27.80    6.00
   0   1   7   31.40    8.40
   0   1   7   35.30    4.30
  -1  -1  -7   13.30    5.40
  -1  -1  -7   15.00    5.00
  -1  -1  -7   16.90    7.00
  -1  -1  -7   15.50    5.30
   1   1   7   19.80    5.30
   1   1   7   11.30    6.50
   1   1   7   12.00    5.30
   1   1   7   17.00    5.10
   1   1   7   27.20    8.60
   1   1   7   20.10    4.70
  -2  -1  -7  351.66   17.00
  -2  -1  -7  328.97   16.50
  -2  -1  -7  360.16   14.60
  -2  -1  -7  366.36   16.40
  -2  -1  -7  372.46   19.00
   2   1   7  355.56   19.00
   2   1   7  370.46   16.60
   2   1   7  363.26   16.50
   2   1   7  357.86   16.20
  -3  -1  -7  827.72   31.70
  -3  -1  -7  780.72   30.70
  -3  -1  -7  782.72   30.60
  -3  -1  -7  788.22   27.60
  -3  -1  -7  773.32   29.90
   3   1   7  807.82   30.50
   3   1   7  819.62   30.90
   3   1   7  771.82   30.00
  -4  -1  -7  104.09   12.60
  -4  -1  -7  120.09   15.60
  -4  -1  -7   99.19   10.30
  -4  -1  -7   98.09   11.50
  -4  -1  -7  134.19   14.40
   4   1   7  108.69   11.60
   4   1   7   82.89   11.10
   4   1   7  110.39   11.90
  -5  -1  -7   -4.00    9.80
  -5  -1  -7   17.20   12.00
  -5  -1  -7   -5.60    7.20
  -5  -1  -7    3.70    6.70
  -5  -1  -7   -0.90   10.10
  -5  -1  -7   18.60   11.10
   5   1   7   -6.90    9.60
   5   1   7    7.80   10.30
   5   1   7    7.00   10.20
  -6  -1  -7  567.34   32.20
  -6  -1  -7  561.74   30.40
  -6  -1  -7  572.04   30.70
  -6  -1  -7  518.05   24.40
  -6  -1  -7  553.74   30.10
   6   1   7  521.05   31.10
   6   1   7  581.14   30.40
   6   1   7  508.35   30.40
   7  -2  -7   40.20   11.50
   7  -2  -7   42.80   11.10
   7  -2  -7   22.90   12.30
  -7   2   7   37.40   10.10
  -7   2   7   27.20   12.20
  -7   2   7   26.80   10.00
  -7   2   7   38.40   11.40
  -7   2   7   36.30   10.70
   6  -2  -7   -4.20    7.60
   6  -2  -7    4.50    9.60
  -6   2   7    1.80    7.50
  -6   2   7  -11.30    8.20
  -6   2   7    0.00    8.70
  -6   2   7    2.90    7.10
   5  -2  -7 2579.34   84.69
   5  -2  -7 2504.85   82.59
   5  -2  -7 2651.53   83.49
  -5   2   7 2503.35   82.59
  -5   2   7 2572.84   82.39
  -5   2   7 2574.34   83.99
  -5   2   7 2564.44   79.09
  -5   2   7 2566.44   82.89
  -5   2   7 2525.55   82.09
   4  -2  -7    2.40    5.20
   4  -2  -7   -0.60    7.90
   4  -2  -7    7.00    5.30
   4  -2  -7    3.80    5.70
  -4   2   7    6.50    5.10
  -4   2   7    4.70    3.30
  -4   2   7    2.30    4.30
  -4   2   7    5.00    5.20
  -4   2   7   -0.40    7.80
  -4   2   7    1.10    4.60
   3  -2  -7  905.91   30.50
   3  -2  -7  881.31   34.60
   3  -2  -7  913.81   30.90
  -3   2   7  910.11   30.40
  -3   2   7  879.41   30.40
  -3   2   7  926.61   30.40
  -3   2   7  942.31   33.80
  -3   2   7  973.10   35.50
  -3   2   7  897.41   30.70
  -3   2   7  906.31   30.40
   2  -2  -7 5141.69  158.48
   2  -2  -7 4838.62  159.08
   2  -2  -7 5324.77  163.28
   2  -2  -7 5215.48  158.78
  -2   2   7 5071.79  163.28
  -2   2   7 5032.20  157.88
  -2   2   7 5289.07  161.78
  -2   2   7 5334.37  158.58
  -2   2   7 5283.47  158.08
  -2   2   7 5232.08  160.28
  -2   2   7 5095.69  158.18
   1  -2  -7  499.65   16.40
   1  -2  -7  486.05   17.00
   1  -2  -7  499.95   20.30
   1  -2  -7  490.75   16.80
  -1   2   7  507.35   19.90
  -1   2   7  486.05   20.90
  -1   2   7  503.45   21.10
  -1   2   7  501.45   22.80
   0  -2  -7  694.23   22.80
   0  -2  -7  656.93   22.90
   0  -2  -7  648.94   22.10
   0  -2  -7  634.34   25.70
   0   2   7  680.33   21.70
   0   2   7  650.43   21.50
   0   2   7  629.64   27.30
   0   2   7  634.74   25.40
   0   2   7  639.34   25.10
   0   2   7  673.93   22.00
  -1  -2  -7  644.94   23.30
  -1  -2  -7  654.43   26.00
  -1  -2  -7  648.84   23.60
  -1  -2  -7  656.73   23.40
  -1  -2  -7  638.74   22.70
   1   2   7  682.63   26.70
   1   2   7  561.84   25.70
   1   2   7  664.33   23.10
   1   2   7  647.74   27.60
   1   2   7  693.73   23.00
  -2  -2  -7  949.71   33.60
  -2  -2  -7  953.00   35.70
  -2  -2  -7  964.40   33.20
  -2  -2  -7  946.81   33.20
  -2  -2  -7  960.20   33.80
  -2  -2  -7  957.50   33.30
   2   2   7  931.61   33.20
   2   2   7  959.20   36.20
   2   2   7  978.40   33.40
   2   2   7  946.11   33.60
  -3  -2  -7  431.06   18.00
  -3  -2  -7  419.96   21.40
  -3  -2  -7  408.16   19.30
  -3  -2  -7  413.46   20.30
  -3  -2  -7  411.46   19.90
   3   2   7  385.26   19.10
   3   2   7  391.16   18.80
   3   2   7  395.16   19.60
  -4  -2  -7   25.20    7.20
  -4  -2  -7   16.00    9.70
  -4  -2  -7    1.10    6.50
  -4  -2  -7   32.10   10.20
   4   2   7   22.80    9.10
   4   2   7   16.20    8.70
   4   2   7   10.60    8.90
  -5  -2  -7   19.00   11.10
  -5  -2  -7   29.40   11.60
  -5  -2  -7   15.20   11.50
  -5  -2  -7   33.60   11.30
  -5  -2  -7   -5.00    7.50
  -5  -2  -7   33.40    8.50
   5   2   7   20.60   11.50
   5   2   7   15.70   10.30
   5   2   7   21.00   11.40
   7  -3  -7    0.00   11.50
   7  -3  -7   -1.30   11.20
   7  -3  -7   -5.40    7.40
  -7   3   7   -2.80    8.90
  -7   3   7   15.00    9.00
  -7   3   7   12.20   11.90
  -7   3   7    8.30   10.90
  -7   3   7   -2.20    9.80
   6  -3  -7  450.15   21.10
   6  -3  -7  419.06   23.60
  -6   3   7  417.46   20.90
  -6   3   7  439.86   21.60
  -6   3   7  459.85   20.40
  -6   3   7  459.65   24.30
  -6   3   7  431.66   20.50
  -6   3   7  418.96   15.40
   5  -3  -7  194.58   14.10
   5  -3  -7  192.28   12.90
   5  -3  -7  174.48   16.50
  -5   3   7  194.58   13.10
  -5   3   7  191.28    9.90
  -5   3   7  196.98   13.10
  -5   3   7  196.38   12.20
  -5   3   7  197.98   12.20
   4  -3  -7  206.28   12.10
   4  -3  -7  199.78   11.30
   4  -3  -7  181.38   16.20
  -4   3   7  201.98   10.80
  -4   3   7  194.88   11.50
  -4   3   7  213.68   11.10
  -4   3   7  223.08   10.70
  -4   3   7  210.78   10.40
   3  -3  -7    5.20    9.00
   3  -3  -7    2.80    3.70
   3  -3  -7    3.40    3.60
  -3   3   7   -1.30    3.10
  -3   3   7    5.50    7.60
  -3   3   7   -3.70    2.80
  -3   3   7   -2.40    4.80
  -3   3   7    3.20    8.60
  -2   3   7    5.00    5.10
  -2   3   7   -1.20    6.70
  -2   3   7    2.60    8.40
  -2   3   7    1.20    7.00
  -1   3   7  102.59   12.50
  -1   3   7  112.79   10.60
  -1   3   7  116.19   12.00
  -1   3   7   89.49    9.00
   0  -3  -7 2127.39   61.79
   0  -3  -7 2045.00   62.39
   0  -3  -7 1895.31   61.29
   0  -3  -7 1926.61   61.79
   0  -3  -7 1960.70   65.99
   0   3   7 2022.30   66.39
   0   3   7 1991.60   65.09
   0   3   7 1952.10   67.39
   0   3   7 1992.60   65.79
  -1  -3  -7   51.59    6.00
  -1  -3  -7   60.49    9.10
  -1  -3  -7   43.60    7.30
  -1  -3  -7   53.69    5.60
  -1  -3  -7   50.19    6.40
   1   3   7   53.59    5.30
   1   3   7   53.19   10.10
   1   3   7   46.10    8.80
   1   3   7   60.49   10.50
   1   3   7   50.09    5.70
  -2  -3  -7  170.28   11.40
  -2  -3  -7  173.78   12.20
  -2  -3  -7  172.18   12.90
  -2  -3  -7  164.58   12.00
  -2  -3  -7  185.48   16.70
  -2  -3  -7  158.48   11.10
   2   3   7  148.39   15.60
   2   3   7  176.38   11.20
   2   3   7  178.18   11.50
  -3  -3  -7 1605.54   53.99
  -3  -3  -7 1595.84   53.49
  -3  -3  -7 1563.44   54.09
  -3  -3  -7 1578.14   56.39
  -3  -3  -7 1622.64   53.39
   3   3   7 1593.94   53.59
   3   3   7 1515.85   52.99
  -4  -3  -7  260.67   21.30
  -4  -3  -7  253.17   19.30
  -4  -3  -7  278.97   17.20
   4   3   7  256.77   17.50
   4   3   7  281.97   18.80
  -5  -3  -7  236.08   20.30
  -5  -3  -7  218.88   21.20
  -5  -3  -7  235.38   21.40
  -5  -3  -7  221.98   21.30
  -5  -3  -7  210.08   17.70
   5   3   7  256.77   21.30
   5   3   7  253.07   20.60
   7  -4  -7  529.95   28.20
   7  -4  -7  586.44   28.60
  -7   4   7  570.24   29.70
  -7   4   7  537.35   25.40
  -7   4   7  606.94   26.50
  -7   4   7  568.44   27.10
  -7   4   7  573.04   25.80
  -7   4   7  543.65   19.50
   6  -4  -7  475.55   24.50
  -6   4   7  464.95   21.80
  -6   4   7  477.05   20.60
  -6   4   7  473.15   21.00
  -6   4   7  474.55   25.80
  -6   4   7  475.35   18.00
  -6   4   7  415.56   21.00
   5  -4  -7  230.28   17.80
   5  -4  -7  209.98   14.30
  -5   4   7  222.98   12.30
  -5   4   7  228.28   13.30
  -5   4   7  223.48   12.40
  -5   4   7  246.78   12.60
  -5   4   7  259.47   14.20
   4  -4  -7 2752.62   82.19
   4  -4  -7 2555.64   81.59
   4  -4  -7 2485.45   85.99
  -4   4   7 2618.54   82.79
  -4   4   7 2649.03   85.39
  -4   4   7 2655.03   80.89
  -4   4   7 2476.35   80.79
  -4   4   7 2568.24   81.29
  -4   4   7 2682.53   81.19
  -3   4   7  181.68   12.30
  -3   4   7  181.68   15.00
  -3   4   7  174.28   16.70
  -3   4   7  172.68   17.40
  -2   4   7   25.90    8.30
  -2   4   7   29.10    9.60
  -2   4   7   35.10    7.20
  -2   4   7   35.40    9.00
  -1   4   7 2873.31  105.09
  -1   4   7 3395.76  105.59
  -1   4   7 3424.06  103.79
  -1   4   7 3329.57  104.09
   0   4   7   51.89   10.40
   0   4   7   59.79    9.20
   0   4   7   52.29    9.60
   0   4   7   61.89    8.20
  -1  -4  -7  557.34   20.40
  -1  -4  -7  590.14   20.70
  -1  -4  -7  566.64   21.10
  -1  -4  -7  596.04   24.50
  -1  -4  -7  566.04   25.70
  -1  -4  -7  616.74   21.40
   1   4   7  587.84   27.90
   1   4   7  588.54   20.40
   1   4   7  601.24   26.40
   1   4   7  545.35   23.00
   1   4   7  593.74   20.30
  -2  -4  -7  153.18   17.60
  -2  -4  -7  167.88   14.90
  -2  -4  -7  146.79   12.10
  -2  -4  -7  184.68   12.60
  -2  -4  -7  167.48   11.50
  -2  -4  -7  174.38   11.20
   2   4   7  175.98   11.70
   2   4   7  184.98   12.20
   2   4   7  195.68   12.70
  -3  -4  -7   21.80    8.50
  -3  -4  -7   16.10    7.50
  -3  -4  -7   22.40    9.00
  -3  -4  -7   17.10    7.50
  -3  -4  -7   29.20   11.20
   3   4   7   26.10    8.40
   3   4   7   32.40    6.70
  -4  -4  -7   45.10   12.30
  -4  -4  -7   23.10   10.00
  -4  -4  -7   30.00    9.80
  -4  -4  -7    4.30    7.90
  -4  -4  -7   43.40   10.80
   4   4   7   35.00   13.30
   4   4   7   28.20   10.20
   4   4   7   25.20    8.80
   6  -5  -7   93.69   13.60
  -6   5   7  109.69   10.80
  -6   5   7   89.79   11.20
  -6   5   7  129.59   12.90
  -6   5   7   81.49   13.50
  -6   5   7  107.79   14.00
  -6   5   7   91.89    8.80
   5  -5  -7   10.60   10.50
   5  -5  -7    0.30    6.30
  -5   5   7   -2.60   12.90
  -5   5   7   -3.70    5.80
  -5   5   7    9.40   10.00
  -5   5   7   -2.70    4.20
  -5   5   7    2.60    4.90
  -5   5   7   -1.10    4.20
  -5   5   7    0.60    5.00
   4  -5  -7    5.20    3.40
   4  -5  -7    9.60    4.50
  -4   5   7   25.60   10.20
  -4   5   7   24.70   11.30
  -4   5   7   29.40   11.70
  -4   5   7   10.40    6.40
  -3   5   7  888.11   37.60
  -3   5   7  933.21   37.90
  -3   5   7  943.21   33.60
  -3   5   7  916.01   35.10
  -2   5   7  466.85   21.20
  -2   5   7  502.85   25.30
  -2   5   7  447.26   21.80
  -2   5   7  504.65   24.80
  -1   5   7  221.58   16.20
  -1   5   7  212.28   18.40
  -1   5   7  248.28   18.20
  -1   5   7  235.48   15.30
   0   5   7  291.57   19.90
   0   5   7  276.27   19.70
   0   5   7  284.37   17.50
   0   5   7  257.57   15.70
  -1  -5  -7 2146.69   68.79
  -1  -5  -7 2193.48   68.69
  -1  -5  -7 2140.59   72.59
  -1  -5  -7 2082.49   68.19
  -1  -5  -7 2240.78   68.19
   1   5   7 2180.38   70.19
   1   5   7 2228.28   73.99
  -2  -5  -7   49.00    7.50
  -2  -5  -7   56.39   11.00
   2   5   7   59.59    7.10
   2   5   7   46.20    7.30
   2   5   7   46.00    7.70
  -3  -5  -7  165.68   17.30
  -3  -5  -7  113.09   13.60
   3   5   7  117.39   16.10
   3   5   7  121.69   14.60
   3   5   7  142.29   11.30
   3   5   7  138.39   12.10
  -4  -5  -7  833.92   34.60
  -4  -5  -7  899.51   36.30
  -4  -5  -7  889.81   36.60
   4   5   7  911.51   30.10
   4   5   7  861.41   33.50
   4   5   7  831.32   36.00
   4   5   7  907.11   40.20
  -6   6   7  185.78   17.80
  -6   6   7  193.38   12.30
  -6   6   7  191.88   20.80
  -6   6   7  174.08   14.40
  -6   6   7  197.08   13.00
  -6   6   7  198.18   13.30
  -6   6   7  197.78   11.80
   5  -6  -7 1095.29   35.90
  -5   6   7 1065.99   41.40
  -5   6   7  984.50   33.70
  -5   6   7  996.80   45.10
  -5   6   7 1051.99   37.40
  -5   6   7 1020.30   33.30
  -4   6   7   97.19   14.80
  -4   6   7   90.89   10.00
  -4   6   7   93.69   14.80
  -4   6   7   81.89   12.40
  -3   6   7  802.42   36.60
  -3   6   7  824.42   32.90
  -3   6   7  828.32   31.80
  -3   6   7  819.92   36.00
  -2   6   7 1048.10   41.50
  -2   6   7  986.30   37.50
  -2   6   7 1004.20   39.90
  -2   6   7 1013.20   37.90
  -1   6   7  480.45   26.00
  -1   6   7  415.26   24.10
  -1   6   7  459.05   23.10
  -1   6   7  447.16   21.30
   0   6   7  222.08   20.50
   0   6   7  233.98   15.50
   0   6   7  258.77   19.60
   0   6   7  254.37   21.90
  -1  -6  -7  119.89    9.20
  -1  -6  -7  111.79    8.40
  -1  -6  -7  124.09    8.00
  -1  -6  -7  114.69   13.40
   1   6   7  130.19   12.30
   1   6   7  118.19   15.00
   1   6   7  106.09   13.40
  -2  -6  -7  655.73   25.40
  -2  -6  -7  674.03   26.40
  -2  -6  -7  735.03   31.90
   2   6   7  710.43   26.10
   2   6   7  704.33   33.90
   2   6   7  691.43   25.70
   2   6   7  670.93   25.10
  -3  -6  -7   38.30    8.70
  -3  -6  -7   31.60    9.60
  -3  -6  -7   42.70   12.70
   3   6   7   33.60    6.40
   3   6   7   36.10    6.20
   3   6   7   57.29   14.70
   3   6   7   25.60    9.20
  -5   7   7  243.68   27.20
  -5   7   7  292.67   23.30
  -5   7   7  286.57   18.20
  -4   7   7   27.70   14.60
  -4   7   7   29.50   11.20
  -4   7   7   50.29   10.00
  -4   7   7   53.69   14.40
  -3   7   7   35.00   13.50
  -3   7   7   24.10    9.40
  -3   7   7   23.10    9.90
  -3   7   7   14.70   12.70
  -2   7   7  609.04   26.30
  -2   7   7  619.74   32.10
  -2   7   7  617.94   29.70
  -2   7   7  581.84   27.50
  -1   7   7  426.26   24.60
  -1   7   7  426.76   26.00
  -1   7   7  462.75   21.70
  -1   7   7  472.35   28.10
   0   7   7  266.37   16.50
   0   7   7  338.77   23.70
   0   7   7  274.27   25.90
   0   7   7  277.97   22.70
  -1  -7  -7   49.00    4.80
  -1  -7  -7   36.00    5.70
  -1  -7  -7   30.40   12.50
   1   7   7   46.40    7.70
   1   7   7   52.69   16.00
   1   7   7   30.50   12.70
  -2  -7  -7  832.62   30.00
  -2  -7  -7  908.61   38.40
   2   7   7  820.92   29.90
   2   7   7  830.62   28.80
   2   7   7  810.02   38.60
   2   7   7  864.01   30.10
  -4   8   7  746.03   34.50
  -4   8   7  844.82   40.00
  -4   8   7  707.33   36.80
  -4   8   7  788.82   32.80
  -3   8   7   28.10   10.90
  -3   8   7    7.00   14.50
  -3   8   7   55.99   14.50
  -3   8   7   25.10   11.10
  -2   8   7   46.00   10.30
  -2   8   7   50.39   13.30
  -2   8   7   25.50   11.30
  -2   8   7   41.90   15.50
  -1   8   7  603.74   34.20
  -1   8   7  614.04   26.70
  -1   8   7  663.03   31.40
  -1   8   7  563.04   31.30
   0   8   7  221.38   24.00
   0   8   7  210.78   22.50
   0   8   7  229.78   23.30
   0   8   7  265.97   16.60
   0  12  -8  221.68   28.30
   0  12  -8  220.68   22.90
   0  12  -8  199.38   17.60
   0  12  -8  134.69   31.90
   0 -12   8  215.58   26.90
   0 -12   8   94.99   30.20
   0 -12   8  307.47   35.30
   0 -12   8  196.28   24.50
  -1  12  -8  318.67   30.40
  -1  12  -8  315.97   18.30
  -1  12  -8  276.27   27.70
  -1  12  -8  321.67   33.00
   1 -12   8  354.56   35.10
   1 -12   8  284.57   29.90
   1 -12   8  236.88   30.60
   1 -12   8  436.46   33.60
  -2  12  -8  104.49   22.50
  -2  12  -8  160.48   22.10
  -2  12  -8  183.78   13.70
   2 -12   8  206.38   27.80
   2 -12   8  145.09   21.00
   2 -12   8  123.09   21.20
   2 -12   8  203.68   27.30
   2  11  -8   57.49   16.60
   2  11  -8   41.60   16.40
   2  11  -8   75.89   21.30
  -2 -11   8   40.80   15.40
  -2 -11   8   52.59   19.00
  -2 -11   8   45.00   19.80
  -2 -11   8   97.39   19.50
   1  11  -8  272.67   26.00
   1  11  -8  299.27   28.00
   1  11  -8  239.08   19.20
   1  11  -8  337.27   34.70
  -1 -11   8  335.57   31.30
  -1 -11   8  359.46   31.50
  -1 -11   8  236.68   30.20
  -1 -11   8  286.47   26.00
   0  11  -8   -8.40   14.40
   0  11  -8  -13.70   13.90
   0  11  -8  -10.20    9.10
   0  11  -8   11.40   17.50
   0 -11   8  -20.20   13.10
   0 -11   8    0.50   15.80
   0 -11   8   18.20   16.20
   0 -11   8   15.20   17.40
  -1  11  -8    0.80   15.20
  -1  11  -8    1.40   15.40
  -1  11  -8  -13.60   17.50
  -1  11  -8    7.90    7.80
   1 -11   8    1.50   15.50
   1 -11   8    7.60   15.90
   1 -11   8    4.30   18.00
   1 -11   8    0.50   13.50
  -2  11  -8  533.25   38.60
  -2  11  -8  517.25   34.70
  -2  11  -8  505.35   33.60
  -2  11  -8  498.45   22.50
   2 -11   8  594.34   37.20
   2 -11   8  619.94   38.90
   2 -11   8  518.35   32.00
   2 -11   8  478.75   36.90
  -3  11  -8  129.49   21.20
  -3  11  -8  115.79   18.90
  -3  11  -8   77.49   22.30
   3 -11   8   80.39   23.20
   3 -11   8   63.69   20.70
   3 -11   8   92.89   21.80
  -4  11  -8   64.29   21.50
  -4  11  -8   82.19   20.70
  -4  11  -8   67.69   19.90
   4 -11   8  122.69   23.20
   4 -11   8   86.79   24.60
   4 -11   8  117.69   22.50
   3  10  -8  -14.10   14.40
   3  10  -8   30.20   17.30
   3  10  -8    1.40   16.30
  -3 -10   8   -7.30   16.50
  -3 -10   8   19.80   17.10
  -3 -10   8    0.90   16.10
  -3 -10   8    4.10   12.30
   2  10  -8  324.47   31.80
   2  10  -8  294.47   28.70
   2  10  -8  310.47   28.40
  -2 -10   8  294.47   28.90
  -2 -10   8  357.46   29.40
  -2 -10   8  288.07   24.60
  -2 -10   8  283.47   28.60
   1  10  -8   31.40   14.00
   1  10  -8   16.30   15.30
   1  10  -8    9.70   17.50
   1  10  -8   19.70    9.20
  -1 -10   8   21.60   15.20
  -1 -10   8   23.50   17.30
  -1 -10   8   38.60   15.40
  -1 -10   8   37.80   12.00
   0  10  -8  263.97   26.10
   0  10  -8  333.67   30.40
   0  10  -8  247.48   23.90
   0  10  -8  283.37   17.40
   0 -10   8  249.68   22.40
   0 -10   8  303.97   28.10
   0 -10   8  283.97   26.10
   0 -10   8  249.97   26.00
  -1  10  -8   20.10    7.80
  -1  10  -8   11.30   15.50
  -1  10  -8   39.20   17.40
  -1  10  -8   27.60   13.70
   1 -10   8   44.80   16.80
   1 -10   8    9.90   16.90
   1 -10   8    2.40   11.80
   1 -10   8   58.39   16.70
  -2  10  -8   23.20    8.00
  -2  10  -8   -1.70   15.20
  -2  10  -8   20.30   14.00
  -2  10  -8   37.60   18.40
   2 -10   8   25.50   18.30
   2 -10   8   12.10   12.80
   2 -10   8   58.09   17.00
   2 -10   8   36.10   18.30
  -3  10  -8  200.28   21.70
  -3  10  -8  151.48   22.40
  -3  10  -8  243.08   27.60
   3 -10   8  205.28   25.00
   3 -10   8  287.77   27.40
   3 -10   8  292.37   31.40
  -4  10  -8   96.59   19.70
  -4  10  -8   96.89   19.20
  -4  10  -8   87.99   22.40
   4 -10   8   64.09   19.30
   4 -10   8   75.39   20.40
   4 -10   8   71.69   20.20
  -5  10  -8   73.69   19.50
  -5  10  -8   38.50   21.30
   5 -10   8   21.80   22.20
   5 -10   8   36.80   20.70
   5 -10   8   47.30   18.80
   4   9  -8  349.57   31.20
   4   9  -8  339.77   30.40
   4   9  -8  376.96   30.50
  -4  -9   8  413.06   31.90
  -4  -9   8  363.76   33.70
  -4  -9   8  362.76   31.20
  -4  -9   8  295.37   27.90
   3   9  -8   50.29   15.60
   3   9  -8   77.69   19.10
   3   9  -8   57.59   17.30
  -3  -9   8   80.69   17.20
  -3  -9   8   63.89   15.90
  -3  -9   8   91.29   19.60
  -3  -9   8   78.39   13.90
   2   9  -8  -16.40   12.70
   2   9  -8   -6.70   13.20
   2   9  -8   -3.00   14.50
  -2  -9   8   -8.20   12.90
  -2  -9   8    1.00   14.40
  -2  -9   8  -20.50   10.20
  -2  -9   8    4.40   13.10
   1   9  -8  424.26   21.70
   1   9  -8  465.25   29.30
   1   9  -8  432.26   28.50
   1   9  -8  461.15   29.90
  -1  -9   8  496.65   25.80
  -1  -9   8  447.46   29.70
  -1  -9   8  426.76   31.90
  -1  -9   8  441.46   29.20
   0   9  -8  743.93   39.10
   0   9  -8  718.63   28.50
   0   9  -8  692.93   35.80
   0   9  -8  726.23   36.30
   0  -9   8  730.23   32.60
   0  -9   8  721.23   38.20
   0  -9   8  714.93   35.90
   0  -9   8  769.92   37.10
  -1   9  -8   10.90   13.40
  -1   9  -8   23.70   15.90
  -1   9  -8   26.90   12.90
  -1   9  -8   27.80    7.70
   1  -9   8    3.80   10.20
   1  -9   8   12.20   15.00
   1  -9   8   36.80   14.50
   1  -9   8    7.20   15.00
  -2   9  -8   -0.70   14.20
  -2   9  -8    8.20   16.10
  -2   9  -8    0.10    7.70
  -2   9  -8    2.40   13.20
   2  -9   8   -3.20   10.00
   2  -9   8  -23.60   13.70
   2  -9   8  -18.00   13.30
   2  -9   8    6.30   14.40
  -3   9  -8  596.74   39.30
  -3   9  -8  628.74   34.50
  -3   9  -8  754.52   37.20
   3  -9   8  675.43   38.90
   3  -9   8  700.63   37.60
   3  -9   8  688.93   39.40
  -4   9  -8  -23.10   16.80
  -4   9  -8    9.50   14.30
  -4   9  -8    8.90    7.60
  -4   9  -8  -15.60   15.70
   4  -9   8  -11.50   17.70
   4  -9   8   11.30   16.10
   4  -9   8   20.10   15.80
  -5   9  -8  258.17   30.00
  -5   9  -8  239.08   31.00
  -5   9  -8  293.47   33.10
   5  -9   8  237.98   26.10
   5  -9   8  258.07   28.70
   5  -9   8  225.08   29.20
   5   8  -8  108.89   20.10
   5   8  -8  129.09   18.90
   5   8  -8   99.09   18.90
  -5  -8   8   93.99   19.50
  -5  -8   8  159.68   21.10
  -5  -8   8  128.09   19.40
  -5  -8   8  103.89   22.00
   4   8  -8  259.37   27.10
   4   8  -8  271.87   26.80
   4   8  -8  316.57   29.30
  -4  -8   8  271.57   27.10
  -4  -8   8  299.17   27.20
  -4  -8   8  273.57   25.90
   3   8  -8  492.75   30.80
   3   8  -8  579.14   32.80
   3   8  -8  538.45   32.50
  -3  -8   8  515.05   31.30
  -3  -8   8  549.35   31.30
  -3  -8   8  570.34   35.10
   2   8  -8  104.99   16.40
   2   8  -8   86.99   10.80
   2   8  -8  100.79   16.20
   2   8  -8  104.79   16.70
  -2  -8   8   58.19   15.40
  -2  -8   8   88.59   12.70
  -2  -8   8   78.49   13.70
  -2  -8   8   92.49   15.70
   1   8  -8  279.87   24.80
   1   8  -8  215.48   22.90
   1   8  -8  214.98   15.20
   1   8  -8  201.98   22.70
  -1  -8   8  208.88   17.90
  -1  -8   8  225.88   21.90
  -1  -8   8  202.18   21.90
  -1  -8   8  204.58   21.30
   0   8  -8   90.09   16.00
   0   8  -8  108.29   16.30
   0   8  -8   91.39   15.60
   0   8  -8  104.19   10.20
   0  -8   8   71.69   14.00
   0  -8   8  102.19   16.60
   0  -8   8   84.59   14.70
   0  -8   8  107.69   11.80
  -1   8  -8  617.34   32.20
  -1   8  -8  671.43   33.80
  -1   8  -8  648.74   26.30
  -1   8  -8  774.12   37.30
   1  -8   8  640.94   33.50
   1  -8   8  716.53   33.80
   1  -8   8  617.34   29.00
   1  -8   8  760.42   35.40
  -2   8  -8   -4.00    7.70
  -2   8  -8   -6.40   12.30
  -2   8  -8   -5.60   11.30
  -2   8  -8  -11.60   13.20
   2  -8   8    4.40    8.20
   2  -8   8  -13.20   12.20
   2  -8   8   -5.40   12.70
   2  -8   8   -8.20   13.60
  -3   8  -8    2.90   13.50
  -3   8  -8   -3.20   12.00
  -3   8  -8  -17.30   14.80
   3  -8   8    0.30   14.10
   3  -8   8   11.80   15.40
   3  -8   8   -7.10   14.30
  -4   8  -8  348.57   26.90
  -4   8  -8  346.07   16.80
  -4   8  -8  308.67   27.50
  -4   8  -8  343.97   27.60
   4  -8   8  340.87   29.30
   4  -8   8  412.56   31.30
   4  -8   8  340.07   27.50
  -5   8  -8  244.68   29.90
  -5   8  -8  267.27   28.10
  -5   8  -8  219.98   25.70
   5  -8   8  217.78   22.50
   5  -8   8  227.28   26.90
   5  -8   8  222.58   25.70
  -6   8  -8    9.50    5.80
  -6   8  -8   11.90   19.30
  -6   8  -8    2.80   17.90
  -6   8  -8   34.70   17.80
   6  -8   8   29.10   19.40
   6  -8   8   -6.10    4.30
   6  -8   8  -15.30   17.30
   6  -8   8   -3.80   17.10
   5   7  -8   20.60   14.10
   5   7  -8    7.20    5.10
   5   7  -8   16.80   13.80
   5   7  -8  -14.60   15.50
  -5  -7   8    3.40    4.90
  -5  -7   8  -28.80   16.00
  -5  -7   8    2.90   13.90
  -5  -7   8   20.70   14.00
  -5  -7   8    1.10   12.90
   4   7  -8   -6.60    5.30
   4   7  -8  -20.10   11.90
   4   7  -8   -0.10   12.70
   4   7  -8   -7.80   12.40
  -4  -7   8   -7.60    7.30
  -4  -7   8   -3.20   13.00
  -4  -7   8   -3.00   12.60
  -4  -7   8   19.60   14.30
   3   7  -8  804.12   38.30
   3   7  -8  839.92   38.70
   3   7  -8  815.02   37.00
  -3  -7   8  842.22   36.90
  -3  -7   8  792.22   38.40
  -3  -7   8  819.92   37.00
   2   7  -8  157.38   19.30
   2   7  -8  143.79   13.70
   2   7  -8  192.18   21.90
   2   7  -8  160.48   20.40
  -2  -7   8  162.88   20.60
  -2  -7   8  192.88   19.90
  -2  -7   8  174.78   17.50
   1   7  -8  407.26   27.00
   1   7  -8  391.76   26.10
   1   7  -8  420.26   25.00
   1   7  -8  411.76   19.40
  -1  -7   8  432.36   25.20
  -1  -7   8  435.46   21.30
  -1  -7   8  394.76   23.30
  -1  -7   8  368.46   27.00
   0   7  -8  158.88   17.10
   0   7  -8  183.28   22.10
   0   7  -8  172.48   13.20
   0   7  -8  173.78   20.70
   0  -7   8  155.48   19.20
   0  -7   8  164.98   20.00
   0  -7   8  135.99   17.60
   0  -7   8  162.88   14.40
  -1   7  -8 1141.99   46.80
  -1   7  -8 1140.09   45.90
  -1   7  -8 1139.79   40.30
  -1   7  -8 1158.28   46.60
   1  -7   8 1217.48   47.00
   1  -7   8 1150.08   46.30
   1  -7   8 1075.89   41.40
   1  -7   8 1207.48   47.00
  -2   7  -8  512.25   28.10
  -2   7  -8  534.55   29.20
  -2   7  -8  532.15   31.70
  -2   7  -8  582.44   24.40
   2  -7   8  535.55   31.00
   2  -7   8  569.84   30.30
   2  -7   8  546.65   22.60
   2  -7   8  543.35   30.60
  -3   7  -8   39.80   13.10
  -3   7  -8   60.39   16.20
  -3   7  -8   32.20   12.40
   3  -7   8   62.59   15.30
   3  -7   8   76.19   15.70
   3  -7   8   58.89   14.00
  -4   7  -8  360.66   26.90
  -4   7  -8  363.66   27.20
  -4   7  -8  384.86   15.80
  -4   7  -8  443.26   28.60
   4  -7   8  323.07   28.10
   4  -7   8  383.96   17.00
   4  -7   8  384.46   26.60
   4  -7   8  347.27   26.40
  -5   7  -8   23.80   15.70
  -5   7  -8    1.00    3.90
  -5   7  -8   18.80   14.40
  -5   7  -8   -0.40   16.10
   5  -7   8   24.40   15.10
   5  -7   8   25.50   14.50
   5  -7   8   10.70   16.90
   5  -7   8    8.70    5.80
  -6   7  -8  440.36   34.00
  -6   7  -8  449.46   33.30
  -6   7  -8  419.96   35.20
   6  -7   8  368.96   32.40
   6  -7   8  418.56   34.80
   6  -7   8  397.26   33.40
   6   6  -8  163.48   19.60
   6   6  -8  218.38   22.50
   6   6  -8  165.48   21.10
  -6  -6   8  136.59   18.80
  -6  -6   8  234.18   26.50
  -6  -6   8  186.78   23.50
  -6  -6   8  181.18   23.50
   5   6  -8  937.41   41.30
   5   6  -8  883.11   40.40
   5   6  -8  967.20   41.80
  -5  -6   8  839.42   42.80
  -5  -6   8  983.10   40.70
  -5  -6   8  833.02   41.20
  -5  -6   8  875.91   39.90
  -5  -6   8  862.01   32.40
   4   6  -8   65.39   14.50
   4   6  -8   70.49    7.10
   4   6  -8   69.29   13.90
   4   6  -8   77.99   13.80
  -4  -6   8   61.09   13.50
  -4  -6   8   64.89   14.30
  -4  -6   8   58.19    9.20
  -4  -6   8   57.29   13.40
   3   6  -8   23.40   11.30
   3   6  -8    0.60    7.80
   3   6  -8    4.80   11.20
   3   6  -8    1.60   11.50
  -3  -6   8    7.90    9.50
  -3  -6   8   10.40   10.60
  -3  -6   8    2.10   11.80
   2   6  -8  814.12   35.10
   2   6  -8  857.11   36.30
   2   6  -8  847.22   36.00
   2   6  -8  735.83   30.80
  -2  -6   8  791.02   36.40
  -2  -6   8  821.82   34.40
  -2  -6   8  809.92   33.50
   1   6  -8   57.99    8.20
   1   6  -8   64.59   12.60
   1   6  -8   49.80   12.80
   1   6  -8   41.20   11.90
  -1  -6   8   67.99   13.10
  -1  -6   8   45.90   11.30
  -1  -6   8   46.10   10.10
   0   6  -8   -1.50   10.00
   0   6  -8   -6.40    9.40
   0   6  -8    9.50   10.80
   0   6  -8    4.30    6.60
   0  -6   8    1.10   10.10
   0  -6   8    4.30    6.00
   0  -6   8   10.90    9.40
   0  -6   8  -13.00    8.90
  -1   6  -8  263.17   20.30
  -1   6  -8  250.57   15.00
  -1   6  -8  264.37   20.30
  -1   6  -8  275.57   20.70
   1  -6   8  257.07   19.30
   1  -6   8  259.17   20.60
   1  -6   8  234.78   19.70
   1  -6   8  237.68   14.70
  -2   6  -8  183.98   17.90
  -2   6  -8  233.28   22.10
  -2   6  -8  211.78   19.70
   2  -6   8  214.38   13.20
   2  -6   8  183.08   18.60
   2  -6   8  213.68   20.10
   2  -6   8  206.18   18.60
  -3   6  -8  508.65   28.30
  -3   6  -8  426.06   27.30
  -3   6  -8  466.95   27.30
   3  -6   8  515.05   20.80
   3  -6   8  503.15   28.20
   3  -6   8  572.34   29.00
   3  -6   8  473.95   28.60
  -4   6  -8   -1.00   12.60
  -4   6  -8  -20.00   13.90
  -4   6  -8  -13.80   12.10
  -4   6  -8    4.80    3.70
   4  -6   8   10.40   11.50
   4  -6   8    1.30   12.40
   4  -6   8   -1.80   12.00
   4  -6   8    4.40    7.10
  -5   6  -8  111.49   17.40
  -5   6  -8  114.59   17.80
  -5   6  -8  136.29   17.80
   5  -6   8  120.39   17.80
   5  -6   8  135.89   18.60
   5  -6   8  113.59   13.40
   5  -6   8   93.89   16.10
  -6   6  -8  207.68   23.00
  -6   6  -8  164.28   20.70
  -6   6  -8  182.68   21.20
   6  -6   8  183.08   21.40
   6  -6   8  180.08   22.70
   6  -6   8  182.18   23.60
   6   5  -8   52.59   15.40
   6   5  -8   76.59   16.90
   6   5  -8   30.30   15.90
  -6  -5   8   61.09   14.90
  -6  -5   8   45.10   16.50
  -6  -5   8   58.69    9.10
  -6  -5   8   39.10   14.00
  -6  -5   8   48.50   13.30
   5   5  -8  558.74   28.80
   5   5  -8  583.04   31.00
   5   5  -8  580.84   31.60
  -5  -5   8  545.45   28.90
  -5  -5   8  589.04   30.30
  -5  -5   8  588.34   31.40
  -5  -5   8  563.74   32.60
  -5  -5   8  546.55   23.50
   4   5  -8  147.59   18.00
   4   5  -8  172.58   20.10
   4   5  -8  164.58   17.60
   4   5  -8  159.18    8.30
   4   5  -8  164.68   16.00
  -4  -5   8  163.78   18.50
  -4  -5   8  188.08   19.10
  -4  -5   8  145.29   14.10
  -4  -5   8  157.58   16.20
  -4  -5   8  137.69   15.30
   3   5  -8  197.18   20.40
   3   5  -8  231.38   20.40
   3   5  -8  216.48   17.80
   3   5  -8  218.28   15.10
  -3  -5   8  222.78   21.00
  -3  -5   8  232.28   18.00
  -3  -5   8  206.68   18.60
   2   5  -8  654.73   30.20
   2   5  -8  668.53   30.20
   2   5  -8  648.24   26.20
   2   5  -8  634.84   30.50
  -2  -5   8  650.63   28.60
  -2  -5   8  667.23   28.80
  -2  -5   8  599.14   30.20
   1   5  -8  -13.10    9.00
   1   5  -8  -11.80    9.00
   1   5  -8  -15.50   10.00
   1   5  -8   -4.90    6.40
  -1  -5   8   -5.20    9.30
  -1  -5   8   -2.70    8.30
  -1  -5   8    0.00    8.30
   0   5  -8 1598.84   56.89
   0   5  -8 1509.85   56.89
   0   5  -8 1511.25   53.09
   0   5  -8 1670.43   57.09
   0  -5   8 1664.73   57.49
   0  -5   8 1566.14   55.99
   0  -5   8 1535.35   55.59
   0  -5   8 1578.24   51.89
  -1   5  -8  136.59   15.70
  -1   5  -8  138.49   14.90
  -1   5  -8  161.18   17.40
  -1   5  -8  143.89   12.50
   1  -5   8  132.59   10.10
   1  -5   8  148.49   14.80
   1  -5   8  146.19   12.30
   1  -5   8  147.19   16.20
   1  -5   8  170.08   17.00
  -2   5  -8   99.69   13.00
  -2   5  -8   96.39   12.30
  -2   5  -8  102.69   13.30
   2  -5   8  139.69   17.30
   2  -5   8   96.89   13.80
   2  -5   8  115.69   11.60
   2  -5   8  106.19   13.20
  -3   5  -8 1231.68   47.50
  -3   5  -8 1277.27   47.70
  -3   5  -8 1231.28   47.80
   3  -5   8 1166.28   47.10
   3  -5   8 1258.07   43.20
   3  -5   8 1265.07   47.80
   3  -5   8 1245.18   47.20
  -4   5  -8  187.58   20.60
  -4   5  -8  211.78   20.40
  -4   5  -8  200.68   19.30
   4  -5   8  193.68   14.90
   4  -5   8  198.08   19.30
   4  -5   8  198.08   20.90
   4  -5   8  180.78   21.40
  -5   5  -8   30.70   15.30
  -5   5  -8   31.10   14.60
  -5   5  -8   29.80   13.60
   5  -5   8   45.50   14.10
   5  -5   8   29.70    9.20
   5  -5   8   31.50   14.60
   5  -5   8   25.20   13.80
  -6   5  -8  164.18   19.70
  -6   5  -8  198.58   24.00
  -6   5  -8  129.29   20.00
  -6   5  -8  148.19   16.00
   6  -5   8  113.59   17.80
   6  -5   8  163.98   17.90
   6  -5   8  127.59   18.30
   6  -5   8  158.28   19.50
   6   4  -8  122.09   16.20
   6   4  -8  158.98   19.30
   6   4  -8  125.79   17.30
  -6  -4   8  122.29   15.80
  -6  -4   8  139.49   14.70
  -6  -4   8  160.78   18.30
  -6  -4   8  169.88   17.60
  -6  -4   8  183.28   19.80
   5   4  -8  901.01   38.20
   5   4  -8  890.01   38.70
   5   4  -8  859.21   35.60
  -5  -4   8  900.01   38.30
  -5  -4   8  892.01   38.20
  -5  -4   8  950.10   37.80
  -5  -4   8  899.71   36.30
  -5  -4   8  857.51   33.20
   4   4  -8  617.44   27.20
   4   4  -8  662.93   30.00
   4   4  -8  631.44   28.20
  -4  -4   8  596.34   29.40
  -4  -4   8  623.74   28.40
  -4  -4   8  622.54   25.80
  -4  -4   8  619.34   28.40
   3   4  -8   70.49   11.10
   3   4  -8   75.49   11.40
   3   4  -8   88.69   10.40
   3   4  -8   76.59   11.40
  -3  -4   8   70.99   10.30
  -3  -4   8   88.49   13.20
  -3  -4   8   94.99   12.40
   2   4  -8  331.97   21.20
   2   4  -8  304.27   16.80
   2   4  -8  283.47   20.20
   2   4  -8  317.37   18.60
  -2  -4   8  329.07   18.50
  -2  -4   8  310.17   18.50
  -2  -4   8  323.77   21.20
   1   4  -8  269.57   17.20
   1   4  -8  285.27   14.70
   1   4  -8  210.18   19.20
   1   4  -8  228.28   18.90
  -1  -4   8  285.27   17.50
  -1  -4   8  247.58   19.60
  -1  -4   8  275.67   16.90
   0   4  -8  202.68   13.50
   0   4  -8  202.68   15.70
   0   4  -8  210.08   17.60
   0   4  -8  192.98   17.00
   0  -4   8  220.88   14.00
   0  -4   8  170.98   15.40
   0  -4   8  214.48   16.20
   0  -4   8  188.68   15.90
  -1   4  -8  125.29   14.10
  -1   4  -8  128.29   12.60
  -1   4  -8  119.69   15.00
  -1   4  -8  149.29   15.00
   1  -4   8  123.89   14.10
   1  -4   8  148.89   14.90
   1  -4   8  120.79   12.20
   1  -4   8  145.19   14.70
   1  -4   8  131.19    7.10
  -2   4  -8   15.40    8.60
  -2   4  -8   10.90    9.30
  -2   4  -8   17.50    9.70
   2  -4   8   26.20    9.90
   2  -4   8   15.80    9.10
   2  -4   8   13.10    9.00
   2  -4   8   20.50    7.80
  -3   4  -8  266.37   19.80
  -3   4  -8  237.78   18.40
  -3   4  -8  202.98   17.10
   3  -4   8  254.87   19.20
   3  -4   8  217.68   19.00
   3  -4   8  221.98   17.60
   3  -4   8  237.08   15.30
  -4   4  -8   30.10   11.40
  -4   4  -8   20.70   10.90
  -4   4  -8   27.50   11.90
   4  -4   8   27.00   11.80
   4  -4   8   16.30    8.80
   4  -4   8   34.10   11.70
   4  -4   8   24.70   11.00
  -5   4  -8  162.48   17.90
  -5   4  -8  182.58   21.50
  -5   4  -8  155.48   18.60
  -5   4  -8  183.58   17.10
   5  -4   8  160.78   19.40
   5  -4   8  181.48   18.60
   5  -4   8  163.78   17.10
   5  -4   8  193.88   21.40
  -6   4  -8   -5.30   11.00
  -6   4  -8  -16.90   14.70
  -6   4  -8    8.60   14.50
  -6   4  -8    2.90    4.10
  -6   4  -8   -4.50   13.40
   6  -4   8    9.60   11.60
   6  -4   8   14.40   13.70
   6  -4   8  -13.40   13.90
   6  -4   8    8.90   13.50
   7   3  -8   21.90   15.70
   7   3  -8  -13.20   12.70
   7   3  -8   35.20   24.30
   7   3  -8   12.90   14.70
  -7  -3   8   22.30   14.20
  -7  -3   8  -18.10   12.70
  -7  -3   8   -5.50   11.00
  -7  -3   8   12.40   16.30
   6   3  -8   72.29   14.60
   6   3  -8   80.39   14.40
   6   3  -8   54.69   15.60
   6   3  -8   70.69   14.20
  -6  -3   8   71.19   14.10
  -6  -3   8   68.39   14.60
  -6  -3   8   88.89   10.70
  -6  -3   8   56.89   12.90
  -6  -3   8   92.59   13.90
   5   3  -8   15.40    9.40
   5   3  -8    9.60   10.30
   5   3  -8   20.00   11.10
  -5  -3   8    7.30    9.10
  -5  -3   8    7.20    9.00
  -5  -3   8   21.70   10.30
  -5  -3   8   19.70    8.00
  -5  -3   8   30.30   11.70
   4   3  -8  110.59   12.70
   4   3  -8  115.09   15.00
   4   3  -8  123.49   14.60
   4   3  -8  131.19   15.90
  -4  -3   8  130.89   14.10
  -4  -3   8  105.79   12.40
  -4  -3   8  128.89   14.60
  -4  -3   8   99.59   10.70
   3   3  -8  683.83   27.20
   3   3  -8  590.24   27.80
   3   3  -8  676.73   28.00
   3   3  -8  634.14   20.90
   3   3  -8  641.14   26.50
  -3  -3   8  636.74   26.70
  -3  -3   8  615.04   26.80
  -3  -3   8  659.83   28.50
   2   3  -8  888.01   35.90
   2   3  -8  946.21   35.60
   2   3  -8  955.60   34.60
   2   3  -8  970.70   30.80
   2   3  -8  946.11   37.00
  -2  -3   8  924.41   34.70
  -2  -3   8  939.81   34.70
  -2  -3   8  854.81   36.00
   1   3  -8 1132.89   38.70
   1   3  -8  957.50   40.40
   1   3  -8 1092.29   40.00
   1   3  -8 1027.30   40.40
  -1  -3   8 1103.09   39.00
  -1  -3   8 1067.69   40.60
  -1  -3   8 1093.79   39.00
   0   3  -8  556.44   25.20
   0   3  -8  546.25   24.70
   0   3  -8  577.94   24.90
   0   3  -8  528.15   23.00
   0  -3   8  520.35   23.00
   0  -3   8  521.25   23.50
   0  -3   8  586.44   25.20
   0  -3   8  513.35   23.30
  -1   3  -8 1372.26   49.30
  -1   3  -8 1405.46   48.70
  -1   3  -8 1445.56   49.40
  -1   3  -8 1416.36   49.30
   1  -3   8 1345.87   49.70
   1  -3   8 1330.47   48.20
   1  -3   8 1399.26   48.20
   1  -3   8 1425.56   48.70
  -2   3  -8   90.29   11.30
  -2   3  -8   57.89    9.40
  -2   3  -8   62.49    9.70
   2  -3   8   87.89   11.40
   2  -3   8   73.29    9.50
   2  -3   8   66.09    9.40
   2  -3   8   77.29    9.70
  -3   3  -8    7.70    8.10
  -3   3  -8   -3.40    8.60
  -3   3  -8    0.90    8.80
  -3   3  -8    4.40    8.60
   3  -3   8    4.20    8.30
   3  -3   8    9.10    9.60
   3  -3   8   15.70    8.80
   3  -3   8   22.30    9.50
  -4   3  -8  904.11   38.50
  -4   3  -8  917.81   37.20
  -4   3  -8  920.41   36.10
   4  -3   8  898.51   35.30
   4  -3   8  906.01   36.70
   4  -3   8  895.31   37.20
   4  -3   8  919.21   37.50
  -5   3  -8   10.50   10.10
  -5   3  -8   18.10   12.70
  -5   3  -8   28.10   13.70
   5  -3   8   25.00   11.10
   5  -3   8   21.70   12.30
   5  -3   8   20.40   12.20
   5  -3   8   30.90   12.10
  -6   3  -8    2.80   12.20
  -6   3  -8   -6.00   15.10
  -6   3  -8    1.70   14.00
  -6   3  -8  -13.70   13.50
   6  -3   8   -5.10   14.10
   6  -3   8   19.20   12.60
   6  -3   8   15.70   14.40
   6  -3   8   13.30   13.60
   7   2  -8  605.64   32.60
   7   2  -8  611.94   32.10
   7   2  -8  630.64   35.10
   7   2  -8  673.43   32.40
  -7  -2   8  551.54   30.60
  -7  -2   8  619.34   34.60
  -7  -2   8  706.63   37.60
  -7  -2   8  647.24   32.60
  -7  -2   8  627.14   33.80
   6   2  -8   33.90   12.00
   6   2  -8   48.00   12.40
   6   2  -8   53.89   13.10
  -6  -2   8   39.80   10.60
  -6  -2   8   29.00   10.90
  -6  -2   8   49.99   10.00
  -6  -2   8   32.10   11.70
  -6  -2   8   59.39   12.30
   5   2  -8   25.20   10.00
   5   2  -8   21.80    9.70
   5   2  -8   47.10   10.30
  -5  -2   8   24.80    8.60
  -5  -2   8   12.10    9.80
  -5  -2   8   35.30    8.90
  -5  -2   8   30.30    9.00
  -5  -2   8   29.80    8.70
   4   2  -8  617.54   26.30
   4   2  -8  596.84   26.00
   4   2  -8  632.54   26.30
   4   2  -8  569.34   25.80
  -4  -2   8  574.34   25.60
  -4  -2   8  558.44   26.30
  -4  -2   8  531.25   24.80
  -4  -2   8  617.74   25.30
  -4  -2   8  610.44   25.50
   3   2  -8   13.60    7.50
   3   2  -8   23.00    7.70
   3   2  -8   18.50    2.80
   3   2  -8   22.20    8.40
   3   2  -8   25.40    7.90
  -3  -2   8   16.90    7.80
  -3  -2   8   19.90    7.00
  -3  -2   8   25.50    8.10
  -3  -2   8   26.40    7.00
   2   2  -8    5.40    6.70
   2   2  -8    8.40    3.80
   2   2  -8    3.40    6.90
   2   2  -8    3.90    6.60
   2   2  -8   -1.90    7.50
  -2  -2   8    6.30    6.20
  -2  -2   8    9.40    6.80
  -2  -2   8    6.50    6.10
   1   2  -8  114.89   13.70
   1   2  -8  139.19    9.20
   1   2  -8  123.49   13.30
   1   2  -8  131.79   12.00
   1   2  -8  131.19   12.80
  -1  -2   8  131.49   12.20
  -1  -2   8  133.59   12.80
  -1  -2   8  138.19   11.40
  -1  -2   8  131.99   12.00
   0   2  -8    3.10    6.80
   0   2  -8    4.30    6.80
   0   2  -8    5.10    6.90
   0   2  -8    0.20    7.20
   0   2  -8    6.70    5.50
   0  -2   8    2.50    5.70
   0  -2   8    1.70    7.40
   0  -2   8    4.20    6.00
   0  -2   8   11.30    7.10
  -1   2  -8  196.28   14.00
  -1   2  -8  182.68   14.30
  -1   2  -8  170.38   12.70
  -1   2  -8  177.68   14.00
   1  -2   8  186.28   14.10
   1  -2   8  204.98   13.10
   1  -2   8  157.28   13.70
   1  -2   8  193.68   13.50
  -2   2  -8    5.10    7.90
  -2   2  -8    7.80    7.80
  -2   2  -8    8.10    7.30
  -2   2  -8   10.80    7.80
   2  -2   8    6.40    7.10
   2  -2   8   21.60    8.50
   2  -2   8   10.40    7.30
   2  -2   8    0.10    7.30
  -3   2  -8  274.97   18.80
  -3   2  -8  259.27   18.00
  -3   2  -8  276.47   17.90
  -3   2  -8  273.77   17.00
   3  -2   8  283.57   18.30
   3  -2   8  273.87   17.90
   3  -2   8  252.57   17.30
   3  -2   8  289.47   18.00
  -4   2  -8   32.70    9.80
  -4   2  -8   34.40   10.60
  -4   2  -8   37.00   10.40
   4  -2   8   24.80    9.40
   4  -2   8   28.80   10.70
   4  -2   8   38.90   10.70
   4  -2   8   35.40   10.00
  -5   2  -8   27.70   11.10
  -5   2  -8   45.80   12.30
  -5   2  -8   59.09   14.60
  -5   2  -8   35.50    4.60
   5  -2   8   51.69   12.50
   5  -2   8   20.90   12.70
   5  -2   8   31.80   12.20
  -6   2  -8  340.97   26.20
  -6   2  -8  350.06   27.40
  -6   2  -8  299.37   24.30
  -6   2  -8  253.67   26.10
  -6   2  -8  264.67   26.30
   6  -2   8  293.57   27.10
   6  -2   8  313.17   26.50
   6  -2   8  318.77   25.60
   7   1  -8   12.90   13.20
   7   1  -8    7.10   13.00
   7   1  -8   18.90   12.80
   7   1  -8    1.40   13.00
  -7  -1   8   -2.30   11.20
  -7  -1   8    1.90    9.90
  -7  -1   8   -1.60   11.70
  -7  -1   8   -9.80   11.30
  -7  -1   8    6.20   13.40
   6   1  -8   26.10   11.70
   6   1  -8   28.00   11.10
   6   1  -8   13.40   10.90
   6   1  -8   17.30   11.50
  -6  -1   8    9.50   10.60
  -6  -1   8   34.30   10.00
  -6  -1   8    8.10    9.00
  -6  -1   8    4.30    8.50
  -6  -1   8   29.70   10.10
   5   1  -8  771.52   31.40
   5   1  -8  745.33   31.80
   5   1  -8  747.23   32.10
   5   1  -8  775.52   32.20
  -5  -1   8  792.12   30.80
  -5  -1   8  777.02   30.70
  -5  -1   8  754.72   30.70
  -5  -1   8  814.32   32.30
  -5  -1   8  771.02   31.20
   4   1  -8   15.50    7.40
   4   1  -8   13.80    8.20
   4   1  -8   14.70    7.30
   4   1  -8   -2.30    8.70
  -4  -1   8    9.60    7.90
  -4  -1   8   14.10    7.00
  -4  -1   8   15.00    6.80
  -4  -1   8   15.30    7.60
  -4  -1   8   16.70    6.90
   3   1  -8   94.19   11.00
   3   1  -8   89.39    9.20
   3   1  -8   96.99   11.60
   3   1  -8  101.99   11.50
  -3  -1   8  104.79   10.90
  -3  -1   8   71.39    9.50
  -3  -1   8   93.79   10.70
   2   1  -8 1671.13   57.29
   2   1  -8 1663.93   56.59
   2   1  -8 1692.03   53.99
   2   1  -8 1718.83   56.99
   2   1  -8 1654.53   56.19
  -2  -1   8 1809.12   58.19
  -2  -1   8 1723.73   56.09
  -2  -1   8 1672.83   55.89
  -2  -1   8 1596.04   55.89
   1   1  -8   67.79    9.40
   1   1  -8   98.69   11.80
   1   1  -8   96.39   10.60
   1   1  -8   88.59   10.50
   1   1  -8  101.19    9.10
  -1  -1   8  108.89   10.30
  -1  -1   8  106.79   12.60
  -1  -1   8   99.09    9.70
  -1  -1   8   94.59   10.50
   0   1  -8  213.38   15.30
   0   1  -8  197.88   13.70
   0   1  -8  211.18   12.00
   0   1  -8  199.28   13.00
   0   1  -8  200.68   13.70
   0  -1   8  208.08    9.50
   0  -1   8  191.18   12.00
   0  -1   8  168.78   13.90
   0  -1   8  197.98   12.00
   0  -1   8  208.38   13.50
  -1   1  -8 1035.10   36.90
  -1   1  -8 1009.60   36.90
  -1   1  -8 1033.40   37.20
  -1   1  -8 1039.20   36.50
   1  -1   8 1064.39   36.50
   1  -1   8  971.70   37.10
   1  -1   8 1082.69   38.40
   1  -1   8 1039.60   36.30
  -2   1  -8  139.49   13.00
  -2   1  -8  107.19   12.70
  -2   1  -8  131.89   13.40
  -2   1  -8  155.78   13.20
   2  -1   8  134.49   13.20
   2  -1   8  133.19   14.30
   2  -1   8  149.09   13.00
   2  -1   8  138.59   12.60
  -3   1  -8   -9.90    7.60
  -3   1  -8    0.50    8.20
  -3   1  -8   -7.10    8.30
  -3   1  -8   -1.80    7.50
   3  -1   8   -1.30    9.00
   3  -1   8  -12.20    6.80
   3  -1   8    4.10    7.50
   3  -1   8   10.60    8.00
  -4   1  -8  206.58   17.60
  -4   1  -8  214.88   17.20
  -4   1  -8  238.28   18.90
  -4   1  -8  177.98   16.50
  -4   1  -8  211.18    9.20
   4  -1   8  208.68   17.30
   4  -1   8  230.38   17.70
   4  -1   8  220.78   18.90
   4  -1   8  242.68   18.90
  -5   1  -8   39.20   12.00
  -5   1  -8   48.40   11.90
  -5   1  -8   29.40   11.80
  -5   1  -8   29.90   11.50
  -5   1  -8   37.80    5.40
   5  -1   8   36.30   12.50
   5  -1   8   27.40   11.70
   5  -1   8   44.30   11.30
  -6   1  -8    0.30   12.30
  -6   1  -8    8.80   10.40
  -6   1  -8   10.40   13.90
  -6   1  -8   -6.00    4.50
  -6   1  -8    7.90   13.10
  -6   1  -8   -4.90   12.00
   6  -1   8    7.90   12.30
   6  -1   8   16.10   13.90
   6  -1   8    6.10   13.40
   7   0  -8  209.98   21.90
   7   0  -8  233.88   23.20
   7   0  -8  216.78   22.60
   7   0  -8  252.27   24.00
  -7   0   8  229.38   21.40
  -7   0   8  240.08   20.00
  -7   0   8  270.07   21.00
  -7   0   8  197.38   20.00
  -7   0   8  240.48   22.60
   6   0  -8  139.79   17.90
   6   0  -8  112.69   12.90
   6   0  -8  112.99   13.40
   6   0  -8  121.89   14.50
  -6   0   8  100.09   11.70
  -6   0   8   75.19   11.00
  -6   0   8  102.69   11.60
  -6   0   8  109.49   13.00
   5   0  -8   17.80    8.10
   5   0  -8    4.20    8.70
   5   0  -8    2.80    9.60
  -5   0   8    0.10    6.50
  -5   0   8    7.00    9.10
  -5   0   8    3.90    7.60
  -5   0   8   10.30    8.30
  -5   0   8    4.20    6.70
   4   0  -8  132.19   11.90
   4   0  -8  145.99   14.90
   4   0  -8  151.58   12.80
   4   0  -8  139.99   12.40
  -4   0   8  127.99   11.70
  -4   0   8  119.79   12.50
  -4   0   8  132.39   14.20
  -4   0   8  141.69   11.80
  -4   0   8  151.68   12.70
   3   0  -8    6.10    8.30
   3   0  -8    1.10    5.30
   3   0  -8    8.50    6.00
   3   0  -8    7.60    6.00
  -3   0   8    0.40    5.20
  -3   0   8    7.40    5.30
  -3   0   8    0.00    5.30
  -3   0   8    2.70    7.70
  -3   0   8    2.70    5.40
   2   0  -8   34.60    5.90
   2   0  -8   37.40    5.60
   2   0  -8   43.90    9.70
   2   0  -8   40.60    6.70
   2   0  -8   39.90    7.00
  -2   0   8   41.10    5.90
  -2   0   8   40.20    6.10
  -2   0   8   34.40    6.10
  -2   0   8   57.69   10.00
   1   0  -8  118.59   10.50
   1   0  -8  137.89   14.10
   1   0  -8  119.79   10.50
   1   0  -8  110.99   11.40
   1   0  -8  121.89   10.10
  -1   0   8  132.59    9.30
  -1   0   8  120.89    9.70
  -1   0   8  110.89   13.80
  -1   0   8  139.79    9.40
   0   0  -8  243.08   14.00
   0   0  -8  274.27   13.90
   0   0  -8  247.98   13.10
   0   0  -8  255.27   14.00
   0   0   8  241.98   13.40
   0   0   8  224.08   15.20
   0   0   8  245.58   12.20
   0   0   8  247.68   12.20
   0   0   8  256.87   11.80
  -1   0  -8  459.45   19.00
  -1   0  -8  412.26   19.10
  -1   0  -8  427.06   18.90
  -1   0  -8  418.96   20.00
   1   0   8  466.85   18.20
   1   0   8  448.76   18.30
   1   0   8  450.95   22.00
   1   0   8  392.46   18.90
  -2   0  -8   83.39    9.50
  -2   0  -8   68.09    9.00
  -2   0  -8   87.79   10.70
  -2   0  -8   82.79    8.90
   2   0   8   74.79    8.40
   2   0   8   73.89    8.60
   2   0   8   93.79   11.20
   2   0   8   68.59   10.60
  -3   0  -8  118.19   14.00
  -3   0  -8  129.89   13.70
  -3   0  -8  117.39    7.60
  -3   0  -8  140.29   13.00
   3   0   8  122.89   13.70
   3   0   8  138.59   16.80
   3   0   8  116.79   13.70
   3   0   8  102.59   13.40
  -4   0  -8  192.18   18.60
  -4   0  -8  201.18   17.50
  -4   0  -8  197.78   10.50
  -4   0  -8  233.78   18.50
   4   0   8  190.88   16.30
   4   0   8  185.58   16.70
   4   0   8  191.88   17.80
  -5   0  -8   -7.90   11.30
  -5   0  -8    0.80   10.90
  -5   0  -8   -0.50    7.60
  -5   0  -8    8.60   11.80
  -5   0  -8   -4.00    5.60
  -5   0  -8   -9.10   11.70
   5   0   8   -8.20   10.70
   5   0   8    0.30   11.50
   5   0   8    1.00   10.50
  -6   0  -8   38.70   14.30
  -6   0  -8    9.00    5.70
  -6   0  -8  -18.70   10.20
  -6   0  -8   18.90   12.90
  -6   0  -8   21.70   16.30
  -6   0  -8   33.20   13.50
   6   0   8   20.80   14.10
   6   0   8    4.30   13.10
   6   0   8   23.20   13.60
   7  -1  -8  238.28   21.30
   7  -1  -8  178.58   23.10
   7  -1  -8  198.98   20.20
  -7   1   8  215.38   18.20
  -7   1   8  205.68   20.30
  -7   1   8  188.58   19.10
  -7   1   8  181.88   20.50
  -7   1   8  223.88   22.20
   6  -1  -8   -5.80   11.70
   6  -1  -8    3.60   10.80
   6  -1  -8   -2.00    8.50
  -6   1   8  -11.10    9.30
  -6   1   8   -2.20    8.50
  -6   1   8   -0.80   10.30
  -6   1   8    0.70    7.80
  -6   1   8   -7.20    7.60
   5  -1  -8  251.67   18.80
   5  -1  -8  240.58   17.20
   5  -1  -8  248.28   15.90
  -5   1   8  240.18   15.70
  -5   1   8  233.28   14.60
  -5   1   8  253.47   16.40
  -5   1   8  255.17   14.90
   4  -1  -8  335.67   16.00
   4  -1  -8  327.57   16.20
   4  -1  -8  271.77   16.10
   4  -1  -8  314.87   19.30
  -4   1   8  320.07   15.40
  -4   1   8  308.07   18.50
  -4   1   8  330.87   15.20
  -4   1   8  292.97   15.60
  -4   1   8  305.57   15.10
   3  -1  -8   45.60    6.70
   3  -1  -8   47.80    6.70
   3  -1  -8   53.49   10.20
   3  -1  -8   40.30    6.00
  -3   1   8   45.70    8.50
  -3   1   8   43.90    6.20
  -3   1   8   51.79    5.90
  -3   1   8   49.90    6.00
  -3   1   8   56.09    6.30
  -3   1   8   59.69   10.90
   2  -1  -8  132.49   15.10
   2  -1  -8  143.59    9.00
   2  -1  -8  134.99    9.60
  -2   1   8  146.99    9.10
  -2   1   8  141.59   13.50
  -2   1   8  140.09    8.90
  -2   1   8  149.88    8.70
  -2   1   8  134.79    9.40
  -2   1   8  146.79    9.80
  -2   1   8  162.78   15.70
   1  -1  -8  687.03   25.10
   1  -1  -8  710.73   29.50
   1  -1  -8  682.83   24.20
   1  -1  -8  703.03   26.30
  -1   1   8  713.13   23.50
  -1   1   8  684.83   29.20
  -1   1   8  696.03   26.30
  -1   1   8  672.83   25.70
  -1   1   8  680.83   23.70
  -1   1   8  705.53   23.70
   0  -1  -8    7.90    5.50
   0  -1  -8    1.90    4.50
   0  -1  -8    1.80    6.30
   0  -1  -8   10.20    5.40
   0   1   8    6.70    4.00
   0   1   8   24.30    8.90
   0   1   8    7.80    5.40
   0   1   8    7.70    4.10
   0   1   8   13.10    5.50
   0   1   8    8.00    6.60
  -1  -1  -8   66.79    7.30
  -1  -1  -8   73.49    9.60
  -1  -1  -8   57.39    7.10
  -1  -1  -8   65.59    7.50
   1   1   8   62.39    6.40
   1   1   8   60.99    6.70
   1   1   8   53.49    7.30
   1   1   8   55.29   10.50
   1   1   8   52.49    7.10
  -2  -1  -8  172.18   12.90
  -2  -1  -8  182.98   13.20
  -2  -1  -8  165.98   13.10
  -2  -1  -8  158.78   14.30
   2   1   8  183.68   12.60
   2   1   8  164.28   12.30
   2   1   8  161.98   16.80
   2   1   8  170.08   12.40
  -3  -1  -8    3.20    9.40
  -3  -1  -8    6.60    7.80
  -3  -1  -8    1.50    4.90
  -3  -1  -8    7.50    8.10
   3   1   8    5.70    6.90
   3   1   8    2.50    7.30
   3   1   8    8.30   10.20
   3   1   8    3.20    7.50
  -4  -1  -8   -1.30    6.50
  -4  -1  -8   24.60    6.00
  -4  -1  -8   21.50   10.30
  -4  -1  -8   -1.00   10.00
   4   1   8   31.30    9.60
   4   1   8   21.30    8.80
   4   1   8   12.00    9.30
  -5  -1  -8   37.50   12.50
  -5  -1  -8   22.40   13.30
  -5  -1  -8   46.70   12.10
  -5  -1  -8   56.69   13.70
  -5  -1  -8   25.60    7.30
   5   1   8   48.80   12.30
   5   1   8   38.90   11.50
   5   1   8   43.40   12.50
   7  -2  -8   26.40   12.60
   7  -2  -8   -3.20   11.80
   7  -2  -8   -5.30    8.10
  -7   2   8   -1.80    9.50
  -7   2   8   -5.40    9.30
  -7   2   8  -12.40   12.40
  -7   2   8  -11.60   11.10
  -7   2   8    8.10   11.40
   6  -2  -8  287.77   17.70
   6  -2  -8  256.67   20.30
  -6   2   8  230.88   20.00
  -6   2   8  241.98   16.10
  -6   2   8  239.38   16.30
  -6   2   8  244.78   17.60
  -6   2   8  225.38   17.70
   5  -2  -8  106.69   12.30
   5  -2  -8   99.39   12.90
   5  -2  -8  127.09   13.90
  -5   2   8   97.69   11.70
  -5   2   8   92.89   10.90
  -5   2   8  119.29   10.90
  -5   2   8  124.49   12.10
   4  -2  -8  124.29   15.50
   4  -2  -8  130.99   10.90
   4  -2  -8  112.99   11.10
   4  -2  -8  134.19   10.80
  -4   2   8  125.49    9.60
  -4   2   8  129.49   10.20
  -4   2   8  109.99   10.40
  -4   2   8  122.59    8.60
  -4   2   8  121.29    9.80
   3  -2  -8   92.09   12.00
   3  -2  -8   76.99    8.10
   3  -2  -8   58.69    7.50
  -3   2   8   82.99    7.30
  -3   2   8   95.19   13.10
  -3   2   8   69.69    8.00
  -3   2   8   81.89    7.60
  -3   2   8   71.99    7.20
  -3   2   8   57.99    9.40
  -3   2   8   93.09    8.50
   2  -2  -8  654.53   22.20
   2  -2  -8  631.04   21.60
   2  -2  -8  642.84   28.40
   2  -2  -8  640.74   21.10
  -2   2   8  610.44   23.90
  -2   2   8  676.43   28.70
  -2   2   8  663.23   20.90
  -2   2   8  568.84   25.90
  -2   2   8  611.04   20.60
  -2   2   8  626.44   25.90
   1  -2  -8  511.25   22.30
   1  -2  -8  526.75   18.60
   1  -2  -8  547.45   17.80
   1  -2  -8  516.85   18.10
  -1   2   8  538.95   21.80
  -1   2   8  526.95   22.60
  -1   2   8  536.65   24.90
  -1   2   8  537.45   23.10
   0  -2  -8   -3.30    7.20
   0  -2  -8    8.60    3.80
   0  -2  -8    0.80    4.70
   0  -2  -8    4.30    4.30
   0   2   8   12.00    6.40
   0   2   8   -0.40    6.90
   0   2   8   17.30    9.60
   0   2   8    4.70    3.40
   0   2   8    6.60    3.50
   0   2   8   10.60    3.20
  -1  -2  -8  287.77   16.80
  -1  -2  -8  282.57   12.50
  -1  -2  -8  284.97   13.70
  -1  -2  -8  280.57   13.80
  -1  -2  -8  286.57   14.10
   1   2   8  280.57   12.70
   1   2   8  259.27   14.20
   1   2   8  242.28   12.60
   1   2   8  226.98   16.30
   1   2   8  286.77   19.40
   1   2   8  287.77   17.30
  -2  -2  -8  474.65   20.20
  -2  -2  -8  472.45   19.20
  -2  -2  -8  391.06   20.10
  -2  -2  -8  473.65   19.60
  -2  -2  -8  476.15   20.60
  -2  -2  -8  483.85   23.50
   2   2   8  470.05   19.90
   2   2   8  470.55   23.00
   2   2   8  473.85   19.80
   2   2   8  503.25   19.90
  -3  -2  -8   -4.90    6.60
  -3  -2  -8    0.50    5.80
  -3  -2  -8    6.80    8.30
  -3  -2  -8    4.30    9.30
  -3  -2  -8    7.40    8.00
   3   2   8    6.60    6.80
   3   2   8   -2.30    6.90
   3   2   8   -2.30    7.40
  -4  -2  -8  204.08   13.80
  -4  -2  -8  174.18   17.60
  -4  -2  -8  224.28   18.40
  -4  -2  -8  234.98   19.00
   4   2   8  206.68   16.70
   4   2   8  172.38   17.80
   4   2   8  216.48   18.30
  -5  -2  -8  169.38   21.70
  -5  -2  -8  187.18   19.60
  -5  -2  -8  164.88   20.90
  -5  -2  -8  141.89   15.10
  -5  -2  -8  140.09   16.20
   5   2   8  179.98   18.80
   5   2   8  156.58   16.30
   5   2   8  157.28   20.20
   7  -3  -8   13.90   12.00
   7  -3  -8   24.00   13.20
   7  -3  -8    5.20    8.30
  -7   3   8  -11.10   11.10
  -7   3   8    6.10    9.00
  -7   3   8   27.60   10.30
  -7   3   8    3.10    9.20
  -7   3   8   22.40    9.30
   6  -3  -8  110.79   14.10
  -6   3   8  108.99    6.60
  -6   3   8   94.29   13.80
  -6   3   8  134.49   12.90
  -6   3   8  108.09   12.90
  -6   3   8  117.09   14.00
  -6   3   8  104.89   12.60
   5  -3  -8   74.19    9.00
   5  -3  -8   86.89   13.00
  -5   3   8   72.89    8.10
  -5   3   8   80.99    9.80
  -5   3   8   78.19    8.30
  -5   3   8   76.99    9.30
  -5   3   8   87.79   10.70
   4  -3  -8  338.87   21.20
   4  -3  -8  316.77   15.00
  -4   3   8  308.37   13.50
  -4   3   8  341.07   13.80
  -4   3   8  329.47   13.80
  -4   3   8  292.17   14.50
  -4   3   8  329.27   13.90
   3  -3  -8  296.07   11.90
   3  -3  -8  281.87   12.20
   3  -3  -8  271.17   19.80
  -3   3   8  292.87   18.80
  -3   3   8  288.47   20.30
  -3   3   8  286.57   14.40
  -3   3   8  283.87   17.90
  -2   3   8   76.49   10.70
  -2   3   8   60.89    9.00
  -2   3   8   54.99    7.50
  -2   3   8   62.09   11.20
  -1   3   8  428.46   21.20
  -1   3   8  409.76   20.30
  -1   3   8  430.96   22.50
  -1   3   8  435.56   19.90
   0  -3  -8   27.10    2.70
   0  -3  -8   24.70    8.60
   0  -3  -8   29.40    4.60
   0  -3  -8   26.50    3.50
   0   3   8   40.00    8.10
   0   3   8   32.40   10.20
   0   3   8   37.20    8.90
   0   3   8   42.40    8.60
  -1  -3  -8   81.69    9.20
  -1  -3  -8  104.99   12.00
  -1  -3  -8   83.69    7.70
  -1  -3  -8   94.89    9.70
   1   3   8   95.39    7.90
   1   3   8   82.09    8.60
   1   3   8   82.99   13.10
   1   3   8   99.49   11.70
  -2  -3  -8    0.30    6.20
  -2  -3  -8   -8.30    6.40
  -2  -3  -8   -6.00    6.20
  -2  -3  -8  -11.10    8.60
  -2  -3  -8    3.90    5.50
  -2  -3  -8    0.80    5.80
   2   3   8    6.00    5.40
   2   3   8    6.50    5.80
   2   3   8   -2.00    9.10
  -3  -3  -8   82.99    9.50
  -3  -3  -8   99.09   13.40
  -3  -3  -8   80.29   10.30
  -3  -3  -8  103.79   13.00
   3   3   8   92.39   11.40
   3   3   8   95.59    9.80
  -4  -3  -8  238.48   18.90
  -4  -3  -8  252.97   17.40
  -4  -3  -8  278.37   21.80
  -4  -3  -8  271.97   19.50
   4   3   8  273.77   18.20
   4   3   8  299.17   19.70
   6  -4  -8   -0.30   11.10
   6  -4  -8    3.80    5.70
  -6   4   8    0.90    7.80
  -6   4   8    9.90    5.30
  -6   4   8   -7.30   12.30
  -6   4   8   -0.20    6.50
  -6   4   8    3.50    7.40
  -6   4   8   -4.90    6.50
   5  -4  -8    8.60    6.70
   5  -4  -8    5.40   10.60
  -5   4   8    6.90    5.00
  -5   4   8   11.50    5.60
  -5   4   8   14.60    5.80
  -5   4   8   11.30    5.40
  -5   4   8    2.70    5.00
   4  -4  -8 1144.09   44.70
   4  -4  -8 1187.28   38.50
  -4   4   8 1192.08   40.40
  -4   4   8 1131.09   36.90
  -4   4   8 1170.58   45.10
  -4   4   8 1192.98   37.30
  -4   4   8 1183.88   43.90
  -3   4   8  216.58   20.20
  -3   4   8  215.28   16.90
  -3   4   8  211.88   14.00
  -3   4   8  220.98   19.00
  -2   4   8   12.90    8.70
  -2   4   8    5.80    6.80
  -2   4   8   -6.50    9.50
  -2   4   8    3.40    7.80
  -1   4   8  778.82   32.80
  -1   4   8  793.62   31.80
  -1   4   8  748.73   29.80
  -1   4   8  735.03   29.50
   0   4   8  120.09   13.40
   0   4   8  106.09   12.00
   0   4   8   99.49   12.30
   0   4   8  126.39   14.60
  -1  -4  -8   -0.80    4.70
  -1  -4  -8   -0.80    4.80
  -1  -4  -8   -9.40    3.80
  -1  -4  -8   19.00   10.00
  -1  -4  -8   -6.10    5.10
   1   4   8   -2.20    7.30
   1   4   8    3.60   10.10
   1   4   8   -8.60    3.50
   1   4   8    1.90   11.80
  -2  -4  -8   45.70    6.60
  -2  -4  -8   53.39   12.30
  -2  -4  -8   75.39    8.40
  -2  -4  -8   82.79   10.40
   2   4   8   74.39   15.50
   2   4   8   94.69   13.90
   2   4   8   60.09    7.90
   2   4   8   98.59   10.80
   2   4   8   74.09    9.10
  -3  -4  -8   55.59    9.20
  -3  -4  -8   54.69   10.10
  -3  -4  -8   57.89   14.20
   3   4   8   48.30   14.30
   3   4   8   55.69    8.10
   3   4   8   53.89    9.50
  -4  -4  -8   55.09   11.00
  -4  -4  -8   36.90   14.30
  -4  -4  -8   39.00   10.10
  -4  -4  -8   51.29   11.70
   4   4   8   47.50    8.90
   4   4   8   28.60   11.20
   6  -5  -8   36.40   12.50
  -6   5   8   23.70    7.20
  -6   5   8   24.80    6.90
  -6   5   8   30.10   12.50
  -6   5   8   31.10    7.00
  -6   5   8   24.00    6.20
  -6   5   8   20.00    6.30
   5  -5  -8   44.90    7.10
   5  -5  -8   50.29   12.50
  -5   5   8   36.00    4.90
  -5   5   8   39.80   12.10
  -5   5   8   40.40    7.50
  -5   5   8   34.50    5.00
  -5   5   8   59.99   15.30
  -4   5   8   34.90   13.40
  -4   5   8   20.80   12.60
  -4   5   8   32.30    7.60
  -4   5   8   36.90   11.40
  -3   5   8   27.30    8.10
  -3   5   8   29.80   10.80
  -3   5   8   25.60   13.20
  -3   5   8   35.30   11.60
  -2   5   8  507.65   26.70
  -2   5   8  497.15   23.50
  -2   5   8  525.45   26.80
  -2   5   8  527.15   24.30
  -1   5   8  141.89   13.20
  -1   5   8  130.39   14.40
  -1   5   8  123.89   13.70
  -1   5   8  144.89   14.20
   0   5   8   62.79    9.50
   0   5   8   54.19   11.30
   0   5   8   77.09   11.60
   0   5   8   77.59   14.10
  -1  -5  -8  471.35   17.40
  -1  -5  -8  504.15   18.90
  -1  -5  -8  509.45   17.90
   1   5   8  467.45   25.40
   1   5   8  489.55   21.70
   1   5   8  522.05   28.20
  -2  -5  -8  353.86   17.60
  -2  -5  -8  369.76   16.90
  -2  -5  -8  360.56   21.50
   2   5   8  378.26   24.50
   2   5   8  344.27   16.60
   2   5   8  395.36   27.40
   2   5   8  390.46   18.50
   2   5   8  345.27   16.30
  -3  -5  -8   34.00   11.00
  -3  -5  -8   31.90    9.40
  -3  -5  -8   34.30    8.80
   3   5   8   16.40    8.90
   3   5   8   43.90    7.90
   3   5   8   33.20    6.70
   3   5   8   12.60   14.00
  -5   6   8   25.10    8.50
  -5   6   8   43.10   13.80
  -5   6   8   32.30   14.70
  -4   6   8   47.90   12.60
  -4   6   8   -6.70   13.40
  -4   6   8   18.60   12.90
  -4   6   8   30.90    8.70
  -3   6   8  839.02   38.00
  -3   6   8  822.42   34.50
  -3   6   8  911.01   38.70
  -3   6   8  830.42   33.50
  -2   6   8   33.20   10.10
  -2   6   8   18.40   11.50
  -2   6   8   33.50   12.20
  -2   6   8   35.00   10.60
  -1   6   8    5.80   11.10
  -1   6   8   19.30   11.70
  -1   6   8   12.90    9.40
  -1   6   8   11.60    9.50
   0   6   8  103.59   14.00
   0   6   8  117.59   15.90
   0   6   8  115.99   15.70
   0   6   8  108.09   11.40
  -1  -6  -8  132.59    9.20
   1   6   8  123.49   11.20
   1   6   8  124.09   16.00
   1   6   8  123.89   16.90
  -2  -6  -8    8.60    6.60
  -2  -6  -8    0.90    6.30
  -2  -6  -8    8.20   11.00
  -2  -6  -8  -14.10    4.90
  -2  -6  -8   -6.90    4.90
   2   6   8  -12.00    5.90
   2   6   8   -0.10   12.70
   2   6   8   11.60    7.50
   2   6   8   16.20   16.50
   2   6   8    2.80    5.10
  -4   7   8  233.98   19.20
  -4   7   8  251.37   22.50
  -4   7   8  208.38   26.10
  -4   7   8  234.08   22.20
  -3   7   8  215.48   25.00
  -3   7   8  204.48   23.60
  -3   7   8  175.08   18.40
  -3   7   8  168.08   18.70
  -2   7   8   71.49   15.40
  -2   7   8   53.39   10.80
  -2   7   8   57.49   13.40
  -2   7   8   57.29   11.40
  -1   7   8 1359.16   50.89
  -1   7   8 1365.06   52.89
  -1   7   8 1376.06   53.79
  -1   7   8 1406.76   49.00
   0   7   8    9.30   13.90
   0   7   8    5.60   12.70
   0   7   8    8.90   14.50
   0   7   8   -2.10    8.20
   1   7   8   -7.20    7.80
   1   7   8   -6.70   13.20
   1   7   8   18.30   15.70
  -2   8   8  132.29   16.30
  -2   8   8  124.19   14.00
  -2   8   8  119.19   16.50
  -2   8   8  111.09   17.90
   1  11  -9  101.69   19.30
   1  11  -9   99.99   22.50
   1  11  -9  101.39   19.90
   1  11  -9  108.19   13.30
  -1 -11   9   81.89   19.00
  -1 -11   9   58.39   19.00
  -1 -11   9  108.39   16.80
  -1 -11   9  117.59   21.40
   0  11  -9  103.59   22.70
   0  11  -9   62.99   11.50
   0  11  -9   65.89   17.70
   0  11  -9   58.89   19.40
   0 -11   9   90.49   19.10
   0 -11   9   68.89   15.50
   0 -11   9   50.49   19.10
   0 -11   9  128.79   21.30
  -1  11  -9   32.00   18.50
  -1  11  -9   70.89   21.00
  -1  11  -9   50.39   17.00
  -1  11  -9   72.09   10.30
   1 -11   9   64.59   15.00
   1 -11   9   73.59   20.20
   1 -11   9   42.30   20.60
   1 -11   9   67.49   18.60
  -2  11  -9   50.09   20.40
  -2  11  -9   29.00   17.50
  -2  11  -9   10.20   18.40
  -2  11  -9   33.40    9.60
   2 -11   9   38.60   18.90
   2 -11   9   28.00   20.40
   2 -11   9   21.60   13.40
   2 -11   9    7.90   18.90
  -3  11  -9  258.57   31.80
  -3  11  -9  278.77   31.90
  -3  11  -9  171.28   25.40
   3 -11   9  211.58   27.60
   3 -11   9  220.28   26.50
   3 -11   9  191.68   25.20
  -4  11  -9   28.60   29.00
   3  10  -9   -0.30   12.80
   3  10  -9    4.80   18.10
   3  10  -9   -2.70   16.10
   3  10  -9  -15.20   16.60
  -3 -10   9   18.90   17.90
  -3 -10   9    3.90   13.00
  -3 -10   9   14.10   18.10
  -3 -10   9   29.30   19.70
   2  10  -9  440.96   32.40
   2  10  -9  353.76   32.70
   2  10  -9  368.36   23.20
   2  10  -9  370.46   31.50
  -2 -10   9  385.76   32.60
  -2 -10   9  444.46   32.20
  -2 -10   9  400.06   32.10
  -2 -10   9  393.06   27.60
   1  10  -9  245.88   17.80
   1  10  -9  215.38   21.30
   1  10  -9  278.47   28.40
   1  10  -9  201.08   25.10
  -1 -10   9  254.57   22.50
  -1 -10   9  210.48   24.00
  -1 -10   9  227.48   27.60
  -1 -10   9  282.47   28.70
   0  10  -9    6.20   16.10
   0  10  -9    3.30    9.60
   0  10  -9   13.90   15.90
   0  10  -9  -13.50   14.50
   0 -10   9   19.00   15.20
   0 -10   9    7.90   12.00
   0 -10   9   -7.90   16.80
   0 -10   9   22.40   16.30
  -1  10  -9   57.39   16.40
  -1  10  -9   89.79   18.50
  -1  10  -9   84.69   10.60
  -1  10  -9   72.09   17.40
   1 -10   9   45.30   16.70
   1 -10   9   61.19   19.30
   1 -10   9   67.09   18.90
   1 -10   9   54.79   13.60
  -2  10  -9   79.29   17.10
  -2  10  -9   92.99   11.30
  -2  10  -9   85.99   19.90
  -2  10  -9   78.59   19.20
   2 -10   9  107.69   21.00
   2 -10   9  111.19   19.40
   2 -10   9  122.29   20.00
   2 -10   9  118.69   14.90
  -3  10  -9   29.30   21.00
  -3  10  -9   31.10   16.80
  -3  10  -9   54.89   18.90
   3 -10   9   31.60   18.90
   3 -10   9   50.49   18.10
   3 -10   9   72.49   21.10
  -4  10  -9   -0.60   21.30
  -4  10  -9   -7.50   15.90
  -4  10  -9   15.60   18.70
   4 -10   9   13.30   19.70
   4 -10   9   14.50   18.10
   4 -10   9  -20.30   19.50
   4   9  -9   20.90   19.80
   4   9  -9    0.50   17.50
   4   9  -9   10.50    8.60
   4   9  -9   -3.40   16.30
  -4  -9   9   22.60    7.10
  -4  -9   9   -9.40   20.10
  -4  -9   9   -0.10   17.30
  -4  -9   9   15.60   18.30
   3   9  -9  305.57   22.80
   3   9  -9  333.37   33.30
   3   9  -9  307.27   31.30
   3   9  -9  368.56   31.90
  -3  -9   9  362.86   35.00
  -3  -9   9  378.36   30.70
  -3  -9   9  394.86   30.40
   2   9  -9   -3.40    9.20
   2   9  -9   -7.00   13.90
   2   9  -9   -9.40   15.30
   2   9  -9   -3.30   14.50
  -2  -9   9   -2.50   14.50
  -2  -9   9  -10.10   17.50
  -2  -9   9   14.50   15.40
  -2  -9   9    8.60   11.50
   1   9  -9  103.39   18.30
   1   9  -9  109.59   19.40
   1   9  -9   94.89   18.30
   1   9  -9   89.29   11.50
  -1  -9   9   83.39   16.30
  -1  -9   9   80.89   13.10
  -1  -9   9  100.59   16.60
  -1  -9   9   75.89   17.60
   0   9  -9  582.24   25.50
   0   9  -9  526.75   33.70
   0   9  -9  574.24   31.90
   0   9  -9  630.44   35.80
   0  -9   9  475.55   27.90
   0  -9   9  549.65   33.90
   0  -9   9  636.04   34.40
   0  -9   9  575.04   33.40
  -1   9  -9  174.18   20.50
  -1   9  -9  171.78   14.50
  -1   9  -9  198.48   20.30
  -1   9  -9  182.78   21.70
   1  -9   9  188.38   21.20
   1  -9   9  157.78   19.30
   1  -9   9  149.29   18.50
   1  -9   9  185.48   21.80
  -2   9  -9   60.29   17.50
  -2   9  -9   52.29   10.20
  -2   9  -9   53.69   18.60
  -2   9  -9   58.49   15.80
   2  -9   9   53.09   16.30
   2  -9   9   76.29   11.20
   2  -9   9   60.99   18.00
   2  -9   9   68.99   18.30
  -3   9  -9  173.48   22.60
  -3   9  -9  181.38   21.40
  -3   9  -9  190.58   20.70
   3  -9   9  246.68   29.70
   3  -9   9  167.08   21.50
   3  -9   9  217.78   26.40
  -4   9  -9  234.18   28.60
  -4   9  -9  222.68   28.50
  -4   9  -9  194.28   25.70
   4  -9   9  179.18   22.90
   4  -9   9  208.78   24.70
   4  -9   9  216.18   24.10
  -5   9  -9  -25.30   18.30
  -5   9  -9   22.00   17.10
  -5   9  -9  -12.10   21.20
   5  -9   9    3.20   19.90
   5  -9   9   12.10   20.20
   5  -9   9   -3.90   18.60
   4   8  -9  605.74   34.60
   4   8  -9  627.24   36.40
   4   8  -9  517.55   36.60
  -4  -8   9  586.34   36.80
  -4  -8   9  496.55   33.50
  -4  -8   9  536.75   34.30
  -4  -8   9  516.65   24.80
   3   8  -9    7.00   15.00
   3   8  -9   43.20   16.80
   3   8  -9   -8.80   13.70
   3   8  -9   -3.70   10.40
  -3  -8   9  -28.50   16.40
  -3  -8   9    9.10   13.00
  -3  -8   9   19.20   13.00
   2   8  -9   -7.50   14.20
   2   8  -9   15.10    8.70
   2   8  -9   36.90   16.10
   2   8  -9    5.70   15.40
  -2  -8   9   18.40   12.30
  -2  -8   9   13.90   10.50
  -2  -8   9    5.40   12.10
  -2  -8   9  -27.90   14.20
   1   8  -9  167.78   15.00
   1   8  -9  139.69   19.30
   1   8  -9  171.98   20.10
   1   8  -9  170.88   19.40
  -1  -8   9  149.99   18.60
  -1  -8   9  173.98   16.90
  -1  -8   9  176.48   18.40
  -1  -8   9  175.78   20.00
   0   8  -9  174.38   21.50
   0   8  -9  199.88   15.90
   0   8  -9  207.98   24.20
   0   8  -9  270.47   23.80
   0  -8   9  210.78   17.70
   0  -8   9  223.88   23.50
   0  -8   9  235.48   24.50
   0  -8   9  249.08   25.10
  -1   8  -9    0.20   12.70
  -1   8  -9    9.80    8.00
  -1   8  -9   19.80   13.80
  -1   8  -9   -7.80   12.10
   1  -8   9   11.20   14.20
   1  -8   9    7.30   12.90
   1  -8   9    8.00    8.80
   1  -8   9   23.40   12.70
  -2   8  -9   71.89   14.60
  -2   8  -9   85.89   15.60
  -2   8  -9   54.59   15.60
  -2   8  -9   68.59   10.50
   2  -8   9   67.29   16.40
   2  -8   9   64.79   16.70
   2  -8   9   64.59    8.90
   2  -8   9   48.30   16.60
  -3   8  -9  -11.30   14.50
  -3   8  -9    5.30   16.20
  -3   8  -9   10.50   14.00
   3  -8   9   19.80   16.20
   3  -8   9   -4.10   14.20
   3  -8   9   12.30   14.50
  -4   8  -9   48.40   17.70
  -4   8  -9   32.80   15.40
  -4   8  -9   20.00   16.80
   4  -8   9   40.50   17.40
   4  -8   9   21.60   16.20
   4  -8   9   44.20   17.00
  -5   8  -9  158.98   21.00
  -5   8  -9  119.19   22.70
  -5   8  -9  110.79   21.70
   5  -8   9  162.28   21.30
   5  -8   9  136.69   20.50
   5  -8   9  117.29   22.60
   5   7  -9  234.58   25.60
   5   7  -9  226.08   29.60
   5   7  -9  231.98   23.60
  -5  -7   9  249.97   27.20
  -5  -7   9  215.08   25.40
  -5  -7   9  259.47   24.60
  -5  -7   9  228.38   28.90
   4   7  -9   23.90   15.40
   4   7  -9    0.10    5.20
   4   7  -9   -8.20   13.60
   4   7  -9   26.10   11.60
   4   7  -9   15.90   16.10
  -4  -7   9   20.20    9.60
  -4  -7   9   38.80   14.00
  -4  -7   9   21.10   13.50
  -4  -7   9   21.50   15.80
   3   7  -9    9.30   14.40
   3   7  -9   -6.50   13.40
   3   7  -9    4.60   13.50
   3   7  -9   11.40    9.30
  -3  -7   9   -5.20   11.80
  -3  -7   9   -4.50   16.30
  -3  -7   9    1.50   11.30
   2   7  -9 1656.63   62.49
   2   7  -9 1613.14   61.89
   2   7  -9 1642.34   56.69
   2   7  -9 1653.53   62.39
  -2  -7   9 1775.12   61.29
  -2  -7   9 1529.55   62.59
  -2  -7   9 1645.74   60.19
   1   7  -9   49.20   13.70
   1   7  -9   53.19   10.00
   1   7  -9   37.90   15.10
   1   7  -9   55.89   15.00
  -1  -7   9   67.79   10.00
  -1  -7   9   42.00   11.80
  -1  -7   9   43.90   12.60
  -1  -7   9   68.49   16.20
   0   7  -9    0.90    7.50
   0   7  -9  -20.00   11.90
   0   7  -9    8.20   12.10
   0   7  -9   -9.60   12.60
   0  -7   9    1.30   11.30
   0  -7   9  -21.30   12.60
   0  -7   9    2.40    7.70
   0  -7   9    1.60   10.50
  -1   7  -9 1608.84   59.19
  -1   7  -9 1560.84   57.29
  -1   7  -9 1412.66   52.19
  -1   7  -9 1536.75   57.19
   1  -7   9 1441.96   57.29
   1  -7   9 1469.45   51.89
   1  -7   9 1631.94   57.99
   1  -7   9 1546.25   57.79
  -2   7  -9  109.19   15.20
  -2   7  -9  114.59   12.50
  -2   7  -9  131.89   18.70
  -2   7  -9  112.59   15.80
   2  -7   9  156.38   17.90
   2  -7   9  127.49   16.70
   2  -7   9  149.88   17.70
  -3   7  -9  303.17   26.20
  -3   7  -9  296.57   25.80
  -3   7  -9  295.37   25.70
   3  -7   9  311.57   16.60
   3  -7   9  290.67   23.90
   3  -7   9  366.96   26.20
   3  -7   9  319.27   27.20
  -4   7  -9  228.68   25.40
  -4   7  -9  289.47   26.40
  -4   7  -9  260.17   26.90
   4  -7   9  246.08   15.60
   4  -7   9  246.98   26.70
   4  -7   9  269.37   26.30
   4  -7   9  216.48   24.00
  -5   7  -9   91.99   19.70
  -5   7  -9  120.39   21.70
  -5   7  -9  130.49   19.70
   5  -7   9  101.39   18.50
   5  -7   9  129.09   18.60
   5  -7   9  162.28   21.40
  -6   7  -9   15.70   18.80
  -6   7  -9   79.49   19.00
  -6   7  -9   85.79   20.40
   6  -7   9   17.80   18.70
   6  -7   9   79.19   20.30
   6  -7   9   52.99   20.70
   5   6  -9  240.78   25.90
   5   6  -9  195.48   21.10
   5   6  -9  241.78   27.70
   5   6  -9  178.68   19.90
  -5  -6   9  184.98   18.80
  -5  -6   9  197.48   23.70
  -5  -6   9  180.38   23.30
  -5  -6   9  223.28   22.90
  -5  -6   9  212.38   16.60
   4   6  -9   -1.00    9.70
   4   6  -9  -13.10   14.10
   4   6  -9    8.50   12.90
   4   6  -9    4.80   12.60
   4   6  -9   -4.20    3.70
  -4  -6   9   -9.40   14.10
  -4  -6   9   -5.40   11.30
  -4  -6   9   -8.70   11.30
  -4  -6   9   -2.50    9.00
   3   6  -9  389.26   20.90
   3   6  -9  388.96   24.70
   3   6  -9  431.86   29.00
   3   6  -9  390.96   27.50
  -3  -6   9  369.46   24.20
  -3  -6   9  371.66   28.90
  -3  -6   9  377.96   24.90
   2   6  -9   20.10    8.50
   2   6  -9   13.50   12.60
   2   6  -9    7.90   12.00
   2   6  -9   10.80   11.50
  -2  -6   9   24.60   10.60
  -2  -6   9   15.40   11.40
  -2  -6   9    1.40   13.70
   1   6  -9  577.14   29.80
   1   6  -9  491.95   29.60
   1   6  -9  470.15   29.50
   1   6  -9  538.75   23.70
  -1  -6   9  540.85   27.40
  -1  -6   9  494.75   28.60
  -1  -6   9  563.04   28.10
   0   6  -9  118.89   16.00
   0   6  -9  103.89   14.40
   0   6  -9  122.19   13.00
   0   6  -9  119.29   15.50
   0  -6   9  129.79   16.60
   0  -6   9   99.19   13.00
   0  -6   9  111.29   13.90
   0  -6   9  118.19   11.70
  -1   6  -9   17.30    8.30
  -1   6  -9   11.40   11.20
  -1   6  -9   21.90   11.60
  -1   6  -9    6.20   11.50
   1  -6   9   29.10   11.90
   1  -6   9   32.90   11.60
   1  -6   9   23.10   11.10
   1  -6   9   19.40    6.10
  -2   6  -9  459.25   28.00
  -2   6  -9  514.15   28.30
  -2   6  -9  545.25   29.90
   2  -6   9  490.35   22.10
   2  -6   9  479.25   26.30
   2  -6   9  526.15   28.00
   2  -6   9  493.55   28.00
  -3   6  -9 1552.54   58.19
  -3   6  -9 1557.24   59.59
  -3   6  -9 1566.04   59.09
   3  -6   9 1593.64   57.79
   3  -6   9 1487.15   58.39
   3  -6   9 1500.95   52.79
   3  -6   9 1635.44   58.49
  -4   6  -9   42.20   15.60
  -4   6  -9   35.50   14.40
  -4   6  -9   21.90   14.00
   4  -6   9   49.50   15.10
   4  -6   9   20.80   12.90
   4  -6   9   38.90    9.40
   4  -6   9   18.10   13.40
  -5   6  -9    7.50   14.40
  -5   6  -9   13.70   14.30
  -5   6  -9    0.80   16.00
   5  -6   9   -1.70   14.90
   5  -6   9   10.50    9.30
   5  -6   9   14.50   14.70
   5  -6   9    2.20   13.70
  -6   6  -9  476.55   35.60
  -6   6  -9  432.96   33.50
  -6   6  -9  555.84   35.90
   6  -6   9  456.85   35.20
   6  -6   9  503.55   35.10
   6  -6   9  547.85   36.30
   6   5  -9   58.69   16.80
   6   5  -9   85.49   17.30
   6   5  -9   97.49   15.20
   6   5  -9  102.19   18.00
  -6  -5   9   79.49   15.00
  -6  -5   9   83.99   16.50
  -6  -5   9   73.79   18.10
  -6  -5   9   95.89   16.70
  -6  -5   9   64.49   10.60
   5   5  -9  864.81   41.50
   5   5  -9  880.81   41.00
   5   5  -9  855.21   40.00
   5   5  -9  910.11   37.50
  -5  -5   9  875.91   34.40
  -5  -5   9  915.41   39.20
  -5  -5   9  899.31   39.20
  -5  -5   9  897.71   41.00
  -5  -5   9  841.92   42.30
   4   5  -9  250.47   24.20
   4   5  -9  250.67   18.50
   4   5  -9  244.88   22.20
  -4  -5   9  260.17   24.20
  -4  -5   9  261.67   18.90
  -4  -5   9  270.27   21.90
  -4  -5   9  277.37   19.60
   3   5  -9  617.54   31.70
   3   5  -9  669.73   30.80
   3   5  -9  605.54   26.70
  -3  -5   9  577.24   27.70
  -3  -5   9  573.84   30.70
  -3  -5   9  617.64   29.10
   2   5  -9  753.72   33.60
   2   5  -9  663.83   33.20
   2   5  -9  778.52   29.50
   2   5  -9  659.73   33.70
  -2  -5   9  780.42   32.40
  -2  -5   9  624.04   34.10
  -2  -5   9  758.12   31.70
   1   5  -9 1846.02   61.39
   1   5  -9 1783.82   64.19
   1   5  -9 1794.62   65.29
   1   5  -9 1778.12   65.19
  -1  -5   9 1878.31   66.09
  -1  -5   9 1802.72   63.39
  -1  -5   9 1809.82   63.49
   0   5  -9  389.46   20.20
   0   5  -9  433.66   24.30
   0   5  -9  426.56   24.70
   0   5  -9  394.76   23.10
   0  -5   9  427.76   24.80
   0  -5   9  391.96   22.90
   0  -5   9  411.96   23.50
   0  -5   9  402.16   17.50
  -1   5  -9   10.50   10.40
  -1   5  -9   -3.40    7.70
  -1   5  -9    9.70    9.20
  -1   5  -9    1.90    9.90
   1  -5   9    7.20    4.30
   1  -5   9   10.60    9.50
   1  -5   9    7.90   11.10
   1  -5   9    7.70    8.00
   1  -5   9   12.20   10.00
  -2   5  -9 1634.54   58.99
  -2   5  -9 1744.03   59.79
  -2   5  -9 1412.06   57.79
   2  -5   9 1708.63   58.59
   2  -5   9 1474.55   57.59
   2  -5   9 1664.53   55.19
   2  -5   9 1693.63   60.09
  -3   5  -9  101.79   14.10
  -3   5  -9  107.19   15.30
  -3   5  -9  123.39   15.20
   3  -5   9  129.49   15.30
   3  -5   9  107.29   14.40
   3  -5   9  131.39   16.60
   3  -5   9  137.69   14.40
  -4   5  -9  116.59   15.50
  -4   5  -9  160.08   17.90
  -4   5  -9  123.69   16.40
   4  -5   9  125.39   15.00
   4  -5   9  126.99   15.70
   4  -5   9  160.28   18.00
   4  -5   9  145.99   17.80
  -5   5  -9   26.40   13.80
  -5   5  -9   22.10   16.70
  -5   5  -9   32.40   15.20
   5  -5   9   44.90   10.90
   5  -5   9   48.30   15.30
   5  -5   9   51.39   14.20
   5  -5   9   38.10   14.80
  -6   5  -9   92.89   19.00
  -6   5  -9  108.19   19.50
  -6   5  -9   58.99   18.00
  -6   5  -9   58.59   14.20
   6  -5   9   69.69   17.90
   6  -5   9   80.89   18.50
   6  -5   9   67.89   13.50
   6  -5   9   57.09   17.90
   6   4  -9  139.09   17.30
   6   4  -9  158.78   18.20
   6   4  -9   98.49   17.00
   6   4  -9  144.49   19.00
  -6  -4   9  103.49   16.80
  -6  -4   9  169.58   18.90
  -6  -4   9  112.99   18.40
  -6  -4   9   90.89   11.40
  -6  -4   9  106.29   14.60
   5   4  -9   54.59   11.50
   5   4  -9   61.09   13.70
   5   4  -9   52.59   13.30
  -5  -4   9   84.89   13.90
  -5  -4   9   46.40   12.40
  -5  -4   9   39.90   13.60
  -5  -4   9   58.99   10.40
  -5  -4   9   48.70   11.70
   4   4  -9  155.78   18.50
   4   4  -9  140.99   16.30
   4   4  -9  135.59   15.00
  -4  -4   9  145.49   15.90
  -4  -4   9  170.98   16.90
  -4  -4   9  125.99   13.60
  -4  -4   9  172.78   20.30
  -4  -4   9  126.49   12.90
   3   4  -9  252.67   16.70
   3   4  -9  248.08   20.90
   3   4  -9  249.38   19.60
   3   4  -9  243.88   10.30
   3   4  -9  185.18   23.10
  -3  -4   9  252.37   18.10
  -3  -4   9  279.27   18.90
  -3  -4   9  208.68   18.90
   2   4  -9  107.99   14.80
   2   4  -9   97.69   13.00
   2   4  -9  118.49   13.70
   2   4  -9   79.49   12.90
  -2  -4   9   66.59   12.30
  -2  -4   9  111.89   12.30
  -2  -4   9  113.89   12.80
   1   4  -9   -3.90    9.10
   1   4  -9    4.40    8.00
   1   4  -9  -12.90    9.90
   1   4  -9    0.60   10.40
  -1  -4   9    5.10   10.00
  -1  -4   9    9.30    8.30
  -1  -4   9    2.70    8.40
   0   4  -9 1380.06   49.80
   0   4  -9 1470.45   52.29
   0   4  -9 1394.76   51.29
   0   4  -9 1512.45   52.19
   0  -4   9 1358.56   50.69
   0  -4   9 1439.26   49.80
   0  -4   9 1453.05   52.29
   0  -4   9 1386.66   50.79
  -1   4  -9  247.58   19.10
  -1   4  -9  217.48   17.90
  -1   4  -9  254.97   17.00
  -1   4  -9  254.57   18.90
   1  -4   9  226.58   19.00
   1  -4   9  237.28   18.00
   1  -4   9  228.98   17.60
   1  -4   9  265.27   16.60
  -2   4  -9  289.07   20.10
  -2   4  -9  246.98   19.60
  -2   4  -9  289.37   20.20
   2  -4   9  261.37   19.40
   2  -4   9  272.77   17.10
   2  -4   9  246.48   17.30
   2  -4   9  260.47   20.40
  -3   4  -9  226.38   20.50
  -3   4  -9  210.58   20.50
   3  -4   9  209.48   16.00
   3  -4   9  217.78   19.90
   3  -4   9  228.98   19.30
   3  -4   9  231.78   21.00
  -4   4  -9  910.91   37.80
  -4   4  -9  734.53   36.60
  -4   4  -9  899.31   35.60
   4  -4   9  881.61   38.00
   4  -4   9  867.91   37.50
   4  -4   9  842.82   37.50
   4  -4   9  836.32   34.30
  -5   4  -9  148.69   18.90
  -5   4  -9  110.19   16.60
  -5   4  -9  163.68   17.80
  -5   4  -9  117.09   17.50
   5  -4   9  105.29   17.20
   5  -4   9  160.88   18.70
   5  -4   9  129.79   16.90
   5  -4   9  117.79   16.70
  -6   4  -9    3.20   13.20
  -6   4  -9    6.40   14.30
  -6   4  -9   46.70   17.00
  -6   4  -9   16.10   17.50
   6  -4   9   21.40   15.30
   6  -4   9   13.60   15.00
   6  -4   9  -18.90   15.90
   6  -4   9   10.20   12.70
   6   3  -9   66.49   13.80
   6   3  -9   36.60   14.00
   6   3  -9   42.30   14.70
   6   3  -9   50.49   15.10
  -6  -3   9   39.10   11.40
  -6  -3   9   51.89   12.80
  -6  -3   9   44.20   14.50
  -6  -3   9   55.19   13.10
   5   3  -9   66.59   12.90
   5   3  -9   59.49   12.60
   5   3  -9   82.99   12.80
  -5  -3   9   62.39   10.60
  -5  -3   9   95.49   13.00
  -5  -3   9   75.09   11.90
  -5  -3   9   65.99   11.90
  -5  -3   9   71.09   13.80
   4   3  -9 1343.17   48.70
   4   3  -9 1312.07   47.80
   4   3  -9 1381.66   49.70
   4   3  -9 1247.48   57.49
  -4  -3   9 1319.87   47.90
  -4  -3   9 1292.97   47.70
  -4  -3   9 1238.18   48.30
  -4  -3   9 1384.06   47.90
   3   3  -9   62.89    5.80
   3   3  -9   71.89   10.80
   3   3  -9   60.99   11.30
   3   3  -9   61.09   11.40
   3   3  -9   48.70   10.10
  -3  -3   9   53.29    9.40
  -3  -3   9   60.69    9.60
  -3  -3   9   56.99   11.10
   2   3  -9  634.64   27.30
   2   3  -9  625.14   21.20
   2   3  -9  547.25   27.10
   2   3  -9  507.55   27.50
   2   3  -9  596.84   25.40
  -2  -3   9  590.54   27.30
  -2  -3   9  589.34   26.00
  -2  -3   9  565.34   25.50
   1   3  -9  426.76   23.80
   1   3  -9  408.36   23.70
   1   3  -9  445.76   22.60
   1   3  -9  434.06   21.70
   1   3  -9  460.25   18.00
  -1  -3   9  432.36   21.80
  -1  -3   9  435.56   21.40
  -1  -3   9  475.45   22.30
  -1  -3   9  437.76   22.90
   0   3  -9  446.06   18.80
   0   3  -9  417.06   22.50
   0   3  -9  454.45   22.70
   0   3  -9  422.86   21.60
   0   3  -9  449.76   22.10
   0  -3   9  412.56   21.40
   0  -3   9  410.46   20.80
   0  -3   9  432.66   21.10
   0  -3   9  455.55   22.30
  -1   3  -9  800.52   30.00
  -1   3  -9  788.32   32.00
  -1   3  -9  774.72   31.70
  -1   3  -9  751.52   32.00
   1  -3   9  821.32   31.30
   1  -3   9  761.02   32.20
   1  -3   9  783.82   31.00
   1  -3   9  808.52   31.60
  -2   3  -9  147.09   14.60
  -2   3  -9  145.49   14.70
  -2   3  -9  147.99   16.30
  -2   3  -9  171.48   15.10
   2  -3   9  144.99   14.40
   2  -3   9  152.38   15.20
   2  -3   9  164.48   16.50
   2  -3   9  162.08   15.50
  -3   3  -9  204.98   18.70
  -3   3  -9  162.28   17.50
  -3   3  -9  197.48   17.10
  -3   3  -9  173.68   18.30
   3  -3   9  167.28   18.00
   3  -3   9  149.49   16.00
   3  -3   9  171.98   17.90
   3  -3   9  180.08   15.40
  -4   3  -9   83.39   12.10
  -4   3  -9   80.49   13.00
  -4   3  -9   70.79   14.40
   4  -3   9   91.09   12.70
   4  -3   9  100.49   13.40
   4  -3   9   92.29   13.40
   4  -3   9   87.59   13.00
  -5   3  -9  417.46   24.00
  -5   3  -9  420.56   28.40
  -5   3  -9  366.96   26.80
   5  -3   9  364.26   26.50
   5  -3   9  407.76   27.30
   5  -3   9  378.86   25.20
   5  -3   9  363.96   24.20
  -6   3  -9   26.70   15.90
  -6   3  -9    7.90   12.50
  -6   3  -9   25.90   17.00
  -6   3  -9   -5.70   13.40
   6  -3   9    2.10   14.00
   6  -3   9   -7.20   15.50
   6  -3   9    5.70   15.00
   6   2  -9  512.95   28.10
   6   2  -9  526.05   30.80
   6   2  -9  501.25   29.80
   6   2  -9  524.75   28.60
  -6  -2   9  562.84   30.00
  -6  -2   9  504.75   27.30
  -6  -2   9  515.25   26.50
  -6  -2   9  539.05   28.00
   5   2  -9   59.99   11.60
   5   2  -9   42.40   11.20
   5   2  -9   57.79   11.60
  -5  -2   9   46.00   10.00
  -5  -2   9   34.00   11.10
  -5  -2   9   39.40    9.50
  -5  -2   9   51.09   10.20
  -5  -2   9   60.89   11.00
   4   2  -9  156.78   15.90
   4   2  -9  160.28   16.90
   4   2  -9  147.19   15.80
   4   2  -9  173.48   16.80
  -4  -2   9  182.88   14.40
  -4  -2   9  154.58   13.80
  -4  -2   9  163.48   16.20
  -4  -2   9  178.78   15.10
  -4  -2   9  154.88   14.80
   3   2  -9  707.23   30.60
   3   2  -9  726.83   29.70
   3   2  -9  675.03   23.60
   3   2  -9  744.33   29.40
   3   2  -9  723.53   29.90
  -3  -2   9  688.63   29.20
  -3  -2   9  703.73   28.40
  -3  -2   9  713.83   29.90
  -3  -2   9  726.63   28.70
   2   2  -9  862.11   35.10
   2   2  -9  833.72   34.80
   2   2  -9  966.50   35.60
   2   2  -9  902.71   36.60
   2   2  -9 1014.40   31.40
  -2  -2   9  959.20   34.70
  -2  -2   9  876.81   34.60
  -2  -2   9  947.11   35.30
   1   2  -9   68.69   11.00
   1   2  -9   79.69    9.00
   1   2  -9   76.49    9.80
   1   2  -9   93.09   11.10
   1   2  -9   75.59   10.90
  -1  -2   9   71.19    9.00
  -1  -2   9   68.89    9.00
  -1  -2   9   90.99   10.40
  -1  -2   9   84.29   11.00
   0   2  -9    8.30    7.30
   0   2  -9   -0.10    6.90
   0   2  -9    7.80    8.20
   0   2  -9   -0.20    7.80
   0   2  -9    7.90    5.80
   0  -2   9   19.10    7.00
   0  -2   9    3.90    6.40
   0  -2   9   10.80    7.50
   0  -2   9   12.00    9.10
  -1   2  -9 1142.19   39.90
  -1   2  -9 1124.99   38.90
  -1   2  -9 1101.89   40.20
  -1   2  -9  950.80   39.40
   1  -2   9 1089.39   40.40
   1  -2   9 1134.39   40.80
   1  -2   9 1107.79   39.30
   1  -2   9 1051.29   39.00
  -2   2  -9  230.78   17.20
  -2   2  -9  229.98   17.90
  -2   2  -9  253.17   16.00
  -2   2  -9  241.98   17.30
   2  -2   9  217.28   16.80
   2  -2   9  228.68   16.70
   2  -2   9  239.68   16.90
   2  -2   9  231.38   17.50
  -3   2  -9  506.55   24.50
  -3   2  -9  461.05   24.80
  -3   2  -9  484.65   25.30
  -3   2  -9  486.95   24.60
   3  -2   9  484.65   24.40
   3  -2   9  469.65   23.60
   3  -2   9  496.55   24.30
   3  -2   9  492.75   24.80
  -4   2  -9   85.29   13.80
  -4   2  -9  103.39   12.90
  -4   2  -9   90.39   13.20
   4  -2   9  104.79   13.60
   4  -2   9  108.99   14.50
   4  -2   9  112.29   13.70
   4  -2   9  114.59   13.30
  -5   2  -9  462.95   28.90
  -5   2  -9  488.75   29.70
  -5   2  -9  448.46   28.20
  -5   2  -9  499.05   27.50
   5  -2   9  430.86   27.10
   5  -2   9  437.96   28.40
   5  -2   9  468.05   27.60
  -6   2  -9  236.78   27.90
  -6   2  -9  212.68   26.10
  -6   2  -9  197.28   19.50
  -6   2  -9  213.08   24.80
   6  -2   9  249.88   27.30
   6  -2   9  217.58   25.20
   6  -2   9  176.68   23.50
   6  -2   9  238.28   26.20
   7   1  -9   44.20   16.80
   7   1  -9   45.60   17.30
   7   1  -9   29.30   14.20
   7   1  -9   43.00   14.60
  -7  -1   9   46.20   15.20
  -7  -1   9   40.30   12.40
  -7  -1   9   65.69   12.10
  -7  -1   9   56.09   13.30
  -7  -1   9   14.20   10.60
   6   1  -9  609.84   30.70
   6   1  -9  610.94   31.50
   6   1  -9  628.74   32.00
   6   1  -9  675.13   30.20
  -6  -1   9  586.14   29.30
  -6  -1   9  634.94   30.80
  -6  -1   9  632.34   29.20
  -6  -1   9  659.43   29.30
  -6  -1   9  664.03   29.80
   5   1  -9  423.36   24.10
   5   1  -9  428.46   22.20
  -5  -1   9  421.76   21.00
  -5  -1   9  447.56   23.50
  -5  -1   9  427.16   21.80
  -5  -1   9  384.86   21.50
   4   1  -9  329.27   19.20
   4   1  -9  310.57   20.20
   4   1  -9  317.27   18.30
  -4  -1   9  342.07   17.60
  -4  -1   9  317.87   20.20
  -4  -1   9  301.37   18.30
  -4  -1   9  338.87   18.50
  -4  -1   9  321.77   17.50
   3   1  -9 1029.60   37.40
   3   1  -9  930.01   37.40
   3   1  -9 1031.10   37.20
   3   1  -9 1022.10   38.80
  -3  -1   9  998.50   36.50
  -3  -1   9 1059.59   37.00
  -3  -1   9 1027.20   38.50
   2   1  -9  151.78   15.30
   2   1  -9  136.39    9.80
   2   1  -9  139.59   13.40
   2   1  -9  109.79   13.50
   2   1  -9  132.89   12.70
  -2  -1   9  148.09   12.00
  -2  -1   9  136.59   14.10
  -2  -1   9  113.99   12.40
  -2  -1   9  129.19   12.10
   1   1  -9 1664.03   54.09
   1   1  -9 1654.73   57.69
   1   1  -9 1604.54   56.29
   1   1  -9 1657.13   55.69
   1   1  -9 1683.53   55.99
  -1  -1   9 1637.44   57.49
  -1  -1   9 1637.24   54.79
  -1  -1   9 1633.04   55.19
  -1  -1   9 1636.54   54.79
   0   1  -9   37.40    7.50
   0   1  -9   39.80    8.30
   0   1  -9   37.80    7.60
   0   1  -9   44.30    8.00
   0  -1   9   34.60    6.90
   0  -1   9   43.50    5.00
   0  -1   9   46.20    7.90
   0  -1   9   32.70    6.70
   0  -1   9   38.20    9.60
  -1   1  -9   76.09    9.20
  -1   1  -9   71.49    9.00
  -1   1  -9   78.99    9.30
  -1   1  -9   72.69    9.60
   1  -1   9   69.19    8.60
   1  -1   9   75.79    9.50
   1  -1   9   75.99   11.80
   1  -1   9   85.39    8.70
  -2   1  -9 1479.05   50.99
  -2   1  -9 1475.25   50.49
  -2   1  -9 1414.06   50.59
  -2   1  -9 1452.45   51.09
   2  -1   9 1471.25   49.90
   2  -1   9 1461.65   49.80
   2  -1   9 1440.76   51.69
   2  -1   9 1366.26   50.69
  -3   1  -9  297.67   19.60
  -3   1  -9  294.07   18.80
  -3   1  -9  282.97   19.20
   3  -1   9  286.57   19.00
   3  -1   9  306.87   19.10
   3  -1   9  298.97   18.10
   3  -1   9  307.77   21.10
  -4   1  -9    0.60   10.70
  -4   1  -9   30.40   11.20
  -4   1  -9   16.70   10.10
   4  -1   9    4.40   10.00
   4  -1   9   13.30   10.40
   4  -1   9   23.90   10.30
   4  -1   9    1.30   10.30
  -5   1  -9   78.49   14.70
  -5   1  -9   90.29   15.00
  -5   1  -9  105.39   16.00
  -5   1  -9   90.29   14.70
   5  -1   9   71.89   14.30
   5  -1   9   86.89   14.70
   5  -1   9   78.49   14.20
   5  -1   9  103.39   17.10
   7   0  -9  -14.30   12.10
   7   0  -9   14.80   13.60
   7   0  -9   -2.30   13.00
  -7   0   9    0.30   10.50
  -7   0   9    9.70   10.70
  -7   0   9  -21.10   10.00
  -7   0   9    1.10   11.60
  -7   0   9    6.80   12.90
   6   0  -9  162.88   20.70
   6   0  -9  159.28   19.30
   6   0  -9  145.99   16.30
   6   0  -9  193.58   17.20
  -6   0   9  180.68   16.80
  -6   0   9  148.89   16.50
  -6   0   9  133.09   16.30
  -6   0   9  186.08   19.30
  -6   0   9  133.69   14.40
   5   0  -9  180.18   16.30
   5   0  -9  147.09   14.60
  -5   0   9  146.89   15.50
  -5   0   9  130.39   16.40
  -5   0   9  163.38   14.30
  -5   0   9  135.19   13.80
   4   0  -9  167.08   13.90
   4   0  -9  171.98   20.10
   4   0  -9  154.68   13.70
   4   0  -9  170.88   15.60
  -4   0   9  157.68   15.20
  -4   0   9  166.68   13.10
  -4   0   9  148.09   12.40
  -4   0   9  157.48   13.20
  -4   0   9  145.99   13.10
   3   0  -9  120.59   14.30
   3   0  -9  133.79   12.40
   3   0  -9  124.19   12.70
   3   0  -9  141.89   11.90
  -3   0   9  135.19   11.30
  -3   0   9  135.59   11.80
  -3   0   9  138.49   13.20
  -3   0   9  114.89   10.90
  -3   0   9  126.99   11.00
   2   0  -9   46.70    8.10
   2   0  -9   48.00    6.70
   2   0  -9   40.60    6.70
   2   0  -9   43.70    7.80
   2   0  -9   64.29   11.80
  -2   0   9   37.60    7.00
  -2   0   9   66.49   11.60
  -2   0   9   46.90    6.50
  -2   0   9   51.69    7.10
   1   0  -9 1080.29   36.40
   1   0  -9  928.81   39.30
   1   0  -9 1034.10   35.90
   1   0  -9 1035.20   36.20
   1   0  -9 1048.00   37.10
  -1   0   9 1023.00   39.30
  -1   0   9 1036.50   35.30
  -1   0   9 1075.59   35.40
  -1   0   9 1031.30   35.70
   0   0  -9  279.27   15.10
   0   0  -9  265.67   14.40
   0   0  -9  282.77   15.50
   0   0  -9  295.27   15.70
   0   0   9  282.77   13.70
   0   0   9  261.17   18.50
   0   0   9  262.17   13.50
   0   0   9  282.47   14.50
   0   0   9  267.67   13.10
  -1   0  -9  186.18   13.10
  -1   0  -9  184.88   13.80
  -1   0  -9  186.18   14.00
  -1   0  -9  194.28   14.00
   1   0   9  172.08   12.90
   1   0   9  197.48   17.30
   1   0   9  197.88   12.60
   1   0   9  204.58   12.60
  -2   0  -9 1634.94   56.29
  -2   0  -9 1640.54   57.09
  -2   0  -9 1663.63   56.09
  -2   0  -9 1638.64   55.99
   2   0   9 1550.94   55.89
   2   0   9 1669.53   55.19
   2   0   9 1677.73   55.59
   2   0   9 1671.33   58.59
  -3   0  -9   -6.20    8.70
  -3   0  -9   -3.00    9.70
  -3   0  -9   -1.30    8.80
   3   0   9    5.90    8.00
   3   0   9   11.70   11.60
   3   0   9   -1.30    8.00
   3   0   9    4.20    7.90
  -4   0  -9  784.22   33.80
  -4   0  -9  761.02   34.30
  -4   0  -9  741.23   34.90
   4   0   9  795.82   32.90
   4   0   9  748.83   32.70
   4   0   9  705.83   32.20
  -5   0  -9  139.29   15.40
  -5   0  -9  102.39   16.40
  -5   0  -9  100.89   14.90
  -5   0  -9  116.79   16.20
   5   0   9   84.59   14.00
   5   0   9  142.39   15.70
   5   0   9  115.29   15.20
   7  -1  -9  786.62   36.40
   7  -1  -9  787.52   37.00
  -7   1   9  859.51   35.50
  -7   1   9  744.83   33.40
  -7   1   9  757.42   35.80
   6  -1  -9  135.89   15.10
   6  -1  -9  148.39   18.20
   6  -1  -9  156.68   15.40
   6  -1  -9  141.09   16.60
  -6   1   9  148.69   17.90
  -6   1   9  163.48   16.70
  -6   1   9  155.18   16.90
  -6   1   9  160.08   15.50
  -6   1   9  156.08   15.10
   5  -1  -9   93.49   11.10
   5  -1  -9  130.49   14.10
   5  -1  -9  124.59   14.20
   5  -1  -9  142.89   17.20
  -5   1   9  117.39   12.50
  -5   1   9  125.29   11.20
  -5   1   9  134.49   12.70
  -5   1   9  120.39   12.80
   4  -1  -9 1562.04   52.19
   4  -1  -9 1565.14   52.39
   4  -1  -9 1607.44   52.89
   4  -1  -9 1618.14   55.89
  -4   1   9 1558.44   51.89
  -4   1   9 1457.45   51.69
  -4   1   9 1532.05   51.79
  -4   1   9 1538.25   51.69
   3  -1  -9  288.67   15.60
   3  -1  -9  286.97   19.90
   3  -1  -9  286.87   14.60
   3  -1  -9  300.07   14.30
  -3   1   9  300.37   14.50
  -3   1   9  291.27   21.10
  -3   1   9  299.87   14.50
  -3   1   9  290.67   13.50
  -3   1   9  260.47   14.10
   2  -1  -9  226.78   13.90
   2  -1  -9  216.78   11.80
   2  -1  -9  240.08   18.80
   2  -1  -9  217.58   12.50
  -2   1   9  238.18   11.30
  -2   1   9  215.28   18.80
  -2   1   9  252.77   11.40
  -2   1   9  247.18   12.00
  -2   1   9  236.08   11.40
  -2   1   9  215.58   16.50
   1  -1  -9  470.05   19.30
   1  -1  -9  458.95   20.60
   1  -1  -9  469.85   18.20
  -1   1   9  468.75   17.20
  -1   1   9  476.45   20.60
  -1   1   9  457.55   23.40
  -1   1   9  493.85   17.50
  -1   1   9  461.35   17.50
   0  -1  -9  918.11   32.00
   0  -1  -9  895.71   33.70
   0  -1  -9  813.42   31.30
   0   1   9  889.71   30.40
   0   1   9  909.71   35.50
   0   1   9  908.61   32.10
   0   1   9  922.41   30.40
   0   1   9  935.01   31.30
  -1  -1  -9    5.20    6.10
  -1  -1  -9   10.20    6.80
  -1  -1  -9   12.20    8.50
  -1  -1  -9   13.50    6.30
   1   1   9   16.50    5.50
   1   1   9   35.50   11.00
   1   1   9    9.30    6.30
   1   1   9   11.50    5.70
  -2  -1  -9   15.00   10.00
  -2  -1  -9   18.70    7.80
  -2  -1  -9   24.10    8.40
  -2  -1  -9   15.80    7.70
   2   1   9   28.10    6.90
   2   1   9   22.70    7.40
   2   1   9   16.20   11.10
   2   1   9   36.90    7.90
  -3  -1  -9  214.28   17.20
  -3  -1  -9  254.57   19.10
  -3  -1  -9  282.57   18.20
   3   1   9  262.07   16.80
   3   1   9  303.77   17.60
   3   1   9  275.47   17.30
  -4  -1  -9  358.56   22.30
  -4  -1  -9  389.66   24.10
  -4  -1  -9  334.97   31.50
  -4  -1  -9  394.66   25.10
  -4  -1  -9  332.57   15.60
   4   1   9  352.36   22.00
   4   1   9  363.86   25.90
   4   1   9  360.16   22.10
   4   1   9  350.06   20.60
  -5  -1  -9   42.30   13.30
  -5  -1  -9   76.19   15.30
  -5  -1  -9   12.90   11.60
  -5  -1  -9   12.70   12.50
   5   1   9   35.40   12.80
   5   1   9   29.50   12.20
   5   1   9   45.30   12.60
   6  -2  -9   15.10   10.60
   6  -2  -9   31.70   12.20
  -6   2   9   26.40    9.40
  -6   2   9   23.40    8.20
  -6   2   9   33.00    8.40
  -6   2   9   39.90    8.90
  -6   2   9   29.60   13.00
   5  -2  -9  113.29   13.90
   5  -2  -9  115.69   13.90
  -5   2   9   93.09   11.30
  -5   2   9  123.49   11.20
  -5   2   9  111.29   11.90
  -5   2   9  134.69   17.50
  -5   2   9  105.49   11.70
   4  -2  -9  320.47   16.20
   4  -2  -9  332.67   21.70
   4  -2  -9  311.67   15.20
   4  -2  -9  329.17   16.30
  -4   2   9  327.27   15.00
  -4   2   9  308.67   14.00
  -4   2   9  329.07   15.50
  -4   2   9  330.87   15.40
  -4   2   9  323.07   15.00
   3  -2  -9    2.40    5.30
   3  -2  -9    4.80    5.00
   3  -2  -9    3.60    4.50
   3  -2  -9   -0.40   10.30
  -3   2   9    5.60    4.00
  -3   2   9   11.00    8.60
  -3   2   9   13.30   11.10
  -3   2   9   -1.50    5.60
  -3   2   9    4.30    4.70
  -3   2   9    4.50    3.70
  -3   2   9    6.20    4.30
   2  -2  -9  751.22   26.00
   2  -2  -9  777.82   25.30
   2  -2  -9  764.82   26.00
   2  -2  -9  783.02   33.00
  -2   2   9  791.92   32.90
  -2   2   9  762.52   28.90
  -2   2   9  754.82   24.60
  -2   2   9  782.42   31.00
  -2   2   9  785.12   24.80
  -2   2   9  758.42   31.50
   1  -2  -9   11.70    3.80
   1  -2  -9   13.60    3.30
   1  -2  -9    5.70    7.60
  -1   2   9   20.90    7.80
  -1   2   9   11.90    8.60
  -1   2   9   18.30   10.50
  -1   2   9    4.80    6.80
   0  -2  -9  468.75   18.30
   0  -2  -9  440.66   22.30
   0  -2  -9  449.46   17.20
   0  -2  -9  478.05   17.60
   0   2   9  412.06   24.00
   0   2   9  441.66   15.70
   0   2   9  438.46   20.90
   0   2   9  473.25   16.40
   0   2   9  435.76   15.90
   0   2   9  479.65   21.10
  -1  -2  -9  912.71   31.40
  -1  -2  -9  931.81   35.70
  -1  -2  -9  927.91   33.00
  -1  -2  -9  878.81   32.30
  -1  -2  -9  890.21   32.80
   1   2   9  859.71   32.20
   1   2   9  968.50   31.50
   1   2   9  955.90   31.40
   1   2   9  955.40   36.20
  -2  -2  -9  165.68   16.00
  -2  -2  -9  151.08   13.80
  -2  -2  -9  148.79   12.00
  -2  -2  -9  152.48   13.50
   2   2   9  132.89   12.10
   2   2   9  143.89   12.60
   2   2   9  167.78   12.00
  -3  -2  -9  203.38   16.60
  -3  -2  -9  199.28   13.10
  -3  -2  -9  215.78   18.60
  -3  -2  -9  222.68   16.80
   3   2   9  187.38   14.60
   3   2   9  207.48   15.70
   3   2   9  220.48   21.00
   3   2   9  217.98   15.20
  -4  -2  -9  317.17   16.70
  -4  -2  -9  280.97   21.10
  -4  -2  -9  337.87   24.30
  -4  -2  -9  295.27   21.80
   4   2   9  290.77   20.00
   4   2   9  303.27   20.90
   4   2   9  294.27   20.70
   6  -3  -9  791.32   36.00
   6  -3  -9  804.32   32.30
  -6   3   9  744.63   29.70
  -6   3   9  754.12   29.80
  -6   3   9  784.42   30.60
  -6   3   9  800.62   36.00
  -6   3   9  800.22   29.90
   5  -3  -9  128.49   15.40
   5  -3  -9  110.99   12.80
  -5   3   9  118.29   10.80
  -5   3   9   92.79   10.20
  -5   3   9   97.49   10.90
  -5   3   9  108.29    9.40
  -5   3   9  105.49   11.20
   4  -3  -9   87.89   10.00
   4  -3  -9   91.39   13.80
  -4   3   9   95.69    7.70
  -4   3   9   90.69    7.70
  -4   3   9   74.69    6.40
  -4   3   9   70.79    8.50
  -4   3   9  100.89   10.40
   3  -3  -9  515.65   17.90
   3  -3  -9  483.25   26.60
   3  -3  -9  517.85   18.30
  -3   3   9  505.55   27.90
  -3   3   9  523.45   25.50
  -3   3   9  498.65   25.40
  -3   3   9  525.65   21.60
  -2   3   9   16.40   10.60
  -2   3   9    1.60    9.00
  -2   3   9   11.80    8.90
  -2   3   9    7.80    6.90
  -1   3   9   34.30    8.10
  -1   3   9   26.30    8.90
  -1   3   9   30.70    9.30
  -1   3   9   27.60   10.40
   0  -3  -9   50.39   11.00
   0  -3  -9   57.49    7.20
   0  -3  -9   55.69    5.70
   0   3   9   73.19   10.50
   0   3   9   54.89    9.60
   0   3   9   61.29   10.40
   0   3   9   54.69   11.90
  -1  -3  -9   52.89    6.20
  -1  -3  -9   61.19    6.90
  -1  -3  -9   56.99    6.00
  -1  -3  -9   50.59   11.10
  -1  -3  -9   50.19    7.30
   1   3   9   55.39    5.80
   1   3   9   53.89    5.70
   1   3   9   51.19    5.40
   1   3   9   71.29   11.90
  -2  -3  -9  100.99   13.20
  -2  -3  -9   94.99   13.00
   2   3   9  112.49   13.20
   2   3   9  105.39   10.70
   2   3   9   98.29   13.40
  -3  -3  -9  -16.40   10.80
  -3  -3  -9   10.30    6.60
  -3  -3  -9   14.10    8.40
  -3  -3  -9    6.90    7.60
  -3  -3  -9   -3.00    5.80
   3   3   9    7.40    7.20
   3   3   9   14.00    7.90
   3   3   9   11.30   14.40
  -4  -3  -9  -18.40    6.10
  -4  -3  -9   15.60    8.40
  -4  -3  -9   -4.70    9.50
  -4  -3  -9   10.50   12.80
  -4  -3  -9    2.30    8.70
  -4  -3  -9   -6.80   10.60
   4   3   9   -4.50    8.30
   4   3   9    3.20    9.70
   6  -4  -9   81.59   12.40
   6  -4  -9   43.60   14.60
  -6   4   9   60.69    8.30
  -6   4   9   69.99    8.30
  -6   4   9   49.20    7.70
  -6   4   9   37.20   14.20
  -6   4   9   50.79    7.90
  -6   4   9   58.39    6.40
   5  -4  -9    9.50   13.00
   5  -4  -9   10.70    6.70
  -5   4   9    8.50    6.30
  -5   4   9    9.90    4.70
  -5   4   9    7.40    4.00
  -5   4   9   -6.10   12.00
  -5   4   9   12.00    5.00
  -5   4   9   10.10    5.10
   4  -4  -9  295.37   12.30
   4  -4  -9  304.47   22.40
  -4   4   9  318.67   22.40
  -4   4   9  304.57   23.30
  -4   4   9  292.17   16.20
  -4   4   9  283.07   25.00
  -3   4   9  191.28   18.10
  -3   4   9  189.08   14.50
  -3   4   9  171.68   18.70
  -3   4   9  182.88   18.30
  -2   4   9   55.19    9.40
  -2   4   9   83.69   12.60
  -2   4   9   66.79   11.60
  -2   4   9   78.89   14.20
  -1   4   9  656.93   28.30
  -1   4   9  644.24   29.10
  -1   4   9  684.03   28.60
  -1   4   9  644.44   30.40
   0   4   9   52.59   10.10
   0   4   9   62.49   11.50
   0   4   9   57.29   11.30
   0   4   9   66.49   14.40
  -1  -4  -9    0.80   11.10
  -1  -4  -9   15.80    5.20
  -1  -4  -9   13.10    4.20
  -1  -4  -9   17.00    6.10
   1   4   9   10.30   11.00
   1   4   9   11.20   12.90
   1   4   9   11.50    8.80
  -2  -4  -9  579.04   23.10
  -2  -4  -9  560.14   30.00
  -2  -4  -9  560.34   23.70
   2   4   9  550.34   24.70
   2   4   9  530.95   22.50
   2   4   9  602.24   32.60
   2   4   9  562.84   30.20
   2   4   9  547.75   22.00
  -3  -4  -9  106.39   11.90
  -3  -4  -9  110.89   11.30
  -3  -4  -9   90.09   15.70
  -3  -4  -9  112.69   11.90
   3   4   9  108.69   14.30
   3   4   9  127.99   14.50
   3   4   9   77.99   15.00
   3   4   9  111.09   11.20
   3   4   9  107.39   18.10
   5  -5  -9   95.49    8.60
  -5   5   9  108.99   18.00
  -5   5   9   91.99   14.80
  -5   5   9  102.99   10.10
  -4   5   9   10.10    8.00
  -4   5   9   15.40   14.20
  -4   5   9  -15.80   11.90
  -4   5   9    8.70   15.60
  -3   5   9  199.48   21.70
  -3   5   9  260.87   23.40
  -3   5   9  261.67   17.10
  -3   5   9  222.38   20.40
  -2   5   9   -1.90   10.40
  -2   5   9   18.40    9.40
  -2   5   9   14.00   11.10
  -2   5   9    6.20   11.60
  -1   5   9   37.30   12.80
  -1   5   9   23.50    9.80
  -1   5   9   36.40   11.40
  -1   5   9   21.60   10.00
   0   5   9  155.18   17.70
   0   5   9  121.79   13.80
   0   5   9  115.69   14.40
   0   5   9  156.78   15.80
  -1  -5  -9   79.69    8.80
   1   5   9   99.79   17.70
   1   5   9   92.89   15.30
   1   5   9   66.19   10.20
  -2  -5  -9    9.50    7.50
  -2  -5  -9  -12.30    4.50
  -2  -5  -9   13.90    7.20
   2   5   9   21.10    8.80
   2   5   9   20.10    6.00
   2   5   9   -0.80   15.30
   2   5   9    4.70    5.70
   2   5   9   34.10   13.80
  -4   6   9  221.58   25.00
  -4   6   9  231.48   23.30
  -4   6   9  294.87   22.90
  -4   6   9  278.67   19.30
  -3   6   9  365.56   21.60
  -3   6   9  371.26   27.00
  -3   6   9  381.56   27.90
  -3   6   9  371.96   24.00
  -2   6   9   42.70   12.90
  -2   6   9   41.10   12.10
  -2   6   9   32.50   13.30
  -2   6   9   46.60   11.50
  -1   6   9  156.88   16.80
  -1   6   9  178.88   18.40
  -1   6   9  157.08   15.70
  -1   6   9  183.68   22.00
   0   6   9  539.05   30.00
   0   6   9  571.94   32.30
   0   6   9  576.24   31.30
   0   6   9  523.05   25.90
   1   6   9   -1.80   12.30
   1   6   9    9.40    9.20
   1   6   9   -7.20   15.80
  -3   7   9   12.00   11.70
  -3   7   9   -5.60   14.40
  -3   7   9  -12.80   11.40
  -3   7   9   22.60   15.60
  -2   7   9   -8.60   14.00
  -2   7   9   21.20   13.90
  -2   7   9    7.50   12.30
  -2   7   9   -7.50   10.60
  -1   7   9   77.79   15.90
  -1   7   9   81.89   14.70
  -1   7   9   73.79   12.60
  -1   7   9  141.79   18.10
   1  11 -10   79.49   13.40
   1  11 -10   98.19   22.80
   1  11 -10   63.79   20.90
   1  11 -10   78.89   21.10
  -1 -11  10   48.60   15.00
  -1 -11  10  157.28   22.90
  -1 -11  10   76.09   19.60
  -1 -11  10   59.29   22.20
   0  11 -10   72.39   21.80
   0  11 -10   72.09   19.60
   0  11 -10   68.99   12.30
   0  11 -10   26.10   19.30
   0 -11  10   75.29   19.10
   0 -11  10   53.29   15.30
   0 -11  10   82.59   21.10
   0 -11  10   45.10   19.70
  -1  11 -10   -8.40   10.30
  -1  11 -10   18.60   16.90
  -1  11 -10   -9.50   18.00
  -1  11 -10   37.60   19.50
   1 -11  10   15.80   17.60
   1 -11  10   -8.80   12.20
   1 -11  10   21.10   18.10
   1 -11  10   -2.30   19.20
  -2  11 -10   11.00   17.30
  -2  11 -10    0.80   10.00
  -2  11 -10   27.30   17.70
  -2  11 -10  -11.90   18.20
   2 -11  10   32.20   20.80
   2 -11  10  -15.70   18.90
   2 -11  10   25.50   19.20
   2 -11  10  -14.40   11.50
  -3  11 -10   32.80   19.20
  -3  11 -10   10.40   19.00
  -3  11 -10    3.60   21.60
   3 -11  10   28.40   21.00
   3 -11  10   38.50   23.70
   3 -11  10   54.69   21.30
   2  10 -10  176.78   22.30
   2  10 -10  194.78   23.30
   2  10 -10  209.58   19.80
   2  10 -10  136.29   23.40
  -2 -10  10  218.48   24.50
  -2 -10  10  176.98   21.80
  -2 -10  10  166.98   22.10
  -2 -10  10  149.99   25.80
   1  10 -10   45.40   18.40
   1  10 -10    6.00   17.90
   1  10 -10  -24.00   15.00
   1  10 -10   17.10   10.70
  -1 -10  10    0.10   15.70
  -1 -10  10   20.50   12.10
  -1 -10  10   36.50   16.30
  -1 -10  10   30.80   20.90
   0  10 -10   18.40   18.80
   0  10 -10  -20.10   16.70
   0  10 -10   19.50   10.50
   0  10 -10    3.40   18.40
   0 -10  10  -21.10   18.30
   0 -10  10   14.70   12.30
   0 -10  10    6.60   17.00
   0 -10  10   24.00   15.50
  -1  10 -10  446.26   34.10
  -1  10 -10  439.46   23.20
  -1  10 -10  514.95   33.70
  -1  10 -10  409.16   31.40
   1 -10  10  514.65   34.10
   1 -10  10  498.65   32.80
   1 -10  10  393.46   32.40
   1 -10  10  441.06   27.20
  -2  10 -10   27.20   18.10
  -2  10 -10   -0.80   17.40
  -2  10 -10  -29.50   17.30
  -2  10 -10    4.10    9.90
   2 -10  10    6.00   16.70
   2 -10  10   -1.50   16.50
   2 -10  10    7.50   10.00
   2 -10  10   16.50   18.90
  -3  10 -10    9.20   16.70
  -3  10 -10   -1.00   18.90
  -3  10 -10  -10.50   16.70
   3 -10  10   20.40   19.40
   3 -10  10   48.80   19.00
   3 -10  10   15.00   18.60
  -4  10 -10   78.09   19.70
  -4  10 -10  159.38   24.30
  -4  10 -10   90.59   25.10
   4 -10  10  120.09   23.00
   4 -10  10  112.19   24.30
   4 -10  10  139.29   25.40
   3   9 -10  -12.60   11.50
   3   9 -10   10.70   17.70
   3   9 -10   -2.40   18.70
   3   9 -10   18.20   19.80
  -3  -9  10   17.80   18.10
  -3  -9  10   -5.60   19.30
  -3  -9  10   -5.00   13.20
  -3  -9  10    6.00   17.70
   2   9 -10   -6.80   17.10
   2   9 -10    7.40   18.30
   2   9 -10   10.10   18.40
   2   9 -10    8.00   10.80
  -2  -9  10  -16.50   16.90
  -2  -9  10   -7.20   11.90
  -2  -9  10   11.60   14.50
  -2  -9  10   -8.10   14.20
   1   9 -10  -20.10   14.90
   1   9 -10   10.70   15.50
   1   9 -10   28.30   16.60
   1   9 -10   20.00   10.80
  -1  -9  10   25.40   15.70
  -1  -9  10    8.50   10.70
  -1  -9  10   10.30   17.50
  -1  -9  10   26.40   15.20
   0   9 -10    2.20    9.70
   0   9 -10   10.00   15.60
   0   9 -10   26.20   15.80
   0   9 -10  -22.50   14.90
   0  -9  10    1.50   14.40
   0  -9  10   11.50   10.30
   0  -9  10  -17.50   14.40
   0  -9  10    0.20   15.00
  -1   9 -10   14.10   15.70
  -1   9 -10   18.70   15.60
  -1   9 -10   -4.40    8.90
  -1   9 -10  -11.90   15.80
   1  -9  10   -0.70   15.80
   1  -9  10   -4.70   14.60
   1  -9  10   -4.90    9.30
   1  -9  10   15.00   15.30
  -2   9 -10   -8.70   14.70
  -2   9 -10    4.70   10.20
  -2   9 -10   28.40   15.50
  -2   9 -10   18.30   18.50
   2  -9  10    8.10   15.00
   2  -9  10    4.90    8.00
   2  -9  10    0.40   17.30
   2  -9  10  -11.10   15.70
  -3   9 -10   90.59   18.40
  -3   9 -10   71.79   19.50
  -3   9 -10   36.20   17.90
   3  -9  10   64.89   18.00
   3  -9  10   58.59   19.70
   3  -9  10   72.49   17.80
  -4   9 -10   -1.50   17.70
  -4   9 -10   22.70   19.40
  -4   9 -10   -5.50   17.50
   4  -9  10  -19.00   17.20
   4  -9  10    0.30   17.60
   4  -9  10   -7.50   16.80
   4   8 -10   -1.80   17.10
   4   8 -10    5.30   12.50
   4   8 -10   -6.60   16.80
   4   8 -10   -2.30    7.10
   4   8 -10   50.19   19.40
  -4  -8  10   12.10   11.10
  -4  -8  10   -4.70   20.00
  -4  -8  10   33.40   17.30
  -4  -8  10   20.40   16.60
   3   8 -10   88.49   20.10
   3   8 -10   60.19   18.20
   3   8 -10   66.49   18.10
   3   8 -10   80.09   12.90
  -3  -8  10   40.50   19.10
  -3  -8  10   63.29   16.90
  -3  -8  10   79.49   16.80
   2   8 -10  218.58   26.90
   2   8 -10  226.78   17.90
   2   8 -10  214.18   24.50
   2   8 -10  199.88   23.40
  -2  -8  10  216.08   25.10
  -2  -8  10  249.97   22.60
  -2  -8  10  182.78   23.70
   1   8 -10  105.99   18.30
   1   8 -10  156.18   16.00
   1   8 -10  205.88   23.40
   1   8 -10  130.39   18.50
  -1  -8  10  125.49   13.70
  -1  -8  10  143.09   17.30
  -1  -8  10  124.69   18.70
  -1  -8  10  145.59   17.30
   0   8 -10    0.60    9.10
   0   8 -10   29.10   14.20
   0   8 -10    9.50   14.00
   0   8 -10   14.30   14.30
   0  -8  10  -11.80   13.40
   0  -8  10   18.70   13.30
   0  -8  10   20.80    9.10
   0  -8  10   10.20   12.50
  -1   8 -10    9.70   14.60
  -1   8 -10   30.90    9.90
  -1   8 -10   20.90   15.80
  -1   8 -10   24.50   15.20
   1  -8  10   22.20   13.90
   1  -8  10   29.20    8.80
   1  -8  10   21.60   16.20
   1  -8  10   48.00   15.20
  -2   8 -10   88.09   12.20
  -2   8 -10   71.39   17.20
  -2   8 -10   84.99   18.70
  -2   8 -10  104.09   17.40
   2  -8  10  103.39   16.40
   2  -8  10   72.89   15.50
   2  -8  10   64.19   17.70
  -3   8 -10    0.80   14.90
  -3   8 -10   14.60   15.80
  -3   8 -10    7.20   14.30
   3  -8  10   16.00   14.60
   3  -8  10    5.20   14.40
   3  -8  10   19.00   17.40
  -4   8 -10  -14.50   15.30
  -4   8 -10   13.60   15.80
  -4   8 -10    7.70   19.30
   4  -8  10    8.60   15.70
   4  -8  10   -6.20   15.20
   4  -8  10   -4.30   18.30
  -5   8 -10   20.40   21.10
  -5   8 -10   36.90   20.20
  -5   8 -10   26.90   18.30
   5  -8  10   49.20   18.80
   5  -8  10    4.00    6.80
   5  -8  10    9.60   18.10
   5  -8  10   24.20   18.10
   5   7 -10   55.29   30.90
  -5  -7  10   37.40   16.90
   4   7 -10  -22.30   14.70
   4   7 -10   -7.00    5.10
   4   7 -10   42.70   16.60
   4   7 -10   22.00   19.00
   4   7 -10   23.70   12.00
  -4  -7  10    5.80   18.50
  -4  -7  10   10.80   14.40
  -4  -7  10   -0.80   13.50
  -4  -7  10   10.50   11.80
   3   7 -10   52.89   18.30
   3   7 -10   27.00   16.00
   3   7 -10   54.99   18.60
   3   7 -10   67.59   12.30
  -3  -7  10   67.19   14.70
  -3  -7  10   60.49   15.00
  -3  -7  10   23.70   16.60
   2   7 -10  132.89   15.60
   2   7 -10  116.09   16.90
   2   7 -10  126.09   19.90
   2   7 -10  116.79   18.40
  -2  -7  10  111.29   18.20
  -2  -7  10  148.49   17.00
  -2  -7  10  125.79   16.40
   1   7 -10   -7.60   13.00
   1   7 -10   26.00    9.50
   1   7 -10   25.20   14.70
   1   7 -10    7.00   14.10
  -1  -7  10    2.00   14.20
  -1  -7  10   29.40   12.00
  -1  -7  10    9.50   12.00
  -1  -7  10   31.00    9.10
   0   7 -10   16.80    9.00
   0   7 -10   30.50   14.30
   0   7 -10   37.20   15.20
   0   7 -10   37.50   14.00
   0  -7  10   22.70   12.20
   0  -7  10   13.80   13.10
   0  -7  10   26.00   13.90
   0  -7  10   48.80    8.90
  -1   7 -10   83.49   11.70
  -1   7 -10   93.19   16.30
  -1   7 -10   73.59   14.90
  -1   7 -10   92.99   16.90
   1  -7  10   99.89    9.30
   1  -7  10   79.59   13.70
   1  -7  10   66.79   14.90
   1  -7  10   97.59   15.80
  -2   7 -10   20.70   13.80
  -2   7 -10   31.60   13.20
  -2   7 -10   42.00   14.50
   2  -7  10   49.40   13.30
   2  -7  10   49.80   13.80
   2  -7  10   37.80   15.50
  -3   7 -10   30.80   14.80
  -3   7 -10   13.40   13.90
  -3   7 -10   26.10   13.30
   3  -7  10   32.70   13.50
   3  -7  10   14.20    8.80
   3  -7  10   14.30   14.20
   3  -7  10   28.20   15.90
  -4   7 -10  119.69   20.00
  -4   7 -10   78.49   17.30
  -4   7 -10  106.59   17.80
   4  -7  10   91.99   11.40
   4  -7  10  124.49   18.70
   4  -7  10  107.39   20.30
   4  -7  10  110.99   18.90
  -5   7 -10   39.10   19.70
  -5   7 -10   33.10   18.80
  -5   7 -10   42.40   17.20
   5  -7  10   62.09   19.60
   5  -7  10   24.00   18.30
   5  -7  10   68.09   18.70
   5  -7  10    8.00    7.40
   5   6 -10   62.59   19.00
   5   6 -10   51.89   15.40
   5   6 -10   64.99   13.30
   5   6 -10   65.59   17.90
  -5  -6  10   64.39   14.80
  -5  -6  10   55.79   16.00
  -5  -6  10   61.69   12.20
  -5  -6  10   34.90   20.60
  -5  -6  10   74.19   18.50
   4   6 -10  105.79   16.40
   4   6 -10  118.99   14.60
   4   6 -10  122.39   20.10
   4   6 -10   81.09   17.20
  -4  -6  10  139.79   17.40
  -4  -6  10   83.19   14.60
  -4  -6  10  110.89   14.30
  -4  -6  10   94.29   19.50
   3   6 -10  183.68   23.20
   3   6 -10  182.68   20.80
   3   6 -10  188.38   15.60
  -3  -6  10  226.68   21.20
  -3  -6  10  135.99   19.10
  -3  -6  10  211.58   22.30
   2   6 -10    1.00    9.00
   2   6 -10   -6.70   13.10
   2   6 -10  -20.30   12.50
  -2  -6  10    1.50   11.00
  -2  -6  10    3.70   11.20
  -2  -6  10  -11.20   14.60
   1   6 -10  334.07   26.30
   1   6 -10  322.57   25.20
   1   6 -10  360.76   20.20
  -1  -6  10  330.57   24.20
  -1  -6  10  329.47   21.50
  -1  -6  10  338.27   26.60
   0   6 -10    5.50   11.80
   0   6 -10   32.90   10.30
   0   6 -10   -5.90    9.50
   0   6 -10   15.10   11.70
   0  -6  10   11.40   10.80
   0  -6  10   22.40    7.10
   0  -6  10   27.20   13.40
   0  -6  10   21.00   11.20
  -1   6 -10   -8.20   10.80
  -1   6 -10  -24.50    8.70
  -1   6 -10    4.00   10.50
  -1   6 -10   -3.50   10.90
   1  -6  10    1.70   11.60
   1  -6  10    1.10   12.10
   1  -6  10   -6.60    4.80
   1  -6  10   -6.70    9.70
  -2   6 -10   -4.60    9.70
  -2   6 -10   30.90   13.00
  -2   6 -10   15.20   11.90
   2  -6  10   23.50   11.20
   2  -6  10   21.90    9.20
   2  -6  10   49.80   13.90
   2  -6  10   11.30   12.60
  -3   6 -10  206.08   24.20
  -3   6 -10  208.98   23.70
  -3   6 -10  192.18   23.20
   3  -6  10  211.18   23.20
   3  -6  10  187.58   16.80
   3  -6  10  200.48   24.70
   3  -6  10  227.38   22.80
  -4   6 -10   -6.40   13.20
  -4   6 -10   -2.80   14.90
  -4   6 -10   -2.80   15.70
   4  -6  10   -4.00   13.70
   4  -6  10   11.20   12.80
   4  -6  10    6.70    9.80
   4  -6  10   15.70   15.60
  -5   6 -10    6.00   15.30
  -5   6 -10   -6.40   16.90
  -5   6 -10    6.10   17.80
   5  -6  10   13.70   16.90
   5  -6  10    6.00   14.80
   5  -6  10   19.60   15.90
   5  -6  10   20.90   10.80
   5   5 -10   21.00   14.50
   5   5 -10   19.70   13.90
   5   5 -10  -14.80   11.10
   5   5 -10    4.10   16.10
  -5  -5  10  -11.10   15.00
  -5  -5  10   -3.10    9.80
  -5  -5  10  -10.80   14.00
  -5  -5  10    7.70   12.50
  -5  -5  10  -18.50   12.20
   4   5 -10  412.46   27.50
   4   5 -10  367.96   28.90
   4   5 -10  394.46   21.90
  -4  -5  10  444.66   26.40
  -4  -5  10  381.86   25.10
  -4  -5  10  380.66   24.70
  -4  -5  10  358.56   28.80
   3   5 -10   -2.10    8.50
   3   5 -10   11.60   12.90
   3   5 -10   -9.50   13.00
  -3  -5  10  -14.60   13.70
  -3  -5  10   -1.30   10.70
  -3  -5  10   10.50   10.50
   2   5 -10   24.70   11.90
   2   5 -10   39.40   10.40
   2   5 -10    7.70   13.50
  -2  -5  10   27.70   11.30
  -2  -5  10   33.80   10.60
  -2  -5  10   22.30   13.40
   1   5 -10  826.62   33.30
   1   5 -10  817.92   37.20
   1   5 -10  930.61   38.80
  -1  -5  10  853.71   36.00
  -1  -5  10  880.61   36.50
  -1  -5  10  834.32   37.90
   0   5 -10   43.20   11.50
   0   5 -10   25.80   11.70
   0   5 -10   34.20   10.50
   0   5 -10   22.50   10.50
   0  -5  10   31.10   10.70
   0  -5  10   33.50   11.30
   0  -5  10   37.10   10.70
   0  -5  10   43.40    6.60
  -1   5 -10   46.40   10.70
  -1   5 -10   34.70   11.80
  -1   5 -10   57.49   12.60
  -1   5 -10   30.40   15.60
   1  -5  10   41.30    5.20
   1  -5  10   56.29   11.80
   1  -5  10   57.09   12.90
   1  -5  10   48.60   11.90
   1  -5  10   44.30   10.50
  -2   5 -10  208.58   18.90
  -2   5 -10  196.28   21.00
   2  -5  10  183.98   19.60
   2  -5  10  205.38   19.10
   2  -5  10  185.28   16.30
   2  -5  10  180.48   21.10
  -3   5 -10   60.99   14.50
  -3   5 -10   73.49   14.20
   3  -5  10   74.19   14.10
   3  -5  10   58.19   13.20
   3  -5  10   64.69   15.20
   3  -5  10   75.69   11.60
  -4   5 -10   56.19   15.10
  -4   5 -10   40.60   15.10
   4  -5  10   47.60   11.20
   4  -5  10   39.40   12.70
   4  -5  10   68.59   16.10
   4  -5  10   56.09   15.00
  -5   5 -10   70.79   16.60
  -5   5 -10   27.60   15.80
  -5   5 -10   64.89   17.40
  -5   5 -10   41.90   13.20
   5  -5  10   56.79   12.90
   5  -5  10   51.99   16.30
   5  -5  10   69.39   17.30
   5  -5  10   62.39   16.60
   6   4 -10   33.70   16.10
   6   4 -10   34.40   17.30
   6   4 -10   54.89   16.90
   6   4 -10   34.90   13.50
  -6  -4  10   51.19   12.00
  -6  -4  10   38.80   14.90
  -6  -4  10   42.40   16.50
  -6  -4  10   28.80   13.70
  -6  -4  10   44.50   15.00
   5   4 -10    2.70   11.00
   5   4 -10    4.50   13.80
   5   4 -10  -11.80   12.40
   5   4 -10   17.30   14.80
  -5  -4  10    6.70   11.00
  -5  -4  10  -14.00   11.50
  -5  -4  10    2.20   11.30
  -5  -4  10    9.40   14.10
  -5  -4  10    9.40    9.70
   4   4 -10   91.59   14.90
   4   4 -10   86.49   12.20
   4   4 -10   96.09   15.30
  -4  -4  10   97.49   12.70
  -4  -4  10  108.09   13.50
  -4  -4  10   93.29   15.90
  -4  -4  10   71.79   12.90
   3   4 -10    1.80    3.80
   3   4 -10  -15.00   10.10
   3   4 -10   -0.80    9.50
   3   4 -10  -21.40   10.70
  -3  -4  10  -11.00   11.20
  -3  -4  10  -11.70    9.50
  -3  -4  10    4.40    9.00
   2   4 -10  266.87   12.60
   2   4 -10  190.78   22.20
   2   4 -10  239.98   17.90
   2   4 -10  275.17   20.80
   2   4 -10  203.58   21.50
  -2  -4  10  232.98   21.10
  -2  -4  10  239.38   19.80
  -2  -4  10  278.17   18.80
   1   4 -10   12.40    9.30
   1   4 -10   31.60   11.90
   1   4 -10    9.30   10.60
   1   4 -10   20.00   10.70
  -1  -4  10   21.50    9.80
  -1  -4  10   33.00   10.50
  -1  -4  10   18.60   11.30
   0   4 -10   -2.60    9.10
   0   4 -10    4.10    9.40
   0   4 -10   -9.60    9.10
   0   4 -10   -0.40    9.80
   0  -4  10  -12.00    9.10
   0  -4  10    7.80    8.00
   0  -4  10   -5.90    8.30
   0  -4  10   -5.10    9.00
  -1   4 -10  542.75   27.80
  -1   4 -10  574.24   26.90
  -1   4 -10  560.74   27.60
  -1   4 -10  625.94   27.90
   1  -4  10  559.14   26.10
   1  -4  10  594.34   26.90
   1  -4  10  575.94   26.60
   1  -4  10  529.35   28.00
  -2   4 -10    7.70    9.00
  -2   4 -10    2.80   10.70
  -2   4 -10   10.20   15.90
  -2   4 -10   -2.20   10.50
   2  -4  10    4.50    9.40
   2  -4  10   10.30    9.30
   2  -4  10    2.20    9.50
   2  -4  10    3.00   11.00
  -3   4 -10   36.60   10.90
  -3   4 -10   15.50   12.20
  -3   4 -10   46.30   13.00
   3  -4  10   28.40   10.40
   3  -4  10   39.80   12.90
   3  -4  10   15.80   10.60
   3  -4  10   11.50   10.80
  -4   4 -10  376.06   27.10
  -4   4 -10  395.86   27.40
  -4   4 -10  350.16   23.70
   4  -4  10  332.07   22.50
   4  -4  10  304.17   25.50
   4  -4  10  312.37   26.00
   4  -4  10  415.46   25.50
  -5   4 -10   33.20   15.80
  -5   4 -10   49.60   16.60
  -5   4 -10   29.50   13.40
  -5   4 -10   48.10   16.60
   5  -4  10   28.40   16.00
   5  -4  10   23.30   14.20
   5  -4  10   72.29   16.30
   5  -4  10   33.40   13.20
   6   3 -10  225.78   23.00
   6   3 -10  148.49   18.40
   6   3 -10  191.78   19.50
   6   3 -10  157.88   19.80
  -6  -3  10  175.78   20.10
  -6  -3  10  229.88   22.90
  -6  -3  10  211.48   21.10
  -6  -3  10  164.18   20.30
  -6  -3  10  224.68   22.60
   5   3 -10  198.18   19.80
   5   3 -10  143.49   17.90
   5   3 -10  186.58   18.60
   5   3 -10  187.78   20.70
  -5  -3  10  193.38   21.60
  -5  -3  10  162.68   19.20
  -5  -3  10  195.28   18.40
  -5  -3  10  173.98   19.60
   4   3 -10  766.02   32.70
   4   3 -10  679.63   33.40
   4   3 -10  733.33   31.80
  -4  -3  10  706.53   32.40
  -4  -3  10  734.73   31.50
  -4  -3  10  693.63   31.60
  -4  -3  10  727.53   31.60
   3   3 -10  983.10   31.50
   3   3 -10 1016.40   39.00
   3   3 -10  931.31   40.00
   3   3 -10  954.10   37.70
   3   3 -10  938.21   39.20
  -3  -3  10  964.90   37.30
  -3  -3  10  940.71   37.40
  -3  -3  10  924.51   38.50
   2   3 -10   39.00   10.60
   2   3 -10   23.70   10.30
   2   3 -10   10.40   11.20
   2   3 -10   35.00    5.70
   2   3 -10   16.80    9.30
  -2  -3  10   30.80   10.20
  -2  -3  10   35.10    9.50
  -2  -3  10   27.30    9.10
   1   3 -10  125.19   15.70
   1   3 -10  119.59   15.60
   1   3 -10  135.99   11.20
   1   3 -10  139.09   17.60
   1   3 -10  146.09   17.00
  -1  -3  10  160.08   15.70
  -1  -3  10  123.79   15.80
  -1  -3  10  130.59   14.30
  -1  -3  10  133.99   16.30
   0   3 -10  629.54   27.50
   0   3 -10  617.84   28.10
   0   3 -10  618.84   25.10
   0   3 -10  616.14   27.30
   0   3 -10  645.64   28.20
   0  -3  10  578.94   27.80
   0  -3  10  606.24   26.80
   0  -3  10  630.44   27.70
   0  -3  10  620.44   26.70
  -1   3 -10   23.20    9.40
  -1   3 -10   42.00   10.10
  -1   3 -10   36.50    8.60
  -1   3 -10   35.90   10.10
   1  -3  10   28.70    8.80
   1  -3  10   49.00    9.40
   1  -3  10   42.80   10.80
   1  -3  10   28.10   10.00
  -2   3 -10  -14.90    9.60
  -2   3 -10   -4.70    9.20
  -2   3 -10    4.80   10.20
  -2   3 -10   -1.30    9.70
   2  -3  10  -13.90    9.70
   2  -3  10    7.40    9.20
   2  -3  10   -2.50    9.10
   2  -3  10   -3.60    8.40
  -3   3 -10   -2.20   11.30
  -3   3 -10  -19.60   10.80
  -3   3 -10    7.20   11.00
  -3   3 -10    7.20    9.70
   3  -3  10   -6.80   10.70
   3  -3  10   -7.30   10.10
   3  -3  10   -0.10   10.50
   3  -3  10    2.50    9.70
  -4   3 -10   21.90   14.00
  -4   3 -10   19.10   11.30
  -4   3 -10   22.30   12.50
   4  -3  10   31.90   12.30
   4  -3  10   29.60   12.60
   4  -3  10   28.90   12.80
   4  -3  10   27.60   11.60
  -5   3 -10  -11.90   13.80
  -5   3 -10   32.00   15.20
  -5   3 -10   28.00   13.00
  -5   3 -10   16.10   14.50
   5  -3  10   43.00   15.00
   5  -3  10   14.80   13.00
   5  -3  10   39.30   14.20
   6   2 -10   26.40   13.90
   6   2 -10   24.10   13.00
   6   2 -10   37.30   15.90
   6   2 -10   31.70   14.20
  -6  -2  10   33.00   12.10
  -6  -2  10   34.10   13.60
  -6  -2  10   38.40   11.40
  -6  -2  10   23.80   11.00
  -6  -2  10   41.40   12.60
   5   2 -10  216.48   19.50
   5   2 -10  211.78   21.10
   5   2 -10  240.08   19.40
   5   2 -10  217.28   20.90
  -5  -2  10  228.28   18.10
  -5  -2  10  213.68   20.80
  -5  -2  10  208.08   18.60
  -5  -2  10  191.68   17.80
   4   2 -10   -2.50    9.10
   4   2 -10   34.20   10.10
   4   2 -10   35.10   10.80
  -4  -2  10   20.20   10.90
  -4  -2  10   13.80    8.90
  -4  -2  10   30.50   10.70
  -4  -2  10   39.60    9.20
  -4  -2  10   31.20    9.00
   3   2 -10  388.06   15.60
   3   2 -10  403.36   22.80
   3   2 -10  384.46   22.90
   3   2 -10  411.66   21.80
  -3  -2  10  432.56   21.30
  -3  -2  10  415.86   20.70
  -3  -2  10  382.66   22.80
  -3  -2  10  413.96   21.50
   2   2 -10  593.64   27.40
   2   2 -10  550.74   27.60
   2   2 -10  542.35   25.90
   2   2 -10  587.44   21.80
   2   2 -10  595.44   26.80
  -2  -2  10  560.84   25.30
  -2  -2  10  593.44   25.70
  -2  -2  10  570.04   25.40
   1   2 -10  449.46   24.20
   1   2 -10  454.35   24.00
   1   2 -10  470.05   23.00
   1   2 -10  455.55   19.60
   1   2 -10  466.65   23.40
  -1  -2  10  477.55   22.60
  -1  -2  10  455.45   21.30
  -1  -2  10  467.05   24.20
  -1  -2  10  457.65   21.80
   0   2 -10  533.45   23.10
   0   2 -10  527.45   25.50
   0   2 -10  588.84   24.90
   0   2 -10  560.84   26.70
   0   2 -10  573.34   25.20
   0  -2  10  535.45   23.90
   0  -2  10  572.74   23.80
   0  -2  10  527.45   26.20
   0  -2  10  562.94   24.80
   0  -2  10  544.85   19.50
  -1   2 -10  319.27   19.20
  -1   2 -10  298.17   18.30
  -1   2 -10  292.77   18.50
  -1   2 -10  278.77   18.10
   1  -2  10  324.57   19.90
   1  -2  10  289.07   19.40
   1  -2  10  355.96   18.20
   1  -2  10  346.07   18.50
  -2   2 -10 1182.98   45.60
  -2   2 -10 1205.18   44.60
  -2   2 -10 1252.27   44.60
   2  -2  10 1162.08   45.10
   2  -2  10 1207.08   43.90
   2  -2  10 1223.18   45.10
   2  -2  10 1229.68   44.20
  -3   2 -10   -2.30    9.90
  -3   2 -10   -7.00   10.40
  -3   2 -10    7.00    9.60
   3  -2  10   13.60    9.60
   3  -2  10   10.80   11.00
   3  -2  10    3.10    9.00
   3  -2  10    2.50    9.70
  -4   2 -10   55.39   13.50
  -4   2 -10   27.20   12.80
  -4   2 -10   16.80   11.60
  -4   2 -10   27.50   11.10
   4  -2  10   43.90   11.80
   4  -2  10   12.90   11.60
   4  -2  10   25.60   11.20
  -5   2 -10  424.06   29.50
  -5   2 -10  400.46   28.60
  -5   2 -10  432.56   26.00
  -5   2 -10  435.46   29.60
   5  -2  10  355.86   28.10
   5  -2  10  455.95   27.50
   5  -2  10  411.46   27.80
   5  -2  10  402.76   28.20
   6   1 -10 1249.18   47.10
   6   1 -10 1232.78   48.50
   6   1 -10 1192.28   49.40
   6   1 -10 1171.28   47.90
  -6  -1  10 1157.78   46.20
  -6  -1  10 1198.48   47.40
  -6  -1  10 1202.68   46.20
  -6  -1  10 1235.48   46.20
  -6  -1  10 1283.47   47.70
   5   1 -10   13.50   10.20
   5   1 -10   15.40   11.90
   5   1 -10   18.70   11.50
  -5  -1  10   22.80    8.80
  -5  -1  10   17.80    9.00
  -5  -1  10   10.30   12.40
  -5  -1  10   24.00   10.60
  -5  -1  10   14.80    8.90
   4   1 -10  347.27   20.70
   4   1 -10  362.76   20.40
   4   1 -10  357.96   22.60
  -4  -1  10  348.27   19.00
  -4  -1  10  344.27   20.50
  -4  -1  10  362.66   19.40
  -4  -1  10  360.86   19.90
   3   1 -10 1003.70   38.80
   3   1 -10  948.31   37.20
   3   1 -10  962.30   36.80
  -3  -1  10  980.90   36.20
  -3  -1  10  975.40   36.20
  -3  -1  10  940.91   38.00
   2   1 -10  257.67   19.40
   2   1 -10  247.08   16.20
   2   1 -10  249.48   17.10
   2   1 -10  260.47   13.60
   2   1 -10  213.58   17.40
  -2  -1  10  259.67   16.10
  -2  -1  10  262.17   15.20
  -2  -1  10  195.28   17.40
  -2  -1  10  254.97   15.90
   1   1 -10  152.58   17.40
   1   1 -10  162.78   15.40
   1   1 -10  149.69   13.90
   1   1 -10  178.58   12.80
   1   1 -10  146.49   14.60
  -1  -1  10  187.08   12.90
  -1  -1  10  137.69   15.90
  -1  -1  10  185.98   13.70
  -1  -1  10  170.38   12.80
   0   1 -10   -0.60    7.50
   0   1 -10    5.50    7.10
   0   1 -10    4.20    6.90
   0   1 -10    3.90    7.70
   0  -1  10    8.70   10.30
   0  -1  10    0.50    6.30
   0  -1  10    5.30    6.70
   0  -1  10    6.50    6.30
   0  -1  10   11.50    4.50
  -1   1 -10   78.99   10.40
  -1   1 -10   82.69   10.10
  -1   1 -10   78.79   10.30
  -1   1 -10   80.99   10.10
   1  -1  10   77.89   10.10
   1  -1  10   94.29   12.80
   1  -1  10   78.39    9.40
   1  -1  10   92.39    9.40
  -2   1 -10   -1.70    8.70
  -2   1 -10    4.60    9.40
  -2   1 -10   -6.60    8.50
   2  -1  10   11.10   10.70
   2  -1  10    1.50    7.60
   2  -1  10   10.30    8.60
   2  -1  10   -4.80    7.30
  -3   1 -10  100.79   13.30
  -3   1 -10   76.79   11.90
   3  -1  10   85.69   11.50
   3  -1  10   80.99   11.30
   3  -1  10   75.89   12.00
  -4   1 -10   98.49   14.50
  -4   1 -10   98.99   14.20
  -4   1 -10   96.89   14.40
  -4   1 -10   82.29   14.60
   4  -1  10  145.69   18.00
   4  -1  10   96.09   13.40
   4  -1  10  115.09   14.00
   4  -1  10  105.59   13.60
  -5   1 -10   44.10   15.00
  -5   1 -10   16.10   13.40
  -5   1 -10   30.40   13.00
  -5   1 -10   47.30   15.40
  -5   1 -10    1.30    9.20
   5  -1  10   34.20   13.70
   5  -1  10   36.90   13.40
   5  -1  10   24.00   13.90
   5  -1  10   36.20   17.20
   6   0 -10   10.80   11.30
   6   0 -10   14.00   13.70
   6   0 -10   10.00   12.30
   6   0 -10  -16.60    9.20
  -6   0  10    7.10   12.10
  -6   0  10   -2.20    9.30
  -6   0  10   -7.70   12.70
  -6   0  10    2.10    9.10
  -6   0  10    6.50   11.30
   5   0 -10   -9.70   11.10
   5   0 -10   15.90   10.50
   5   0 -10   19.00    9.60
  -5   0  10   17.00    9.10
  -5   0  10   15.00    8.40
  -5   0  10   11.50   11.50
  -5   0  10   12.20    7.80
  -5   0  10   17.20    8.80
   4   0 -10 1078.49   39.60
   4   0 -10 1059.19   39.80
   4   0 -10 1077.99   42.80
  -4   0  10 1071.69   38.70
  -4   0  10 1094.29   39.10
  -4   0  10 1086.99   38.60
  -4   0  10 1050.49   38.50
   3   0 -10   15.50    7.50
   3   0 -10    9.80    6.80
   3   0 -10    8.60   10.80
   3   0 -10    5.80    7.80
  -3   0  10   -4.70    6.60
  -3   0  10    3.30    7.00
  -3   0  10    8.40    6.20
  -3   0  10   -0.20    6.10
   2   0 -10  267.27   19.40
   2   0 -10  286.77   16.70
   2   0 -10  294.57   17.10
   2   0 -10  285.67   15.40
   2   0 -10  317.57   15.80
  -2   0  10  304.47   15.40
  -2   0  10  312.77   15.60
  -2   0  10  267.97   14.50
  -2   0  10  294.17   21.40
   1   0 -10 2698.03   84.29
   1   0 -10 2677.03   85.09
   1   0 -10 2580.14   87.89
   1   0 -10 2594.24   84.59
   1   0 -10 2672.93   84.19
  -1   0  10 2639.04   84.09
  -1   0  10 2563.04   83.69
  -1   0  10 2546.65   83.19
  -1   0  10 2648.14   83.39
   0   0 -10  237.88   16.40
   0   0 -10  287.47   15.70
   0   0 -10  276.07   14.90
   0   0 -10  265.27   16.20
   0   0  10  277.17   22.70
   0   0  10  253.17   13.50
   0   0  10  268.07   13.90
   0   0  10  266.17   13.90
   0   0  10  265.37   14.70
  -1   0 -10  248.98   17.20
  -1   0 -10  236.48   14.80
  -1   0 -10  218.28   15.60
  -1   0 -10  205.28   15.40
   1   0  10  206.88   19.30
   1   0  10  234.08   14.20
   1   0  10  208.58   14.60
   1   0  10  238.78   14.00
  -2   0 -10  299.37   18.80
  -2   0 -10  254.77   18.70
  -2   0 -10  257.17   17.60
   2   0  10  300.27   16.90
   2   0  10  298.87   16.70
   2   0  10  267.67   17.60
  -3   0 -10  497.05   25.90
  -3   0 -10  522.45   25.40
   3   0  10  548.85   25.70
   3   0  10  508.25   24.60
   3   0  10  509.15   24.60
  -4   0 -10  241.98   20.80
  -4   0 -10  217.68   21.20
  -4   0 -10  236.08   22.40
  -4   0 -10  211.08   21.20
   4   0  10  221.58   20.00
   4   0  10  203.08   20.10
   4   0  10  213.68   24.90
   4   0  10  236.18   19.40
  -5   0 -10    1.10   15.10
  -5   0 -10   -1.90   13.10
   5   0  10   -0.10   16.40
   5   0  10   -2.80   12.70
   5   0  10   -1.30   12.40
   5   0  10   12.60   16.50
   6  -1 -10   15.90   10.40
   6  -1 -10  -14.00    7.70
   6  -1 -10   13.60   13.60
   6  -1 -10    4.90   11.10
  -6   1  10   -6.00    9.30
  -6   1  10   11.80    9.40
  -6   1  10  -11.80   12.60
  -6   1  10  -17.70    8.50
  -6   1  10   -0.40    8.30
   5  -1 -10  781.12   30.60
   5  -1 -10  711.53   34.50
  -5   1  10  796.72   30.00
  -5   1  10  749.53   34.50
  -5   1  10  715.73   29.40
  -5   1  10  734.53   29.00
  -5   1  10  732.03   29.20
   4  -1 -10  225.68   15.80
   4  -1 -10  249.18   20.30
  -4   1  10  225.98   13.80
  -4   1  10  210.98   14.00
  -4   1  10  206.48   14.00
  -4   1  10  233.68   14.90
   3  -1 -10  174.18   12.10
   3  -1 -10  173.28   12.80
   3  -1 -10  183.98   19.20
   3  -1 -10  167.38   14.30
  -3   1  10  177.88   11.00
  -3   1  10  164.28   19.10
  -3   1  10  182.08   12.10
  -3   1  10  180.78   12.20
  -3   1  10  157.28   11.40
   2  -1 -10  230.18   15.10
   2  -1 -10  234.38   13.40
   2  -1 -10  232.28   12.40
   2  -1 -10  237.28   19.90
  -2   1  10  225.58   11.30
  -2   1  10  228.28   15.90
  -2   1  10  229.68   19.20
  -2   1  10  232.08   18.80
  -2   1  10  243.98   11.80
  -2   1  10  224.98   11.20
  -2   1  10  225.08   11.50
   1  -1 -10    4.80    5.10
   1  -1 -10    2.70    6.20
   1  -1 -10   -2.40    7.50
  -1   1  10    0.40    6.90
  -1   1  10    4.50    4.60
  -1   1  10    1.60    4.30
  -1   1  10   -2.40   10.30
  -1   1  10    0.10    4.30
   0  -1 -10  218.38   13.10
   0  -1 -10  211.08   13.80
   0  -1 -10  180.08   15.10
   0  -1 -10  203.18   16.10
   0   1  10  212.98   11.50
   0   1  10  225.18   13.80
   0   1  10  217.68   12.30
   0   1  10  227.88   11.40
  -1  -1 -10  419.96   20.20
  -1  -1 -10  427.86   21.80
  -1  -1 -10  406.06   19.80
  -1  -1 -10  438.06   19.30
   1   1  10  440.26   18.30
   1   1  10  436.96   19.80
   1   1  10  441.66   18.60
  -2  -1 -10   -1.20    8.00
  -2  -1 -10   -5.00    8.40
  -2  -1 -10    0.70   10.50
   2   1  10   -7.30    6.90
   2   1  10    2.00    6.80
   2   1  10   -4.00    6.50
  -3  -1 -10    0.20    9.50
  -3  -1 -10   14.30    9.50
  -3  -1 -10   -2.60    5.50
  -3  -1 -10   10.60   11.10
   3   1  10    6.40   13.30
   3   1  10    3.10    8.40
   3   1  10   -8.20    8.50
   3   1  10    7.10    8.10
  -4  -1 -10  412.16   24.90
  -4  -1 -10  413.86   27.40
  -4  -1 -10  443.66   25.30
   4   1  10  388.76   29.80
   4   1  10  386.26   23.40
   4   1  10  380.36   24.00
   4   1  10  425.46   24.20
   6  -2 -10  366.36   26.60
   6  -2 -10  375.56   22.90
  -6   2  10  400.16   26.50
  -6   2  10  323.17   18.70
  -6   2  10  336.37   19.70
  -6   2  10  297.07   17.50
  -6   2  10  323.77   19.10
   5  -2 -10  173.18   21.20
  -5   2  10  174.68   14.70
  -5   2  10  183.88   13.50
  -5   2  10  171.58   16.90
  -5   2  10  173.98   13.70
  -5   2  10  166.78   13.40
   4  -2 -10  224.98   21.50
   4  -2 -10  205.38   13.80
  -4   2  10  219.38   12.20
  -4   2  10  208.88   12.10
  -4   2  10  211.28   13.00
  -4   2  10  240.48   13.30
   3  -2 -10 2036.30   64.39
   3  -2 -10 2030.40   63.79
   3  -2 -10 1929.81   70.59
  -3   2  10 1945.81   71.69
  -3   2  10 2048.10   65.79
  -3   2  10 1994.60   63.19
  -3   2  10 1960.90   69.29
  -3   2  10 2080.49   63.59
  -3   2  10 2059.09   62.49
  -3   2  10 2044.40   68.89
   2  -2 -10   57.49    6.10
   2  -2 -10   75.39    7.40
   2  -2 -10   62.69    7.10
  -2   2  10   76.29   13.90
  -2   2  10   61.99   12.00
  -2   2  10   82.99   11.10
  -2   2  10   72.29    9.10
   1  -2 -10    0.10    3.30
   1  -2 -10   -1.10    4.50
   1  -2 -10    1.60    3.90
   1  -2 -10   -2.30    8.60
  -1   2  10   11.60    7.40
  -1   2  10    2.10   11.20
  -1   2  10   19.30    9.20
  -1   2  10   12.30    7.90
   0  -2 -10 2384.36   80.59
   0  -2 -10 2477.35   77.29
   0  -2 -10 2376.26   76.49
   0  -2 -10 2538.15   76.49
   0   2  10 2394.46   79.09
   0   2  10 2363.56   74.89
   0   2  10 2492.85   75.59
   0   2  10 2396.56   80.49
   0   2  10 2416.06   74.89
  -1  -2 -10   29.80    6.00
  -1  -2 -10   40.00   11.00
  -1  -2 -10   30.60    7.60
  -1  -2 -10   16.60    5.70
   1   2  10   24.10    6.00
   1   2  10   31.90    6.00
   1   2  10   27.40    6.30
  -2  -2 -10  359.16   23.60
  -2  -2 -10  327.97   19.50
  -2  -2 -10  360.76   19.70
   2   2  10  351.96   17.70
   2   2  10  342.17   17.10
   2   2  10  342.87   18.60
  -3  -2 -10  205.08   18.30
  -3  -2 -10  205.68   22.10
  -3  -2 -10  236.68   19.10
   3   2  10  219.18   23.10
   3   2  10  234.88   16.40
   3   2  10  203.38   17.20
   3   2  10  227.58   16.30
  -4  -2 -10   18.60   17.40
  -4  -2 -10   48.80   13.20
  -4  -2 -10   38.90   17.40
   4   2  10   31.50   11.30
   4   2  10   35.10   11.40
   4   2  10   62.99   17.60
   4   2  10   44.50    9.80
   5  -3 -10   30.50    8.20
   5  -3 -10   62.69   14.30
  -5   3  10   32.00    6.40
  -5   3  10   27.60   14.00
  -5   3  10   25.80    6.10
  -5   3  10   33.60    6.70
  -5   3  10   27.40    6.70
   4  -3 -10  108.29   15.40
   4  -3 -10   84.29    9.70
  -4   3  10  104.19    7.80
  -4   3  10  102.49    9.20
  -4   3  10   83.59   14.80
  -4   3  10   89.29    6.70
  -4   3  10   82.29   13.40
  -3   3  10   38.10   14.30
  -3   3  10   11.20   11.30
  -3   3  10   27.90    7.80
  -3   3  10   33.90   11.80
  -2   3  10  761.72   32.60
  -2   3  10  720.83   30.40
  -2   3  10  778.42   32.60
  -2   3  10  796.72   35.80
  -1   3  10   49.00    9.90
  -1   3  10   28.90   10.90
  -1   3  10   42.50   10.30
  -1   3  10   37.40   12.50
   0  -3 -10   29.10    4.80
   0  -3 -10   28.10   10.60
   0   3  10   29.10    9.20
   0   3  10   30.50   12.70
   0   3  10   39.10   10.90
   0   3  10   21.40    9.60
  -1  -3 -10  331.07   14.60
  -1  -3 -10  332.77   22.00
  -1  -3 -10  370.66   17.10
   1   3  10  352.96   13.20
   1   3  10  386.76   26.30
   1   3  10  337.97   22.60
   1   3  10  373.16   13.20
  -2  -3 -10  749.42   29.50
  -2  -3 -10  762.62   33.70
  -2  -3 -10  778.52   30.00
   2   3  10  736.23   37.00
   2   3  10  728.43   27.60
   2   3  10  728.73   29.40
  -3  -3 -10   26.90   10.40
  -3  -3 -10   46.70   10.30
  -3  -3 -10   15.10   12.70
   3   3  10   25.20   14.90
   3   3  10   39.40    7.70
   3   3  10   25.60    8.80
   5  -4 -10  168.08   12.20
   5  -4 -10  153.48   18.40
  -5   4  10  157.28   19.00
  -5   4  10  161.08   18.10
  -5   4  10  156.58   13.40
  -4   4  10  686.13   38.80
  -4   4  10  794.32   29.80
  -4   4  10  774.42   36.50
  -4   4  10  752.42   35.30
  -3   4  10  167.48   18.70
  -3   4  10  188.68   15.70
  -3   4  10  132.79   15.30
  -3   4  10  172.28   20.00
  -2   4  10  614.14   30.10
  -2   4  10  707.53   31.40
  -2   4  10  659.63   28.90
  -2   4  10  682.53   33.30
  -1   4  10  822.02   34.20
  -1   4  10  886.21   35.00
  -1   4  10  827.52   34.30
  -1   4  10  787.62   36.70
   0   4  10  242.08   19.30
   0   4  10  262.37   20.00
   0   4  10  239.88   20.80
   0   4  10  265.07   24.10
  -1  -4 -10  300.77   14.90
   1   4  10  326.87   20.80
   1   4  10  292.07   22.30
   1   4  10  382.76   27.50
  -2  -4 -10  105.79   15.70
  -2  -4 -10  133.29   14.20
   2   4  10  112.89   15.90
   2   4  10  117.39   10.50
   2   4  10  111.39   17.70
   2   4  10  124.99   11.30
   2   4  10  124.69   12.20
  -4   5  10   88.19   16.10
  -4   5  10  105.89   20.20
  -4   5  10  118.89   16.50
  -4   5  10  103.99   11.60
  -3   5  10   -5.50   14.10
  -3   5  10   -8.30   12.70
  -3   5  10  -10.70    9.00
  -3   5  10   -8.80   12.80
  -2   5  10   25.60   12.90
  -2   5  10   25.30   10.70
  -2   5  10   29.60   12.10
  -2   5  10   44.90   14.60
  -1   5  10  434.16   25.70
  -1   5  10  488.85   26.80
  -1   5  10  454.85   28.30
  -1   5  10  468.15   25.40
   0   5  10  155.58   19.60
   0   5  10  123.69   14.00
   0   5  10  125.69   15.60
   0   5  10  139.49   15.30
   1   5  10   57.89   14.20
   1   5  10   76.79   17.40
   1   5  10   80.99   11.40
  -3   6  10  759.32   33.90
  -3   6  10  782.72   39.90
  -3   6  10  828.82   36.80
  -3   6  10  851.11   39.70
  -2   6  10  142.79   15.30
  -2   6  10   83.09   15.20
  -2   6  10  142.19   17.90
  -2   6  10  115.59   15.20
  -1   6  10   45.10   14.30
  -1   6  10   59.79   16.70
  -1   6  10   67.89   14.90
  -1   6  10   71.89   13.20
   1 -11  11  176.88   23.10
   1  10 -11  -25.80   16.60
   1  10 -11   -3.00   18.00
   1  10 -11   14.00   11.90
   1  10 -11   24.60   18.50
  -1 -10  11   -0.70   18.30
  -1 -10  11   -6.70   17.30
  -1 -10  11  -29.20   20.70
  -1 -10  11    7.00   12.50
   0  10 -11  170.98   18.70
   0  10 -11  119.29   22.20
   0  10 -11  146.39   22.60
   0  10 -11  132.09   24.10
   0 -10  11  110.89   23.10
   0 -10  11  210.58   26.50
   0 -10  11  118.79   19.60
   0 -10  11  140.09   15.50
  -1  10 -11   37.30   11.60
  -1  10 -11   16.90   16.90
  -1  10 -11   45.80   19.90
  -1  10 -11   41.70   18.30
   1 -10  11   29.80   16.80
   1 -10  11   46.30   12.10
   1 -10  11    4.50   15.90
   1 -10  11    9.10   19.80
  -2  10 -11  221.78   23.50
  -2  10 -11  203.78   20.70
  -2  10 -11  236.48   29.60
  -2  10 -11  175.38   22.90
   2 -10  11  225.58   24.20
   2 -10  11  236.98   27.20
   2 -10  11  300.07   32.90
  -3  10 -11   16.60   18.40
  -3  10 -11    6.10   18.70
  -3  10 -11   30.00   20.50
   3 -10  11   -3.50   18.50
   3 -10  11   31.80   20.00
   3 -10  11   17.50   19.30
   3   9 -11   22.30   21.40
   3   9 -11   81.69   23.90
   3   9 -11   86.19   22.50
   3   9 -11   56.89   13.70
  -3  -9  11   51.79   14.70
  -3  -9  11   52.39   19.20
  -3  -9  11    1.60   24.00
  -3  -9  11   62.09   19.80
   2   9 -11  325.07   33.40
   2   9 -11  310.27   22.70
   2   9 -11  269.27   34.30
   2   9 -11  264.97   32.80
  -2  -9  11  302.97   35.70
  -2  -9  11  258.87   23.80
  -2  -9  11  335.47   30.70
  -2  -9  11  325.77   31.10
   1   9 -11   53.59   17.50
   1   9 -11   26.30   12.20
   1   9 -11   12.60   19.10
   1   9 -11   -6.10   16.10
  -1  -9  11   19.30   15.00
  -1  -9  11   11.70   11.40
  -1  -9  11  -20.80   18.30
  -1  -9  11   21.20   15.30
   0   9 -11   82.99   12.80
   0   9 -11   65.19   17.50
   0   9 -11   34.00   16.90
   0   9 -11   41.90   17.70
   0  -9  11   28.60   18.50
   0  -9  11   39.80   15.60
   0  -9  11   87.49   16.60
   0  -9  11   60.79   11.50
  -1   9 -11  118.79   18.90
  -1   9 -11  117.79   14.20
  -1   9 -11  142.59   19.90
  -1   9 -11  114.09   19.30
   1  -9  11  168.48   21.00
   1  -9  11  155.48   16.20
   1  -9  11  152.78   20.40
   1  -9  11  109.79   19.50
  -2   9 -11  276.47   31.60
  -2   9 -11  298.57   30.70
  -2   9 -11  327.87   30.20
   2  -9  11  268.77   31.10
   2  -9  11  327.37   30.50
   2  -9  11  325.77   30.30
  -3   9 -11   97.99   21.10
  -3   9 -11  106.39   21.30
  -3   9 -11  134.29   22.40
   3  -9  11  178.68   22.40
   3  -9  11  120.09   21.00
   3  -9  11  150.58   22.40
  -4   9 -11  -10.70   16.90
  -4   9 -11    4.30   21.60
  -4   9 -11   -0.80   16.60
   4  -9  11   19.80   18.90
   4  -9  11   -3.60   18.80
   4  -9  11   60.19   22.20
   3   8 -11  103.69   15.10
   3   8 -11   71.89   21.10
   3   8 -11   89.99   18.90
   3   8 -11  108.19   24.00
  -3  -8  11   45.00   20.60
  -3  -8  11   94.99   19.50
  -3  -8  11  102.19   17.60
   2   8 -11    5.20   10.70
   2   8 -11  -17.00   17.00
   2   8 -11    0.70   18.20
   2   8 -11    7.30   16.30
  -2  -8  11   11.00   13.90
  -2  -8  11   23.20   14.60
  -2  -8  11   27.00   10.80
  -2  -8  11  -29.60   17.70
   1   8 -11  507.75   34.70
   1   8 -11  485.85   34.70
   1   8 -11  512.75   26.10
   1   8 -11  545.05   34.20
  -1  -8  11  447.16   34.10
  -1  -8  11  465.15   25.40
  -1  -8  11  553.04   30.70
  -1  -8  11  502.45   31.90
   0   8 -11   16.30   11.20
   0   8 -11   23.80   16.10
   0   8 -11   15.70   15.50
   0   8 -11    4.50   15.90
   0  -8  11   46.00   15.20
   0  -8  11   19.00   15.70
   0  -8  11   26.50    9.00
   0  -8  11   28.10   15.20
  -1   8 -11   36.20   16.00
  -1   8 -11   14.20   10.80
  -1   8 -11   11.80   14.80
  -1   8 -11   46.50   16.30
   1  -8  11   52.39   15.90
   1  -8  11   37.70   15.30
   1  -8  11   24.50   16.50
   1  -8  11   18.90    8.00
  -2   8 -11  161.08   20.10
  -2   8 -11  206.68   21.10
  -2   8 -11  166.48   21.60
   2  -8  11  208.38   23.10
   2  -8  11  228.18   25.20
   2  -8  11  219.18   24.80
  -3   8 -11  117.09   18.80
  -3   8 -11  128.69   19.20
  -3   8 -11   93.09   19.70
   3  -8  11  101.39   19.30
   3  -8  11  119.29   21.30
   3  -8  11  140.19   18.50
  -4   8 -11  108.39   21.70
  -4   8 -11   89.79   22.00
  -4   8 -11   92.39   20.10
   4  -8  11  105.89   19.80
   4  -8  11   91.09   22.30
   4  -8  11   99.89   21.10
   4   7 -11  148.69   21.50
   4   7 -11  180.38   20.00
   4   7 -11  141.69   22.90
   4   7 -11  128.79   21.80
  -4  -7  11  214.18   25.50
  -4  -7  11  136.19   18.90
  -4  -7  11   79.29   22.70
   3   7 -11   75.89   22.40
   3   7 -11   93.89   14.10
   3   7 -11   79.99   17.30
   3   7 -11   37.40   18.30
  -3  -7  11   85.49   17.20
  -3  -7  11   80.89   21.60
  -3  -7  11   82.09   16.10
   2   7 -11  -13.30   16.40
   2   7 -11   15.20   11.00
   2   7 -11   -6.30   15.30
   2   7 -11   15.40   13.90
  -2  -7  11   18.20   14.50
  -2  -7  11    3.90   12.00
  -2  -7  11    5.20   15.20
   1   7 -11  308.87   26.90
   1   7 -11  261.07   19.30
   1   7 -11  254.47   25.30
   1   7 -11  255.37   28.40
  -1  -7  11  263.37   24.80
  -1  -7  11  276.37   18.40
  -1  -7  11  273.77   24.80
  -1  -7  11  288.57   25.70
   0   7 -11    1.30   13.70
   0   7 -11  -24.30   12.10
   0   7 -11    0.60   10.00
   0   7 -11  -14.50   13.70
   0  -7  11    3.70   12.50
   0  -7  11    0.40    7.60
   0  -7  11  -19.50   12.00
   0  -7  11   -2.00   12.30
  -1   7 -11  476.65   29.60
  -1   7 -11  430.26   29.50
  -1   7 -11  421.46   24.40
  -1   7 -11  439.16   29.00
   1  -7  11  462.45   30.10
   1  -7  11  434.96   28.60
   1  -7  11  449.76   18.70
   1  -7  11  432.16   28.20
  -2   7 -11  103.69   17.50
  -2   7 -11   77.19   16.50
  -2   7 -11   71.49   15.60
   2  -7  11   92.79   15.50
   2  -7  11   93.59   17.90
   2  -7  11   68.59   15.60
  -3   7 -11   49.60   16.60
  -3   7 -11   56.49   16.60
  -3   7 -11   43.50   15.90
   3  -7  11   68.79   16.70
   3  -7  11   62.79   17.90
   3  -7  11   58.39   15.70
   3  -7  11   49.50   11.60
  -4   7 -11  523.05   35.60
  -4   7 -11  479.15   34.80
  -4   7 -11  435.86   31.70
   4  -7  11  471.75   33.40
   4  -7  11  484.15   24.80
   4  -7  11  478.05   35.80
   4  -7  11  426.26   30.40
  -5   7 -11   49.60   22.00
  -5   7 -11   -0.40   17.40
  -5   7 -11   44.20   21.50
   5  -7  11  101.89   21.80
   5  -7  11   30.60   19.60
   5  -7  11    0.40    8.80
   5  -7  11   27.10   18.30
   5   6 -11  158.48   23.80
   5   6 -11  157.48   22.40
  -5  -6  11  134.39   18.70
  -5  -6  11  156.98   22.00
  -5  -6  11  132.29   23.40
  -5  -6  11  163.08   25.00
   4   6 -11  568.74   27.90
   4   6 -11  495.05   33.40
   4   6 -11  502.35   36.60
   4   6 -11  447.86   35.50
  -4  -6  11  392.26   35.00
  -4  -6  11  506.05   32.00
  -4  -6  11  547.55   29.20
   3   6 -11  303.37   20.20
   3   6 -11  248.58   29.90
   3   6 -11  362.46   26.40
  -3  -6  11  272.27   29.90
  -3  -6  11  340.67   25.30
  -3  -6  11  338.37   27.60
   2   6 -11   72.19   12.10
   2   6 -11  101.39   17.00
   2   6 -11   54.19   16.00
  -2  -6  11   94.39   15.00
  -2  -6  11  118.89   16.10
  -2  -6  11   58.39   17.10
   1   6 -11   85.79   16.40
   1   6 -11   75.09   14.90
   1   6 -11   79.79   12.40
  -1  -6  11   82.59   14.30
  -1  -6  11   76.29   15.90
  -1  -6  11   91.79   14.80
   0   6 -11  366.36   22.10
   0   6 -11  365.46   26.60
   0   6 -11  387.26   25.00
   0  -6  11  385.46   24.90
   0  -6  11  379.96   17.70
   0  -6  11  376.66   26.70
   0  -6  11  391.96   25.40
  -1   6 -11   37.10   11.00
  -1   6 -11   49.00   14.30
  -1   6 -11   57.59   13.90
   1  -6  11   45.50   12.40
   1  -6  11   39.50   12.40
   1  -6  11   54.29    6.80
   1  -6  11   39.10   14.20
  -2   6 -11   23.20   13.60
  -2   6 -11   25.60   13.50
   2  -6  11   14.50   13.00
   2  -6  11   17.20   10.00
   2  -6  11   29.50   13.70
   2  -6  11   17.80   11.50
  -3   6 -11   60.99   15.70
  -3   6 -11   50.39   24.40
  -3   6 -11   56.39   15.40
   3  -6  11   56.49   13.90
   3  -6  11   57.89   15.50
   3  -6  11   68.49   12.10
   3  -6  11   68.49   16.50
  -4   6 -11  113.59   19.20
  -4   6 -11   75.49   17.20
  -4   6 -11  123.69   19.60
   4  -6  11   78.59   17.20
   4  -6  11   92.49   13.80
   4  -6  11   82.69   16.80
   4  -6  11   80.29   17.50
  -5   6 -11   12.10   17.40
  -5   6 -11   -4.60   18.80
  -5   6 -11    5.90   17.10
  -5   6 -11   10.20   13.60
   5  -6  11   14.40   14.50
   5  -6  11   44.50   19.60
   5  -6  11  -10.50   16.70
   5  -6  11   13.90   11.90
   5   5 -11   -8.10   13.70
   5   5 -11    4.30   11.90
   5   5 -11  -20.30   16.50
   5   5 -11   -7.00   17.00
  -5  -5  11  -10.60   15.00
  -5  -5  11  -13.70   13.00
  -5  -5  11   20.30   12.80
  -5  -5  11   -3.00   17.40
  -5  -5  11    8.70   13.70
   4   5 -11   24.70   16.60
   4   5 -11   -1.90   14.00
   4   5 -11  -17.80   10.60
   4   5 -11   -9.10   14.90
  -4  -5  11   14.40   11.90
  -4  -5  11    0.90   12.50
  -4  -5  11   -8.00   14.90
   3   5 -11   23.80    5.20
   3   5 -11   19.70   14.40
   3   5 -11   15.60   10.10
   3   5 -11  -25.50   13.90
  -3  -5  11   17.60   11.40
  -3  -5  11   21.00   12.70
  -3  -5  11   18.80   15.60
   2   5 -11  243.98   18.70
   2   5 -11  213.58   22.60
   2   5 -11  200.38   24.60
  -2  -5  11  213.68   21.60
  -2  -5  11  202.38   19.80
  -2  -5  11  220.58   21.50
   1   5 -11  186.78   17.90
   1   5 -11  228.58   23.10
   1   5 -11  192.78   19.20
  -1  -5  11  171.08   20.60
  -1  -5  11  195.38   18.90
  -1  -5  11  187.88   21.70
   0   5 -11  424.16   25.90
   0   5 -11  433.66   23.90
   0   5 -11  431.86   26.30
   0  -5  11  446.46   24.30
   0  -5  11  442.76   26.30
   0  -5  11  391.16   24.60
   0  -5  11  444.06   17.90
  -1   5 -11  164.18   20.40
  -1   5 -11  166.68   17.70
  -1   5 -11  189.28   20.10
   1  -5  11  186.38   19.40
   1  -5  11  183.28   17.80
   1  -5  11  151.18   17.50
   1  -5  11  173.58   20.20
  -2   5 -11  477.75   28.70
  -2   5 -11  509.75   28.70
   2  -5  11  481.65   27.30
   2  -5  11  486.65   26.50
   2  -5  11  469.85   25.20
   2  -5  11  502.55   29.20
  -3   5 -11   29.50   13.80
  -3   5 -11   39.40   14.10
  -3   5 -11   52.69   12.30
   3  -5  11   55.19   11.90
   3  -5  11   45.00   15.50
   3  -5  11   25.00   12.50
   3  -5  11   37.70   13.20
  -4   5 -11    2.40   15.20
  -4   5 -11    3.00   11.70
  -4   5 -11    7.20   14.30
  -4   5 -11   -0.70   14.70
   4  -5  11    3.40   13.40
   4  -5  11  -11.90   14.00
   4  -5  11    2.20   11.50
   4  -5  11   15.00   15.70
  -5   5 -11  404.96   27.40
  -5   5 -11  356.16   32.60
  -5   5 -11  415.56   34.10
  -5   5 -11  384.66   31.20
   5  -5  11  330.07   28.60
   5  -5  11  344.27   31.00
   5  -5  11  385.96   29.70
   5   4 -11   19.00   13.90
   5   4 -11  -18.90   12.10
   5   4 -11   19.90   15.90
   5   4 -11   -8.00   14.30
  -5  -4  11  -20.40   11.00
  -5  -4  11    0.10   12.80
  -5  -4  11   11.50   12.70
  -5  -4  11    9.30   15.40
  -5  -4  11   -3.80   12.00
   4   4 -11   77.49   16.90
   4   4 -11   84.49   13.30
   4   4 -11  106.39   15.10
   4   4 -11   83.29   17.60
  -4  -4  11   89.39   14.50
  -4  -4  11   84.09   16.20
  -4  -4  11   91.69   13.40
   3   4 -11  504.25   31.20
   3   4 -11  519.35   27.20
   3   4 -11  550.84   20.10
   3   4 -11  572.54   30.60
  -3  -4  11  609.04   29.40
  -3  -4  11  544.65   30.10
  -3  -4  11  574.34   27.90
   2   4 -11   99.09   14.70
   2   4 -11  136.59   16.30
   2   4 -11  155.48   19.40
   2   4 -11  141.89   10.90
  -2  -4  11  110.69   14.90
  -2  -4  11  139.89   16.70
  -2  -4  11  146.19   14.70
   1   4 -11   47.10   11.70
   1   4 -11   49.50   13.80
   1   4 -11   35.40   12.20
   1   4 -11   42.10    7.80
   1   4 -11   54.89   12.40
  -1  -4  11   40.80   10.00
  -1  -4  11   31.30   11.20
  -1  -4  11   42.10   11.40
   0   4 -11  144.19   18.70
   0   4 -11  107.19   13.90
   0   4 -11  135.59   13.50
   0   4 -11  115.89   13.50
   0   4 -11  125.29   14.30
   0  -4  11  110.39   14.30
   0  -4  11  123.79   15.50
   0  -4  11  115.79   12.90
   0  -4  11  108.79   13.80
  -1   4 -11   77.99   10.70
  -1   4 -11   65.99   12.00
  -1   4 -11   99.59   13.40
  -1   4 -11  105.49   13.60
   1  -4  11   64.59   12.40
   1  -4  11   91.69   12.30
   1  -4  11   81.29   12.50
   1  -4  11  105.09   12.20
  -2   4 -11   31.20   12.10
  -2   4 -11   19.40   11.60
  -2   4 -11   12.70    9.70
   2  -4  11   20.60   11.90
   2  -4  11   32.90   10.70
   2  -4  11   26.20   10.80
   2  -4  11   18.10   10.70
  -3   4 -11   -0.50   11.90
  -3   4 -11   22.40   12.10
  -3   4 -11   14.20   12.90
   3  -4  11   -6.20   11.90
   3  -4  11   12.00   13.10
   3  -4  11    7.60   11.40
   3  -4  11   -1.60   10.90
  -4   4 -11    6.90   13.50
  -4   4 -11   14.80   14.60
  -4   4 -11   -5.50   14.40
  -4   4 -11   13.30   13.20
   4  -4  11   -3.40    9.80
   4  -4  11    5.70   14.60
   4  -4  11   21.40   13.00
   4  -4  11   14.20   12.50
  -5   4 -11   22.80   17.80
  -5   4 -11    2.10   16.40
  -5   4 -11    3.80   15.50
  -5   4 -11  -14.80   12.80
   5  -4  11   -1.90   16.10
   5  -4  11   -2.20   16.00
   5  -4  11    4.40   14.70
   5  -4  11   26.10   14.60
   5   3 -11   10.90   12.10
   5   3 -11   -7.90   13.90
   5   3 -11    4.60   13.00
   5   3 -11   19.20   12.60
  -5  -3  11    2.70   10.70
  -5  -3  11    9.10   11.10
  -5  -3  11    0.90   12.90
  -5  -3  11    6.70   10.70
  -5  -3  11   24.90   13.90
   4   3 -11  281.97   21.70
   4   3 -11  272.07   25.30
   4   3 -11  253.37   23.40
   4   3 -11  310.37   22.50
  -4  -3  11  274.17   21.00
  -4  -3  11  261.27   19.90
  -4  -3  11  236.58   20.00
   3   3 -11   -5.20    4.60
   3   3 -11    2.10   10.80
   3   3 -11    7.00   10.40
  -3  -3  11   -6.80   10.50
  -3  -3  11    9.80    9.30
  -3  -3  11   25.40   10.50
   2   3 -11   35.60    6.50
   2   3 -11   12.70   12.50
   2   3 -11   31.70   11.50
   2   3 -11   49.80   12.10
  -2  -3  11   25.20   11.00
  -2  -3  11   27.10    9.80
  -2  -3  11   51.89   10.40
   1   3 -11  737.83   27.80
   1   3 -11  709.23   32.40
   1   3 -11  723.83   31.80
   1   3 -11  768.32   33.60
  -1  -3  11  701.53   30.70
  -1  -3  11  733.23   31.00
  -1  -3  11  718.13   33.10
  -1  -3  11  739.93   31.40
   0   3 -11   94.59   13.00
   0   3 -11   97.39   12.80
   0   3 -11   95.99   10.10
   0   3 -11   96.89   12.00
   0  -3  11   93.89   12.30
   0  -3  11   89.29   11.00
   0  -3  11   92.19   13.30
   0  -3  11   94.99   11.50
  -1   3 -11  100.29   11.60
  -1   3 -11   81.59   12.20
  -1   3 -11  108.49   12.60
   1  -3  11   92.19   12.40
   1  -3  11  101.09   11.70
   1  -3  11   93.09   11.10
   1  -3  11  111.89   14.40
  -2   3 -11  389.06   22.40
  -2   3 -11  377.26   22.50
   2  -3  11  333.07   22.80
   2  -3  11  355.16   22.00
   2  -3  11  314.47   23.60
   2  -3  11  366.96   21.10
  -3   3 -11  189.38   17.60
  -3   3 -11  233.68   21.60
  -3   3 -11  237.18   22.70
  -3   3 -11  193.08   21.60
   3  -3  11  208.08   18.90
   3  -3  11  218.08   20.80
   3  -3  11  236.88   21.90
  -4   3 -11   21.40   12.20
  -4   3 -11  -24.20   14.10
  -4   3 -11  -10.30   14.00
  -4   3 -11   24.40   14.70
   4  -3  11   -9.00   12.10
   4  -3  11    3.70   11.90
   4  -3  11    4.70   12.60
  -5   3 -11   43.10   14.70
  -5   3 -11   32.90   17.50
  -5   3 -11   60.79   15.70
  -5   3 -11   51.29   18.00
   5  -3  11    5.80   13.90
   5  -3  11   42.80   16.60
   5  -3  11   44.30   16.00
   5  -3  11   43.00   15.20
   6   2 -11   90.99   15.50
   6   2 -11   70.39   16.70
   6   2 -11   84.39   16.80
  -6  -2  11   84.19   16.50
  -6  -2  11   86.49   16.20
  -6  -2  11   84.29   16.80
  -6  -2  11   82.09   13.90
   5   2 -11  285.57   23.80
   5   2 -11  295.37   23.30
   5   2 -11  285.47   24.40
   5   2 -11  304.37   24.70
  -5  -2  11  293.57   23.40
  -5  -2  11  264.57   20.70
  -5  -2  11  309.77   21.70
  -5  -2  11  305.37   24.90
  -5  -2  11  271.97   21.30
   4   2 -11    6.30   10.40
   4   2 -11    6.70   12.10
  -4  -2  11   -1.20    8.70
  -4  -2  11  -17.00   13.20
  -4  -2  11    6.00   10.30
  -4  -2  11    0.60    9.00
  -4  -2  11    9.20    9.30
   3   2 -11    2.20    9.80
   3   2 -11    3.70    9.90
   3   2 -11    4.30    5.00
   3   2 -11   14.30   11.70
  -3  -2  11   12.70    8.50
  -3  -2  11   10.00    9.10
  -3  -2  11    8.80    9.20
   2   2 -11   83.79   13.70
   2   2 -11   67.49   12.80
   2   2 -11   66.99    7.80
   2   2 -11   67.89   11.60
  -2  -2  11  100.79   11.30
  -2  -2  11   91.49   11.20
  -2  -2  11   65.59   10.30
   1   2 -11   -2.50    6.50
   1   2 -11  -14.90    9.60
   1   2 -11   13.50    8.60
   1   2 -11   -7.90    9.00
  -1  -2  11  -18.30    7.40
  -1  -2  11   14.70    7.70
  -1  -2  11    3.70    7.30
  -1  -2  11    2.10   11.00
   0   2 -11   -0.20    8.90
   0   2 -11   -2.50    7.40
   0   2 -11   -0.10    8.00
   0  -2  11  -14.70    7.40
   0  -2  11   -1.10   10.20
   0  -2  11   -4.90    7.20
   0  -2  11    7.70    4.10
   0  -2  11   -3.00    7.40
  -1   2 -11   54.59   10.20
  -1   2 -11   29.50   10.00
  -1   2 -11   43.70    9.90
   1  -2  11   48.30   12.10
   1  -2  11   44.30    9.00
   1  -2  11   49.90    9.00
   1  -2  11   47.40    9.90
  -2   2 -11   57.39   11.60
  -2   2 -11   56.69   11.40
   2  -2  11   78.59   12.80
   2  -2  11   78.09   10.80
   2  -2  11   28.20   10.90
   2  -2  11   72.99   10.80
  -3   2 -11   17.60   11.80
  -3   2 -11   16.70   11.50
  -3   2 -11   19.30   12.60
   3  -2  11   16.40   10.60
   3  -2  11   38.40   12.30
   3  -2  11   24.20   10.70
  -4   2 -11   19.30   13.10
  -4   2 -11   21.00   13.10
  -4   2 -11   49.60   14.90
  -4   2 -11   40.00   14.50
   4  -2  11   42.30   12.70
   4  -2  11   28.40   14.40
   4  -2  11   38.60   13.70
   4  -2  11   11.20   11.80
   6   1 -11  140.19   17.40
   6   1 -11  132.39   18.30
  -6  -1  11  165.38   19.40
  -6  -1  11  120.59   15.20
  -6  -1  11  174.28   19.10
  -6  -1  11  147.59   21.60
   5   1 -11    0.90   10.50
   5   1 -11   -3.20   11.60
   5   1 -11    3.50   10.50
   5   1 -11  -10.70   12.50
  -5  -1  11   -0.30    8.90
  -5  -1  11    2.60   10.00
  -5  -1  11  -25.20   12.90
  -5  -1  11   10.70   10.80
  -5  -1  11   -8.80    9.40
   4   1 -11  140.39   14.10
   4   1 -11  123.19   16.00
  -4  -1  11  126.99   14.90
  -4  -1  11  135.89   12.70
  -4  -1  11  118.59   15.40
  -4  -1  11  141.59   15.30
  -4  -1  11  136.59   15.90
   3   1 -11  218.68   18.10
   3   1 -11  226.78   18.30
   3   1 -11  235.48   19.30
  -3  -1  11  242.18   16.90
  -3  -1  11  228.18   16.80
   2   1 -11   45.30   10.00
   2   1 -11   36.40   13.30
   2   1 -11   55.39    7.80
   2   1 -11   41.10   10.30
  -2  -1  11   48.70    8.80
  -2  -1  11   35.90    8.30
  -2  -1  11   52.29    8.60
   1   1 -11   14.30   11.10
   1   1 -11   15.20    8.20
   1   1 -11   16.40    7.50
   1   1 -11   15.30    8.10
   1   1 -11   16.40    9.10
  -1  -1  11   21.80    7.00
  -1  -1  11   14.50    7.30
  -1  -1  11   18.40    6.10
  -1  -1  11   16.90    7.40
   0   1 -11  480.05   22.50
   0   1 -11  499.35   22.80
   0   1 -11  497.15   23.20
   0   1 -11  492.25   22.50
   0  -1  11  490.25   18.40
   0  -1  11  479.35   21.00
   0  -1  11  494.55   21.80
   0  -1  11  479.45   21.40
   0  -1  11  413.56   24.00
  -1   1 -11    3.40    8.70
  -1   1 -11    1.80    8.30
  -1   1 -11   -5.70    8.50
   1  -1  11   -5.30    7.60
   1  -1  11    9.80    7.40
   1  -1  11   -1.10    6.80
   1  -1  11    0.80    8.30
  -2   1 -11    7.00    9.30
  -2   1 -11  -11.00    9.60
  -2   1 -11   20.10    9.30
   2  -1  11   -6.40    8.40
   2  -1  11    4.00    9.10
   2  -1  11    1.20    7.90
  -3   1 -11   99.39   14.70
  -3   1 -11   93.89   13.70
  -3   1 -11  109.39   14.70
   3  -1  11  131.89   13.40
   3  -1  11  121.39   16.10
   3  -1  11  108.89   14.20
   3  -1  11  102.99   12.90
  -4   1 -11  -26.10   12.00
  -4   1 -11   23.80   14.00
  -4   1 -11    7.90   13.60
  -4   1 -11   15.60   13.00
   4  -1  11   27.30   13.50
   4  -1  11   16.90   11.80
   4  -1  11    5.80   11.80
   4  -1  11   23.50   15.70
   6   0 -11    1.80   13.20
   6   0 -11   25.70   14.40
   6   0 -11  -15.90    9.10
  -6   0  11    2.40    9.50
  -6   0  11    0.30   13.20
  -6   0  11   -8.20    9.70
   5   0 -11  167.78   18.90
   5   0 -11  171.28   18.80
   5   0 -11  147.29   18.40
  -5   0  11  163.18   17.30
  -5   0  11  170.18   15.80
  -5   0  11  141.49   15.80
  -5   0  11  170.68   15.60
  -5   0  11  182.08   18.50
   4   0 -11    5.20   12.60
   4   0 -11   -0.60    7.30
   4   0 -11    5.00    8.30
   4   0 -11    2.50    6.80
  -4   0  11   -3.70    8.00
  -4   0  11    6.00    6.90
  -4   0  11    7.90    7.20
  -4   0  11    6.40   12.40
  -4   0  11   -0.30    7.70
   3   0 -11   52.59   10.30
   3   0 -11   72.19   14.00
   3   0 -11   59.59    9.90
  -3   0  11   62.89    9.00
  -3   0  11   59.39    8.10
  -3   0  11   60.89    8.90
  -3   0  11   66.29    8.00
   2   0 -11   -3.70   12.40
   2   0 -11   -1.50    7.70
   2   0 -11   11.10    7.80
   2   0 -11   -0.80    6.60
   2   0 -11   -5.10    5.50
  -2   0  11    5.70    6.10
  -2   0  11   -6.20    6.00
  -2   0  11   -7.60    6.30
   1   0 -11  132.79   12.60
   1   0 -11  155.08   14.20
   1   0 -11  128.59   12.50
   1   0 -11  141.99   14.50
  -1   0  11  149.88   11.30
  -1   0  11  148.49   12.60
  -1   0  11  150.48   12.90
  -1   0  11  148.89   11.30
   0   0 -11  227.28   15.90
   0   0 -11  219.78   17.20
   0   0 -11  220.28   14.90
   0   0  11  235.08   12.90
   0   0  11  221.28   13.70
   0   0  11  228.58   13.40
   0   0  11  222.68   14.00
  -1   0 -11   12.60    8.40
  -1   0 -11    8.50   10.20
  -1   0 -11    8.30    7.80
   1   0  11    7.90    7.00
   1   0  11   11.50    6.50
   1   0  11   11.90    7.20
  -2   0 -11  108.39   12.60
  -2   0 -11  117.99   13.70
  -2   0 -11  109.39   12.00
   2   0  11  136.09   16.70
   2   0  11  109.39   14.10
   2   0  11  115.19   12.20
   2   0  11  126.69   13.70
  -3   0 -11  111.89   13.50
  -3   0 -11  162.18   15.90
  -3   0 -11  177.28   19.30
  -3   0 -11  162.78   20.00
   3   0  11  166.48   19.70
   3   0  11  160.48   18.20
   3   0  11  177.08   16.90
   3   0  11  139.39   16.40
  -4   0 -11   19.50   10.20
  -4   0 -11   15.20   13.60
  -4   0 -11   22.40   14.70
  -4   0 -11    8.70   11.70
   4   0  11   12.40   15.90
   4   0  11    0.20   10.90
   4   0  11    0.10   10.90
   4   0  11   24.90   12.70
   5  -1 -11  210.18   17.70
   5  -1 -11  202.28   23.50
   5  -1 -11  170.28   17.00
  -5   1  11  196.68   19.70
  -5   1  11  185.78   16.30
  -5   1  11  202.88   14.70
  -5   1  11  205.68   16.00
  -5   1  11  179.98   15.50
   4  -1 -11   35.20   14.20
   4  -1 -11   43.00    9.20
   4  -1 -11   49.30    8.70
  -4   1  11   54.89    8.80
  -4   1  11   43.40    8.60
  -4   1  11   39.90   17.90
  -4   1  11   58.59    7.80
  -4   1  11   43.60    8.60
   3  -1 -11  154.08   13.10
   3  -1 -11  166.98   18.10
  -3   1  11  165.08   11.40
  -3   1  11  143.39   18.30
  -3   1  11  156.18   10.90
  -3   1  11  164.78   11.10
  -3   1  11  177.88   12.20
   2  -1 -11  330.07   16.30
   2  -1 -11  330.77   24.40
   2  -1 -11  296.27   14.60
  -2   1  11  321.67   22.40
  -2   1  11  341.27   14.20
  -2   1  11  350.76   25.10
  -2   1  11  328.57   13.80
  -2   1  11  349.67   19.60
  -2   1  11  325.37   14.10
  -2   1  11  320.67   13.70
   1  -1 -11   42.70    9.40
   1  -1 -11   36.80    7.70
   1  -1 -11   26.30    6.10
  -1   1  11   29.30    5.30
  -1   1  11   38.70    5.30
  -1   1  11   33.70    5.10
  -1   1  11   36.40    8.40
   0  -1 -11  129.19   13.00
   0  -1 -11  123.59   12.80
   0   1  11  147.29   12.50
   0   1  11  131.19   10.30
   0   1  11  119.69   10.10
   0   1  11  115.69   10.20
  -1  -1 -11   74.39   10.00
  -1  -1 -11   85.89   12.60
   1   1  11   78.99    9.60
   1   1  11   81.29    8.30
   1   1  11  100.39   11.50
  -2  -1 -11    2.80    5.20
  -2  -1 -11    5.00    6.30
  -2  -1 -11   12.30    9.30
  -2  -1 -11    7.40   11.40
   2   1  11    9.70   13.80
   2   1  11   27.10    8.40
   2   1  11   20.50    7.60
   2   1  11   21.50    8.50
  -3  -1 -11   -9.30    7.30
  -3  -1 -11   24.00   11.40
  -3  -1 -11    9.90   11.00
  -3  -1 -11    7.80    6.30
  -3  -1 -11    7.40   12.90
   3   1  11    5.80   15.90
   3   1  11   19.50    9.80
   3   1  11    7.10    9.70
   3   1  11    7.20    8.90
   5  -2 -11   -3.30    6.50
   5  -2 -11   27.60   15.00
  -5   2  11   -1.30    6.90
  -5   2  11   -2.40    7.50
  -5   2  11    8.90    7.30
  -5   2  11  -14.40   12.50
  -5   2  11    3.70    6.90
   4  -2 -11   19.00    7.40
   4  -2 -11   21.70   14.10
  -4   2  11   15.50    5.30
  -4   2  11   11.30    5.50
  -4   2  11   26.10   13.70
  -4   2  11   14.70    4.90
  -4   2  11   25.60    6.40
   3  -2 -11  639.44   32.40
   3  -2 -11  614.24   22.60
  -3   2  11  600.34   30.00
  -3   2  11  611.04   29.10
  -3   2  11  548.35   32.60
  -3   2  11  620.74   20.50
  -3   2  11  596.84   20.30
   2  -2 -11  145.79    7.50
   2  -2 -11  151.88    9.30
  -2   2  11  154.58   17.80
  -2   2  11  115.49   13.90
  -2   2  11  147.69   16.80
   1  -2 -11   -2.30    9.50
   1  -2 -11    9.00    5.10
   1  -2 -11   15.20    3.70
   1  -2 -11    5.20    3.00
  -1   2  11   18.40   12.80
  -1   2  11   17.10    8.40
  -1   2  11    9.80   10.30
   0  -2 -11  326.37   15.60
   0  -2 -11  303.77   13.30
   0  -2 -11  355.86   21.70
   0   2  11  322.87   12.40
   0   2  11  332.07   24.30
   0   2  11  303.07   18.10
  -1  -2 -11   32.30    8.40
  -1  -2 -11   32.00   12.60
  -1  -2 -11   36.30    9.00
   1   2  11   32.00    6.30
   1   2  11   58.19   20.20
   1   2  11   38.20    6.50
   1   2  11   46.90    6.40
  -2  -2 -11   10.80    9.30
  -2  -2 -11    0.00    6.20
  -2  -2 -11  -15.50   12.10
  -2  -2 -11   -6.40    5.40
   2   2  11   10.30    9.50
   2   2  11    6.60   16.20
   2   2  11    4.20    7.00
   2   2  11   -0.60    7.10
  -3  -2 -11   25.90   13.10
  -3  -2 -11   52.19   12.40
  -3  -2 -11   35.80   10.70
   3   2  11   31.30    9.90
   3   2  11   47.10   17.50
   3   2  11   50.99    8.60
   3   2  11   26.80    9.50
   5  -3 -11   47.50   16.70
  -5   3  11   54.99    6.70
  -5   3  11   68.89    7.80
   4  -3 -11    9.00    5.30
   4  -3 -11    7.00   14.50
  -4   3  11   14.90   12.20
  -4   3  11   -6.30   13.10
  -3   3  11  -11.40   12.00
  -3   3  11  -11.30    7.60
  -3   3  11    3.50   11.40
  -3   3  11   21.40   15.10
  -2   3  11   29.90   12.10
  -2   3  11   24.50    9.80
  -2   3  11   22.80   14.60
  -2   3  11   38.40   11.20
  -1   3  11   82.79   12.90
  -1   3  11   77.09   15.10
  -1   3  11  119.39   12.40
  -1   3  11   89.29   12.10
   0  -3 -11   81.59   13.30
   0   3  11  116.29   17.40
   0   3  11   82.59   12.50
   0   3  11   97.59   11.50
   0   3  11   88.49   12.50
  -1  -3 -11   50.89    8.00
  -1  -3 -11   38.90   12.80
  -1  -3 -11   36.60    6.40
   1   3  11   45.60   11.60
   1   3  11   44.80   15.90
  -2  -3 -11  102.09   11.00
  -2  -3 -11   83.99   14.90
   2   3  11  116.99   11.20
   2   3  11  102.59   12.50
   2   3  11  126.89   19.30
  -4   4  11   31.70   14.30
  -4   4  11   35.50   15.10
  -4   4  11   38.80   18.90
  -4   4  11   53.09   10.00
  -3   4  11   10.80   13.30
  -3   4  11   54.59   10.90
  -3   4  11   65.79   14.30
  -3   4  11   45.00   16.60
  -2   4  11  747.03   36.20
  -2   4  11  716.43   33.60
  -2   4  11  717.93   33.60
  -2   4  11  706.83   31.60
  -1   4  11   13.80   10.90
  -1   4  11   28.40   11.20
  -1   4  11   19.10   15.10
  -1   4  11   20.50   10.70
   0   4  11  -33.00   11.10
   0   4  11    0.40   10.70
   0   4  11   -3.70   15.20
   0   4  11    6.80   11.00
   1   4  11  168.58   18.00
   1   4  11  218.78   20.30
   1   4  11  163.88   20.40
  -2   5  11   65.49   14.80
  -2   5  11   58.89   16.60
  -2   5  11   52.49   12.90
  -2   5  11   49.80   13.80
  -1   5  11   69.69   16.40
  -1   5  11   31.30   13.50
  -1   5  11   19.60   13.80
  -1   5  11   37.60   12.90
   0  10 -12  128.39   16.40
   0  10 -12   96.89   22.40
   0  10 -12  154.28   23.60
   0  10 -12  124.59   23.90
   0 -10  12  128.19   24.00
   0 -10  12  134.19   20.80
   0 -10  12  125.59   15.10
   0 -10  12  119.09   20.10
  -1  10 -12   55.69   13.10
  -1  10 -12  102.99   21.20
  -1  10 -12   38.20   20.40
  -1  10 -12   85.39   21.70
   1 -10  12  104.59   19.80
   1 -10  12   91.39   18.50
   1 -10  12   63.69   11.60
   1 -10  12   55.29   20.00
   2   9 -12  -28.80   18.40
   2   9 -12   11.90   21.40
   2   9 -12  -31.10   12.70
   2   9 -12  -23.10   19.90
  -2  -9  12   18.00   13.10
  -2  -9  12  -17.70   17.60
  -2  -9  12    0.10   21.50
  -2  -9  12   -8.30   16.40
   1   9 -12  429.96   26.90
   1   9 -12  356.36   36.30
   1   9 -12  476.05   35.70
   1   9 -12  403.86   35.90
  -1  -9  12  416.66   33.20
  -1  -9  12  361.86   24.50
  -1  -9  12  448.66   34.10
  -1  -9  12  466.65   34.80
   0   9 -12   -6.20   16.80
   0   9 -12    9.90   18.50
   0   9 -12  -13.90   16.30
   0   9 -12   22.20   12.10
   0  -9  12   17.10   17.40
   0  -9  12   -4.80   19.00
   0  -9  12   23.60   16.10
   0  -9  12    1.40    9.70
  -1   9 -12   26.60   12.30
  -1   9 -12   -4.60   18.40
  -1   9 -12   12.20   16.70
  -1   9 -12  -19.20   15.90
   1  -9  12    9.10    8.40
   1  -9  12   17.90   16.90
   1  -9  12   26.50   16.70
   1  -9  12  -20.60   16.40
  -2   9 -12  330.07   33.00
  -2   9 -12  320.97   32.70
  -2   9 -12  341.37   32.80
   2  -9  12  390.86   31.80
   2  -9  12  322.37   31.30
   2  -9  12  305.87   30.30
  -3   9 -12   24.40   18.90
  -3   9 -12   39.20   19.30
  -3   9 -12  -10.70   17.90
   3  -9  12   70.19   18.00
   3  -9  12   17.40   16.10
   3  -9  12   62.59   21.60
   3   8 -12   13.30   13.60
   3   8 -12   -7.20   20.70
   3   8 -12   16.00   18.70
   3   8 -12  -23.00   21.70
  -3  -8  12  -32.50   19.60
  -3  -8  12   -3.30   17.20
  -3  -8  12   18.10   16.20
   2   8 -12  384.96   24.80
   2   8 -12  335.57   32.50
   2   8 -12  306.87   33.70
   2   8 -12  319.47   33.50
  -2  -8  12  346.37   31.10
  -2  -8  12  332.67   31.90
  -2  -8  12  380.16   24.00
  -2  -8  12  394.66   31.00
   1   8 -12   15.90   17.90
   1   8 -12   46.90   17.40
   1   8 -12   40.00   12.80
   1   8 -12   24.10   16.90
  -1  -8  12   41.60   16.70
  -1  -8  12    9.80   13.80
  -1  -8  12   21.10   17.90
  -1  -8  12   47.20   10.80
   0   8 -12  189.08   20.60
   0   8 -12  204.28   26.80
   0   8 -12  196.18   22.60
   0   8 -12  194.58   22.30
   0  -8  12  201.18   22.40
   0  -8  12  163.98   18.90
   0  -8  12  224.18   25.70
   0  -8  12  178.98   15.90
  -1   8 -12    4.50   15.10
  -1   8 -12   17.10   16.20
  -1   8 -12   26.90   16.10
  -1   8 -12    1.70   11.20
   1  -8  12   -6.00   15.70
   1  -8  12    3.40    6.50
   1  -8  12    2.40   13.60
   1  -8  12   11.30   14.20
  -2   8 -12   12.00   15.90
  -2   8 -12    5.70   16.00
  -2   8 -12   38.80   17.40
   2  -8  12   14.60   14.40
   2  -8  12   -2.60   14.80
   2  -8  12    7.90   17.70
  -3   8 -12  264.37   30.70
  -3   8 -12  338.27   31.90
  -3   8 -12  253.67   31.50
   3  -8  12  344.27   34.00
   3  -8  12  251.07   26.00
   3  -8  12  280.77   29.40
   3   7 -12   51.19   19.90
   3   7 -12   68.89   14.20
   3   7 -12   85.79   18.40
   3   7 -12   38.60   22.70
  -3  -7  12   53.39   16.30
  -3  -7  12   38.90   21.00
  -3  -7  12   84.49   18.00
   2   7 -12   78.69   19.20
   2   7 -12   86.59   20.10
   2   7 -12  126.99   20.10
   2   7 -12  114.69   15.20
  -2  -7  12  118.69   21.70
  -2  -7  12  144.09   19.00
  -2  -7  12  125.09   17.90
   1   7 -12  381.16   29.60
   1   7 -12  376.96   31.60
   1   7 -12  329.47   30.40
   1   7 -12  379.16   24.30
  -1  -7  12  359.36   20.80
  -1  -7  12  396.76   27.80
  -1  -7  12  399.66   29.90
  -1  -7  12  392.26   30.30
   0   7 -12  654.93   34.80
   0   7 -12  597.14   29.80
   0   7 -12  614.64   42.70
   0   7 -12  649.93   35.60
   0  -7  12  615.44   33.70
   0  -7  12  608.74   25.00
   0  -7  12  573.44   33.00
   0  -7  12  617.04   34.70
  -1   7 -12   94.59   17.80
  -1   7 -12   64.89   13.20
  -1   7 -12   83.69   16.30
  -1   7 -12   91.59   16.30
   1  -7  12   92.59   15.00
   1  -7  12   99.49   16.50
   1  -7  12   92.89    8.60
   1  -7  12   88.29   16.40
  -2   7 -12   37.80   15.40
  -2   7 -12    1.80   14.50
  -2   7 -12    6.30   13.90
   2  -7  12   -2.30   13.60
   2  -7  12   15.60   14.60
   2  -7  12   -3.00   15.20
  -3   7 -12  571.84   35.70
  -3   7 -12  552.24   35.70
  -3   7 -12  603.94   35.50
   3  -7  12  540.25   34.00
   3  -7  12  526.75   36.70
   3  -7  12  512.15   27.90
   3  -7  12  560.04   33.50
  -4   7 -12   34.40   18.90
  -4   7 -12   15.70   17.50
  -4   7 -12   33.70   20.30
   4  -7  12   54.79   18.00
   4  -7  12   31.30   17.00
   4  -7  12   20.90   12.20
   4  -7  12   42.60   19.90
   4   6 -12   15.20   19.20
   4   6 -12   52.19   21.30
   4   6 -12   -0.10   13.10
   4   6 -12   42.50   17.90
  -4  -6  12   52.99   20.30
  -4  -6  12   31.80   15.80
  -4  -6  12    7.20   15.30
  -4  -6  12   32.00   13.90
   3   6 -12  140.59   20.10
   3   6 -12   92.99   21.10
   3   6 -12   89.19   10.40
   3   6 -12   71.59   18.80
   3   6 -12   96.79   14.80
  -3  -6  12   91.59   17.80
  -3  -6  12  102.29   20.70
   2   6 -12   24.00   14.90
   2   6 -12   60.79   16.80
   2   6 -12   36.30   11.50
  -2  -6  12    5.30   15.40
  -2  -6  12   31.10   15.00
  -2  -6  12   50.59   14.30
   1   6 -12  145.69   15.60
   1   6 -12   77.59   16.00
   1   6 -12   90.79   16.00
  -1  -6  12  100.79   15.30
  -1  -6  12  100.59   16.60
  -1  -6  12   91.39   15.80
   0   6 -12   26.80   13.80
   0   6 -12   46.00   14.40
   0   6 -12   59.49   13.30
   0  -6  12   41.50   13.10
   0  -6  12   47.80   13.30
   0  -6  12   61.19   13.60
   0  -6  12   48.20    7.30
  -1   6 -12  426.76   24.90
  -1   6 -12  402.26   28.30
  -1   6 -12  430.26   28.00
   1  -6  12  412.26   26.30
   1  -6  12  357.46   27.60
   1  -6  12  475.45   27.30
  -2   6 -12   19.10   14.30
  -2   6 -12    3.20   14.00
   2  -6  12    2.70   13.30
   2  -6  12   -2.30   12.70
   2  -6  12   -2.20   11.00
   2  -6  12   15.10   15.10
  -3   6 -12   21.10   15.40
  -3   6 -12   29.80   16.50
  -3   6 -12   20.20   14.90
   3  -6  12   24.80   14.10
   3  -6  12   55.09   17.90
   3  -6  12   42.20   14.90
   3  -6  12   50.29   12.80
  -4   6 -12  116.39   19.20
  -4   6 -12   82.29   15.50
  -4   6 -12  105.29   19.20
  -4   6 -12   88.79   19.30
   4  -6  12   53.79   16.40
   4  -6  12   87.29   19.60
   4  -6  12   84.79   18.00
   4   5 -12  -11.40   16.90
   4   5 -12   25.70   13.00
   4   5 -12   35.00   16.60
   4   5 -12    5.30   17.20
  -4  -5  12  -21.00   15.50
  -4  -5  12   -1.00   13.70
  -4  -5  12  -12.80   13.90
  -4  -5  12   10.60   12.90
   3   5 -12  589.94   38.90
   3   5 -12  640.14   37.10
   3   5 -12  585.94   35.30
   3   5 -12  673.13   23.80
   3   5 -12  654.53   31.70
  -3  -5  12  699.73   35.20
  -3  -5  12  702.73   33.10
  -3  -5  12  662.03   36.30
   2   5 -12   28.30    7.40
   2   5 -12   -2.50   13.10
   2   5 -12   16.40   15.90
   2   5 -12   45.70   13.50
   2   5 -12   42.50   11.30
  -2  -5  12   20.50   13.40
  -2  -5  12   34.00   12.50
  -2  -5  12   17.80   13.40
   1   5 -12  171.88   21.70
   1   5 -12  189.38   19.00
   1   5 -12  146.59   21.20
   1   5 -12  155.78   14.60
   1   5 -12  172.18   18.10
  -1  -5  12  203.98   21.90
  -1  -5  12  139.99   16.20
  -1  -5  12  163.78   18.90
   0   5 -12  253.57   21.80
   0   5 -12  280.07   21.20
   0   5 -12  247.38   17.50
   0   5 -12  211.88   22.70
   0  -5  12  275.57   22.10
   0  -5  12  218.68   20.20
   0  -5  12  252.57   12.40
   0  -5  12  263.37   22.10
  -1   5 -12  231.78   18.10
  -1   5 -12  173.28   17.80
  -1   5 -12  160.18   17.10
   1  -5  12  186.08   20.90
   1  -5  12  171.68   19.40
   1  -5  12  200.18   19.10
   1  -5  12  153.18   20.20
  -2   5 -12  284.67   24.20
  -2   5 -12  267.47   25.50
  -2   5 -12  268.87   20.20
   2  -5  12  272.07   21.70
   2  -5  12  285.27   23.50
   2  -5  12  291.87   22.10
   2  -5  12  284.47   25.50
  -3   5 -12   28.50   15.10
  -3   5 -12   26.70   14.60
  -3   5 -12   22.10   12.60
  -3   5 -12   -1.60   14.60
   3  -5  12   22.50   13.40
   3  -5  12    8.50   15.40
   3  -5  12    5.80    9.70
   3  -5  12   11.80   12.70
  -4   5 -12  116.99   16.80
  -4   5 -12   89.39   18.60
  -4   5 -12  107.39   19.90
  -4   5 -12   92.39   17.70
   4  -5  12  109.39   17.30
   4  -5  12   98.49   19.70
   4  -5  12   85.49   16.20
   5   4 -12  355.96   32.80
   5   4 -12  319.57   32.80
   5   4 -12  385.86   30.20
  -5  -4  12  305.97   25.70
  -5  -4  12  345.27   29.20
  -5  -4  12  315.47   28.80
  -5  -4  12  294.47   24.30
  -5  -4  12  314.47   23.80
   4   4 -12  -10.00   15.10
   4   4 -12  -11.30   12.30
   4   4 -12   21.40   14.50
   4   4 -12   -8.40   15.10
  -4  -4  12  -13.50   11.40
  -4  -4  12   19.20   14.10
  -4  -4  12   -0.80   15.00
  -4  -4  12    6.70   12.10
   3   4 -12   89.69   15.40
   3   4 -12   81.99   16.40
   3   4 -12   91.09    9.40
   3   4 -12   55.59   17.50
   3   4 -12   76.49   13.40
  -3  -4  12   83.19   15.50
  -3  -4  12   72.29   13.90
  -3  -4  12   90.49   14.00
   2   4 -12  505.45   29.40
   2   4 -12  545.75   29.40
   2   4 -12  468.15   27.20
   2   4 -12  512.45   21.30
  -2  -4  12  528.15   28.50
  -2  -4  12  524.75   27.70
  -2  -4  12  506.75   29.70
   1   4 -12  273.47   16.70
   1   4 -12  193.58   21.10
   1   4 -12  245.48   21.50
   1   4 -12  278.37   21.90
  -1  -4  12  290.87   21.60
  -1  -4  12  291.07   20.10
  -1  -4  12  274.67   21.10
   0   4 -12    4.20    8.70
   0   4 -12    6.60   11.20
   0   4 -12   -4.40   10.20
   0   4 -12   10.80   10.50
   0  -4  12  -13.40    9.70
   0  -4  12    4.60    9.50
   0  -4  12    1.30   10.30
   0  -4  12   18.30    9.90
  -1   4 -12   48.10   11.80
  -1   4 -12   45.10   12.20
  -1   4 -12   57.79   11.20
   1  -4  12   49.10   11.70
   1  -4  12   39.20   11.30
   1  -4  12   58.39   11.40
  -2   4 -12  427.46   25.60
  -2   4 -12  401.06   26.90
  -2   4 -12  384.06   26.50
  -2   4 -12  412.06   24.40
   2  -4  12  404.46   24.80
   2  -4  12  427.56   25.00
   2  -4  12  397.76   27.70
  -3   4 -12   36.40   15.60
  -3   4 -12   29.40   12.60
  -3   4 -12   51.49   14.60
  -3   4 -12   31.90   14.70
   3  -4  12   37.80   13.30
   3  -4  12   39.80   15.40
   3  -4  12   35.50   13.00
  -4   4 -12   47.60   16.90
  -4   4 -12   74.99   17.10
  -4   4 -12   48.80   16.20
  -4   4 -12   60.89   14.60
   4  -4  12   88.09   18.60
   4  -4  12   80.99   16.00
   4  -4  12   46.30   14.80
   4  -4  12   90.99   15.90
   5   3 -12  344.47   25.80
   5   3 -12  337.17   28.20
   5   3 -12  314.67   27.10
   5   3 -12  362.46   29.00
  -5  -3  12  321.37   28.80
  -5  -3  12  313.07   24.10
  -5  -3  12  343.27   22.60
  -5  -3  12  356.46   25.00
  -5  -3  12  407.46   27.30
   4   3 -12  115.19   16.70
   4   3 -12  135.19   18.10
   4   3 -12  167.88   17.80
   4   3 -12  176.38   20.10
  -4  -3  12  193.68   21.60
  -4  -3  12  118.29   17.30
  -4  -3  12  155.28   20.10
  -4  -3  12  148.59   15.60
   3   3 -12  123.49   10.40
   3   3 -12  136.39   17.90
   3   3 -12  142.79   16.10
   3   3 -12  164.88   17.50
  -3  -3  12  113.19   14.60
  -3  -3  12  129.89   14.50
  -3  -3  12  153.08   18.30
   2   3 -12  684.53   32.20
   2   3 -12  671.83   26.20
   2   3 -12  689.03   33.00
  -2  -3  12  707.13   31.70
  -2  -3  12  682.83   31.60
  -2  -3  12  694.13   30.70
   1   3 -12   79.79   14.10
   1   3 -12   69.49   12.00
   1   3 -12   40.30    8.70
  -1  -3  12   51.59   10.60
  -1  -3  12   61.69   10.60
  -1  -3  12   60.69   11.20
   0   3 -12  682.53   31.70
   0   3 -12  686.33   28.80
   0   3 -12  739.93   31.20
   0  -3  12  697.73   30.00
   0  -3  12  692.73   30.80
   0  -3  12  740.03   30.00
   0  -3  12  664.53   23.30
  -1   3 -12   69.19   12.40
  -1   3 -12   52.89   10.80
   1  -3  12   71.29   12.10
   1  -3  12   81.79   11.60
   1  -3  12   60.99   10.80
  -2   3 -12   59.49   17.30
  -2   3 -12   43.50   12.20
  -2   3 -12   41.80   11.50
  -2   3 -12   27.10   12.60
   2  -3  12   35.20   11.20
   2  -3  12   44.80   11.40
   2  -3  12   47.90   12.80
  -3   3 -12  715.03   36.00
  -3   3 -12  760.62   34.60
  -3   3 -12  683.33   34.20
  -3   3 -12  701.23   35.90
   3  -3  12  732.53   32.80
   3  -3  12  728.93   36.70
   3  -3  12  672.03   33.20
   3  -3  12  721.93   34.30
  -4   3 -12   39.00   15.00
  -4   3 -12   24.20   13.70
  -4   3 -12   75.79   16.50
  -4   3 -12   49.99   16.80
   4  -3  12   67.99   16.80
   4  -3  12   50.59   15.10
   4  -3  12   31.30   16.30
   4  -3  12   40.30   13.80
   5   2 -12  275.57   25.40
   5   2 -12  239.98   23.50
   5   2 -12  259.97   23.90
   5   2 -12  275.37   24.00
  -5  -2  12  238.78   19.20
  -5  -2  12  257.47   21.60
  -5  -2  12  284.47   23.30
  -5  -2  12  250.97   21.00
  -5  -2  12  254.67   27.50
   4   2 -12  110.09   15.40
   4   2 -12   77.39   13.00
   4   2 -12   92.09   15.30
   4   2 -12  112.19   16.30
  -4  -2  12  113.19   13.80
  -4  -2  12  101.39   13.20
  -4  -2  12   91.29   13.50
  -4  -2  12   84.79   15.90
  -4  -2  12  102.09   13.20
   3   2 -12    1.20   11.30
   3   2 -12  -10.10   12.00
   3   2 -12   -1.90    5.80
  -3  -2  12   11.10    9.30
  -3  -2  12   14.90   12.10
  -3  -2  12    6.80    9.40
  -3  -2  12   -2.70    9.40
   2   2 -12   -0.40    8.90
   2   2 -12    3.30   12.60
   2   2 -12   -2.00    6.40
   2   2 -12   31.90   10.90
  -2  -2  12    5.70    8.80
  -2  -2  12    4.50    8.50
  -2  -2  12    5.40    8.90
   1   2 -12  118.99   11.10
   1   2 -12  131.19   17.00
   1   2 -12  119.89   15.60
   1   2 -12  111.49   15.30
  -1  -2  12  147.59   14.80
  -1  -2  12  106.59   11.80
  -1  -2  12  110.89   13.90
   0   2 -12  336.77   19.30
   0   2 -12  303.57   19.40
   0  -2  12  306.37   18.60
   0  -2  12  294.67   18.30
   0  -2  12  293.17   18.40
   0  -2  12  300.97   12.50
  -1   2 -12   95.19   13.00
  -1   2 -12  105.29   12.20
   1  -2  12   98.29   11.60
   1  -2  12   92.09   11.90
   1  -2  12   85.49   10.80
  -2   2 -12   -3.90   11.80
  -2   2 -12  -27.70   10.20
  -2   2 -12    1.00   10.30
   2  -2  12   -0.70    9.50
   2  -2  12   -0.90    9.50
   2  -2  12    3.80   12.50
   2  -2  12   -9.70   10.40
  -3   2 -12  502.15   31.00
  -3   2 -12  552.64   30.20
  -3   2 -12  537.45   30.90
  -3   2 -12  520.05   29.00
   3  -2  12  570.84   30.80
   3  -2  12  525.35   28.00
   3  -2  12  559.74   28.40
   3  -2  12  558.74   31.50
  -4   2 -12   28.90   15.40
  -4   2 -12  -18.90   12.60
  -4   2 -12    7.00   14.30
  -4   2 -12   15.30   17.50
   4  -2  12   -5.90   12.20
   4  -2  12   23.10   15.40
   4  -2  12    8.40   15.10
   4  -2  12   -0.90   11.70
   5   1 -12  101.19   16.90
   5   1 -12   89.49   13.30
   5   1 -12  129.29   16.30
  -5  -1  12  162.38   17.80
  -5  -1  12  105.99   13.60
  -5  -1  12  114.19   17.50
  -5  -1  12  123.19   13.40
  -5  -1  12  152.98   17.70
   4   1 -12  158.28   14.90
   4   1 -12  130.79   16.80
   4   1 -12  133.49   14.70
  -4  -1  12  129.79   16.40
  -4  -1  12  156.38   17.70
  -4  -1  12  128.29   15.60
  -4  -1  12   98.29   16.70
  -4  -1  12  187.68   17.50
   3   1 -12 1192.68   47.60
   3   1 -12 1196.98   43.60
  -3  -1  12 1201.18   43.50
  -3  -1  12 1166.28   42.20
  -3  -1  12 1151.88   43.00
  -3  -1  12 1117.29   50.69
   2   1 -12   83.49   14.90
   2   1 -12  105.69   13.10
   2   1 -12   90.39   11.70
   2   1 -12   97.19   12.70
   2   1 -12   98.59    9.90
  -2  -1  12   88.09    9.80
  -2  -1  12  104.99   13.10
  -2  -1  12  108.19   10.60
   1   1 -12  277.67   23.20
   1   1 -12  297.07   18.20
   1   1 -12  297.27   19.30
   1   1 -12  322.67   18.40
  -1  -1  12  294.67   16.80
  -1  -1  12  283.17   16.80
  -1  -1  12  279.27   16.60
  -1  -1  12  312.77   16.10
   0   1 -12  351.26   29.60
   0   1 -12  365.06   20.50
   0   1 -12  360.96   19.80
   0   1 -12  371.56   20.50
   0  -1  12  347.77   18.30
   0  -1  12  349.67   14.80
   0  -1  12  340.77   18.50
   0  -1  12  360.76   26.90
   0  -1  12  338.47   18.20
  -1   1 -12  502.95   25.70
  -1   1 -12  523.55   24.50
  -1   1 -12  524.25   25.40
   1  -1  12  520.75   23.60
   1  -1  12  473.95   28.50
   1  -1  12  519.15   23.30
   1  -1  12  506.05   23.50
  -2   1 -12   30.80   12.00
  -2   1 -12   11.70   10.00
  -2   1 -12   28.10   11.90
  -2   1 -12   16.40   11.60
   2  -1  12   12.80   13.80
   2  -1  12    5.90   10.00
   2  -1  12   11.80    9.00
   2  -1  12   11.00    9.10
  -3   1 -12   63.09   13.80
  -3   1 -12   19.30   13.50
  -3   1 -12   39.10   14.20
  -3   1 -12   31.70   10.20
   3  -1  12   15.10   10.40
   3  -1  12   46.40   15.90
   3  -1  12   19.90   11.00
   3  -1  12   23.80   13.10
   5   0 -12    2.30    8.50
   5   0 -12   -1.10   11.70
   5   0 -12    0.20    9.70
   5   0 -12   28.20   15.30
  -5   0  12  -14.30   10.00
  -5   0  12  -18.60    8.60
  -5   0  12    2.00    7.40
  -5   0  12   21.00   14.60
  -5   0  12   -7.50    8.80
   4   0 -12    2.60    8.90
   4   0 -12    1.50   14.70
   4   0 -12    0.80   12.70
  -4   0  12   11.40    8.00
  -4   0  12    0.40    8.80
  -4   0  12   -4.30   13.90
  -4   0  12   -4.50    7.30
  -4   0  12    7.50    8.80
   3   0 -12  154.68   14.80
   3   0 -12  205.48   23.80
   3   0 -12  162.08   15.60
  -3   0  12  183.08   15.10
  -3   0  12  172.48   23.20
  -3   0  12  167.58   13.90
  -3   0  12  172.18   13.20
  -3   0  12  195.08   14.90
   2   0 -12   12.90    8.20
   2   0 -12    5.40    8.70
   2   0 -12   12.60   13.60
   2   0 -12   12.60    9.30
   2   0 -12   -4.60    5.40
  -2   0  12    6.90   14.60
  -2   0  12   18.50   12.20
  -2   0  12    9.20    6.50
  -2   0  12   19.00    8.50
  -2   0  12   19.90    6.80
   1   0 -12  179.58   16.80
   1   0 -12  150.98   15.60
  -1   0  12  168.98   14.00
  -1   0  12  190.88   12.70
  -1   0  12  173.18   13.00
  -1   0  12  188.08   13.90
   0   0 -12   54.19    9.70
   0   0 -12   54.29   10.80
   0   0 -12   46.80    9.60
   0   0  12   37.10    7.10
   0   0  12   44.80    7.50
   0   0  12   43.70    7.70
   0   0  12   59.29    8.80
  -1   0 -12  186.98   16.80
  -1   0 -12  194.78   19.30
   1   0  12  186.48   14.50
   1   0  12  200.28   14.70
   1   0  12  213.48   23.30
   1   0  12  190.48   14.90
  -2   0 -12  369.06   22.70
  -2   0 -12  326.87   24.90
  -2   0 -12  343.27   23.40
   2   0  12  328.87   27.00
   2   0  12  348.87   19.70
   2   0  12  331.27   19.60
   2   0  12  341.17   20.30
  -3   0 -12   20.30    9.20
  -3   0 -12   32.30   13.70
  -3   0 -12   41.80   12.40
  -3   0 -12    5.10    6.60
  -3   0 -12   21.80   13.60
   3   0  12   32.30   15.80
   3   0  12   41.00   10.20
   3   0  12   15.60   11.10
   3   0  12   22.70   10.60
   5  -1 -12  634.84   35.60
   5  -1 -12  695.63   28.50
   4  -1 -12  124.09   18.70
   4  -1 -12  118.39   13.80
  -4   1  12  118.29   18.00
  -4   1  12  126.39   12.50
  -4   1  12  153.58   12.90
  -4   1  12  156.48   14.30
  -4   1  12  133.39   12.50
   3  -1 -12   19.30    7.80
   3  -1 -12   23.40    6.80
   3  -1 -12   29.10   15.00
  -3   1  12   10.50   12.90
  -3   1  12   27.00    5.80
  -3   1  12   29.00    6.10
  -3   1  12    9.80   16.50
  -3   1  12   47.00   11.40
  -3   1  12   23.10    6.20
  -3   1  12   13.40    5.70
   2  -1 -12  452.15   19.70
  -2   1  12  419.96   26.90
  -2   1  12  454.55   16.40
  -2   1  12  424.56   17.00
  -2   1  12  422.96   16.20
  -2   1  12  460.95   23.70
  -2   1  12  414.36   29.30
  -2   1  12  459.55   17.30
   1  -1 -12    0.20    4.10
   1  -1 -12   17.40    7.40
   1  -1 -12    1.30    9.00
  -1   1  12   13.10    5.00
  -1   1  12   -2.20   13.90
  -1   1  12   14.10    4.70
  -1   1  12   20.50   12.20
  -1   1  12   11.80    8.20
   0  -1 -12   -8.70    7.40
   0  -1 -12    2.50    6.70
   0  -1 -12  -11.80   10.30
   0   1  12   -5.10    5.60
   0   1  12   -5.20    6.90
   0   1  12   14.00   15.40
   0   1  12   11.60    5.50
   0   1  12    5.00    5.50
  -1  -1 -12  153.18   15.20
  -1  -1 -12  104.69   10.90
   1   1  12  114.19   13.80
   1   1  12  104.99   11.80
   1   1  12  106.89   16.80
   1   1  12  114.39   11.90
  -2  -1 -12   95.69   12.90
  -2  -1 -12   72.39   12.30
  -2  -1 -12   65.89   13.60
   2   1  12   94.99   17.20
   2   1  12   74.19    9.70
   2   1  12   77.19    9.80
   2   1  12   65.79    9.80
   4  -2 -12    4.40    7.20
   4  -2 -12    0.80   16.20
  -4   2  12   14.20    5.00
  -4   2  12    8.80    5.60
  -4   2  12   24.70   13.00
  -4   2  12    5.60   14.10
   3  -2 -12   81.39    9.50
  -3   2  12   72.89   13.20
  -3   2  12  103.09   19.60
  -3   2  12   88.49   16.00
   2  -2 -12  103.89    8.30
  -2   2  12  100.39   13.00
  -2   2  12  107.19   16.40
  -2   2  12  113.99   17.30
   1  -2 -12   36.00    5.70
   1  -2 -12   29.30   11.40
  -1   2  12   41.00    9.60
  -1   2  12   20.00   12.00
  -1   2  12   55.79   14.70
   0  -2 -12  284.67   15.20
   0  -2 -12  294.07   12.70
   0  -2 -12  256.07   21.40
   0   2  12  302.47   18.30
   0   2  12  347.77   23.10
   0   2  12  322.97   27.40
  -1  -2 -12   -6.70    4.70
  -1  -2 -12   13.60    7.50
  -1  -2 -12   -4.90    5.50
  -1  -2 -12   10.50   12.30
  -1  -2 -12   28.20    8.30
   1   2  12   11.00    5.50
   1   2  12    6.10   15.00
   1   2  12   27.80    6.30
  -2  -2 -12   17.00   10.50
  -2  -2 -12   -2.60    9.90
  -2  -2 -12   20.10   14.20
   2   2  12    8.90    7.50
   2   2  12   20.80    7.80
  -3   3  12   23.00   13.00
  -3   3  12   55.39   18.00
  -3   3  12   10.20   12.80
  -2   3  12   80.49   17.10
  -2   3  12  114.49   14.20
  -2   3  12   88.79   15.30
  -1   3  12  140.29   16.40
  -1   3  12  107.19   12.90
  -1   3  12   92.49   17.50
   0   3  12    3.20   12.00
   0   3  12   11.40   10.40
   0   3  12    5.60   14.20
   0   9 -13   -1.80   19.50
   0   9 -13   12.50   13.80
   0   9 -13   -1.10   18.60
   0   9 -13   12.50   18.50
   0  -9  13   45.10   17.70
   0  -9  13   -2.90   19.50
   0  -9  13    7.30    9.40
   0  -9  13    7.40   14.60
  -1   9 -13   -0.80   17.90
  -1   9 -13    8.70   13.50
  -1   9 -13   -6.10   17.80
  -1   9 -13   -3.50   19.90
   1  -9  13   -3.40   16.00
   1  -9  13   10.30    7.30
   1  -9  13   40.20   17.50
   1  -9  13  -26.90   17.90
   2   8 -13   50.99   19.90
   2   8 -13  117.69   23.50
   2   8 -13   89.09   16.50
  -2  -8  13  110.79   20.10
  -2  -8  13   78.19   23.70
  -2  -8  13  108.49   13.70
   1   8 -13  -21.10   16.20
   1   8 -13   -4.50   15.60
   1   8 -13   -2.60   18.30
   1   8 -13   -2.00   14.00
  -1  -8  13   -2.70   15.90
  -1  -8  13   10.10   14.70
  -1  -8  13   -6.90    9.50
  -1  -8  13  -11.10   18.00
   0   8 -13  118.39   16.50
   0   8 -13  147.59   21.10
   0   8 -13  126.19   21.30
   0   8 -13  116.89   18.30
   0  -8  13   82.09   19.00
   0  -8  13  162.18   20.40
   0  -8  13  139.69   14.40
   0  -8  13  111.19   18.60
  -1   8 -13   19.00   16.90
  -1   8 -13   49.00   18.00
  -1   8 -13  -15.40   12.30
  -1   8 -13   27.60   17.10
   1  -8  13   44.70   19.00
   1  -8  13   20.80   16.60
   1  -8  13   17.30    5.60
   1  -8  13    2.80   15.00
  -2   8 -13   45.60   18.50
  -2   8 -13  -11.90   15.90
  -2   8 -13  -19.20   16.20
   2  -8  13   -6.70   15.80
   2  -8  13   -9.20   18.30
   2  -8  13    4.60   16.40
   3   7 -13  143.29   22.80
   3   7 -13  154.88   24.80
  -3  -7  13  142.49   21.00
   2   7 -13   19.20   18.40
   2   7 -13   -4.40   16.70
   2   7 -13   10.40   13.40
   2   7 -13   -6.80   18.00
  -2  -7  13   -2.40   17.40
  -2  -7  13   22.80   15.40
  -2  -7  13   14.70   16.80
   1   7 -13    2.60   15.60
   1   7 -13   -0.70   12.30
   1   7 -13   21.30   15.80
   1   7 -13  -11.10   16.20
  -1  -7  13   -3.50   15.00
  -1  -7  13   22.90   16.40
  -1  -7  13    2.90   14.10
  -1  -7  13   -8.60    8.30
   0   7 -13  195.08   22.10
   0   7 -13  166.88   20.90
   0   7 -13  200.08   21.40
   0   7 -13  223.08   23.30
   0  -7  13  248.98   26.50
   0  -7  13  199.38   25.90
   0  -7  13  243.88   14.10
   0  -7  13  198.98   23.90
  -1   7 -13  -10.20   12.50
  -1   7 -13   28.10   14.70
  -1   7 -13  -18.60   14.60
  -1   7 -13   -9.00   14.10
   1  -7  13   27.40   14.20
   1  -7  13   37.30   14.80
   1  -7  13   -3.90   15.20
  -2   7 -13   14.30   16.10
  -2   7 -13   18.90   16.60
  -2   7 -13   15.80   15.60
   2  -7  13   21.10   17.20
   2  -7  13   30.20   14.90
   2  -7  13   10.50   14.50
  -3   7 -13   20.20   17.80
  -3   7 -13   48.30   26.80
  -3   7 -13   42.10   18.80
   3  -7  13   35.00   15.80
   3  -7  13   17.00   19.40
   3  -7  13   16.10   22.00
   3   6 -13  -12.10   19.30
   3   6 -13   -9.90   17.60
   3   6 -13  -29.80   16.60
   3   6 -13   17.60    5.10
   3   6 -13   23.30   13.70
  -3  -6  13    3.40   17.60
  -3  -6  13    1.90   13.80
  -3  -6  13   63.89   17.00
   2   6 -13   -2.60   14.90
   2   6 -13   21.00    8.30
   2   6 -13  -27.20   17.90
   2   6 -13    7.20   14.10
   2   6 -13    0.80   16.20
  -2  -6  13   -0.60   14.80
  -2  -6  13    8.80   13.60
  -2  -6  13  -18.70   15.30
   1   6 -13   47.30    9.70
   1   6 -13   33.70   15.00
   1   6 -13   49.00   14.30
   1   6 -13   58.59   16.50
   1   6 -13   37.60   15.70
  -1  -6  13   53.69   14.40
  -1  -6  13   47.90   13.00
  -1  -6  13   28.30   14.90
   0   6 -13   19.00    9.70
   0   6 -13  -11.50   13.10
   0   6 -13   -8.30   14.50
   0   6 -13    4.80   12.10
   0   6 -13    2.20   14.70
   0  -6  13   13.90   12.50
   0  -6  13   23.70   13.90
   0  -6  13    2.40    5.40
   0  -6  13  -11.90   11.10
  -1   6 -13  -17.80   12.80
  -1   6 -13   18.50   10.60
  -1   6 -13    9.30   13.80
  -1   6 -13   -1.90   13.10
   1  -6  13   16.10   13.00
   1  -6  13   22.20   15.10
   1  -6  13   -7.30   13.10
  -2   6 -13   86.29   17.70
  -2   6 -13   61.39   16.50
  -2   6 -13   66.29   13.70
  -2   6 -13   55.39   17.20
   2  -6  13   56.09   14.60
   2  -6  13   57.19   16.70
   2  -6  13   57.59   14.40
  -3   6 -13   -0.70   14.80
  -3   6 -13   15.10   14.50
  -3   6 -13    5.90   15.70
  -3   6 -13    0.80   15.30
   3  -6  13   27.70   15.00
   3  -6  13   19.30   17.90
   3  -6  13    1.70   13.70
   3  -6  13   29.80   22.20
   4   5 -13   78.19   23.80
   4   5 -13   93.09   20.10
  -4  -5  13   53.99   18.30
  -4  -5  13   74.19   18.70
  -4  -5  13   42.40   14.80
  -4  -5  13   53.59   17.40
   3   5 -13  325.77   23.80
   3   5 -13  270.07   32.40
   3   5 -13  314.57   29.60
   3   5 -13  336.87   30.80
  -3  -5  13  299.97   25.20
  -3  -5  13  314.17   28.10
  -3  -5  13  264.97   28.00
   2   5 -13  396.06   29.30
   2   5 -13  371.56   28.80
   2   5 -13  354.26   31.40
   2   5 -13  417.46   19.30
   2   5 -13  378.76   25.90
  -2  -5  13  415.96   27.20
  -2  -5  13  403.96   28.70
  -2  -5  13  331.67   28.70
   1   5 -13   31.40    9.20
   1   5 -13   13.40   13.50
   1   5 -13  -10.90   14.10
   1   5 -13   15.30   13.80
   1   5 -13   27.20   13.20
  -1  -5  13   24.40   13.10
  -1  -5  13   36.80   12.80
  -1  -5  13   24.70   12.60
   0   5 -13   42.20   14.40
   0   5 -13   36.60   13.30
   0   5 -13   68.39   13.70
   0   5 -13   26.30   14.30
   0   5 -13   46.80   10.90
   0  -5  13   52.79    5.70
   0  -5  13   65.59   13.10
   0  -5  13   60.59   13.30
   0  -5  13   71.29   14.00
  -1   5 -13  241.88   24.40
  -1   5 -13  239.68   20.30
  -1   5 -13  252.17   22.90
  -1   5 -13  215.08   23.90
   1  -5  13  307.67   24.20
   1  -5  13  255.77   31.70
   1  -5  13  279.77   23.70
   1  -5  13  244.28   21.30
  -2   5 -13    8.50   14.30
  -2   5 -13   -6.80   14.90
  -2   5 -13    7.00   13.50
  -2   5 -13    9.40   12.60
   2  -5  13   17.30   14.60
   2  -5  13    6.10   13.80
   2  -5  13   -1.10   12.30
   2  -5  13    0.90   12.40
  -3   5 -13  -12.40   14.50
  -3   5 -13   16.20   15.00
  -3   5 -13   -7.90   13.80
  -3   5 -13   -7.90   15.70
   3  -5  13   -2.30   13.20
   3  -5  13   -9.90   13.50
   3  -5  13   29.10   17.00
   3  -5  13    1.40   14.30
   4   4 -13   -1.30   16.10
   4   4 -13   25.30   15.00
   4   4 -13   23.10   16.00
   4   4 -13   20.20   12.80
  -4  -4  13   47.50   13.70
  -4  -4  13   34.40   17.70
  -4  -4  13   42.00   13.30
  -4  -4  13   -2.20   10.10
   3   4 -13   60.89   16.50
   3   4 -13   61.99   16.10
   3   4 -13   61.99   18.70
   3   4 -13   58.39   14.20
  -3  -4  13   54.59   13.90
  -3  -4  13   58.19   15.00
  -3  -4  13   70.09   14.50
   2   4 -13   82.69   15.20
   2   4 -13   65.19   14.90
   2   4 -13  109.19   17.00
   2   4 -13   68.29   16.90
   2   4 -13   69.09    9.20
  -2  -4  13   69.29   14.70
  -2  -4  13   95.39   14.60
  -2  -4  13   75.69   13.40
   1   4 -13  172.08   19.90
   1   4 -13  102.39   11.10
   1   4 -13  109.79   15.90
   1   4 -13  108.09   15.80
   1   4 -13  112.29   15.20
  -1  -4  13  105.89   14.60
  -1  -4  13  111.69   13.90
  -1  -4  13  109.39   13.80
   0   4 -13   56.49   10.50
   0   4 -13   58.39   13.20
   0   4 -13   73.69   14.10
   0   4 -13   76.39   15.00
   0   4 -13   76.19   13.10
   0  -4  13   84.79   12.90
   0  -4  13   56.69   12.50
   0  -4  13   56.89   15.80
   0  -4  13   57.29    5.10
   0  -4  13   49.60   12.00
  -1   4 -13   93.29   13.10
  -1   4 -13  111.19   15.90
  -1   4 -13  114.59   15.10
  -1   4 -13   91.39   14.70
   1  -4  13  136.19   17.50
   1  -4  13  111.59   14.00
   1  -4  13   99.49   13.20
   1  -4  13  106.29   14.70
  -2   4 -13   78.39   14.80
  -2   4 -13   95.39   15.80
  -2   4 -13   65.49   16.20
  -2   4 -13   74.49   14.20
   2  -4  13   80.79   16.00
   2  -4  13  103.29   15.20
   2  -4  13   86.79   13.90
   2  -4  13   64.79   15.20
  -3   4 -13  308.17   27.80
  -3   4 -13  299.37   26.30
  -3   4 -13  334.77   27.00
  -3   4 -13  319.97   29.20
   3  -4  13  278.57   23.50
   3  -4  13  314.77   26.60
   3  -4  13  265.57   27.60
   3  -4  13  289.17   25.30
   4   3 -13   12.60   13.90
   4   3 -13  -19.50   12.50
   4   3 -13   33.20   14.50
   4   3 -13    5.30   15.50
  -4  -3  13    1.40   11.70
  -4  -3  13   17.40   12.90
  -4  -3  13    0.60    9.10
  -4  -3  13   -8.30   15.80
   3   3 -13  102.69   15.90
   3   3 -13  136.19   17.30
   3   3 -13  128.69   17.50
   3   3 -13  126.39   18.00
  -3  -3  13  106.89   17.40
  -3  -3  13  135.99   15.40
  -3  -3  13  114.69   15.10
  -3  -3  13  115.59   14.80
   2   3 -13  570.44   29.80
   2   3 -13  517.65   28.80
   2   3 -13  523.05   29.00
   2   3 -13  492.05   30.70
   2   3 -13  556.34   23.10
  -2  -3  13  522.95   26.40
  -2  -3  13  532.35   26.60
  -2  -3  13  536.15   28.10
   1   3 -13  128.69   15.30
   1   3 -13  173.78   18.90
   1   3 -13  171.88   19.30
   1   3 -13  149.29   16.40
  -1  -3  13  141.59   17.90
  -1  -3  13  147.19   17.60
  -1  -3  13  108.49   17.90
  -1  -3  13  143.49   17.00
   0   3 -13   88.79   12.20
   0   3 -13  113.79   13.90
   0   3 -13   96.29   14.20
   0  -3  13   88.49   12.40
   0  -3  13   85.09   12.40
   0  -3  13   98.69   16.20
   0  -3  13   98.59   12.60
  -1   3 -13   11.40   11.20
  -1   3 -13   16.90   11.60
  -1   3 -13   23.90   12.20
  -1   3 -13   37.40   11.00
   1  -3  13   22.50   10.50
   1  -3  13   33.00   10.80
   1  -3  13   35.40   11.60
   1  -3  13   20.60   13.40
  -2   3 -13   42.30   13.20
  -2   3 -13   45.90   14.00
  -2   3 -13   35.20   13.70
  -2   3 -13   41.30   13.70
   2  -3  13   62.09   15.90
   2  -3  13   44.80   12.50
   2  -3  13   47.30   12.00
   2  -3  13   74.09   14.70
  -3   3 -13  -13.30   14.00
  -3   3 -13   13.00   14.60
  -3   3 -13   41.20   14.00
  -3   3 -13    5.00   14.90
   3  -3  13   -6.30   11.60
   3  -3  13   22.70   14.80
   3  -3  13   20.50   15.10
   3  -3  13   20.90   12.40
   4   2 -13   30.30   11.80
   4   2 -13   23.90   11.10
   4   2 -13   38.40   14.90
   4   2 -13    6.60   14.10
  -4  -2  13   34.60   11.50
  -4  -2  13   16.60   15.20
  -4  -2  13   48.60   12.40
  -4  -2  13   36.00   11.00
  -4  -2  13   29.90   11.80
   3   2 -13  251.77   21.30
   3   2 -13  182.98   22.10
   3   2 -13  201.78   14.60
   3   2 -13  292.77   25.50
  -3  -2  13  200.68   18.70
  -3  -2  13  213.78   20.00
  -3  -2  13  272.97   20.70
  -3  -2  13  227.28   25.50
   2   2 -13   -3.20    7.60
   2   2 -13   18.00    8.10
   2   2 -13   -5.00   10.30
   2   2 -13   15.90   13.50
   2   2 -13    8.10   11.90
  -2  -2  13    1.60    9.10
  -2  -2  13   -2.70    8.70
  -2  -2  13   15.00    9.50
   1   2 -13   19.80   10.20
   1   2 -13   23.50    9.20
   1   2 -13   11.50    8.10
   1   2 -13   20.30   13.80
  -1  -2  13   24.70   14.80
  -1  -2  13   14.50    8.90
  -1  -2  13   21.10    9.30
  -1  -2  13   28.70    7.10
  -1  -2  13   20.30    8.70
   0   2 -13  776.82   32.80
   0   2 -13  747.83   32.20
   0  -2  13  779.82   31.10
   0  -2  13  736.03   31.40
   0  -2  13  747.83   25.10
   0  -2  13  773.72   37.00
   0  -2  13  779.22   31.20
  -1   2 -13   59.09   12.20
  -1   2 -13   61.69   12.60
  -1   2 -13   71.29   12.70
   1  -2  13   82.09   11.50
   1  -2  13   65.99   11.10
   1  -2  13   99.99   17.10
   1  -2  13   82.09   11.90
  -2   2 -13   26.10   13.40
  -2   2 -13    2.10    9.00
  -2   2 -13   41.00   12.90
  -2   2 -13   22.80   12.60
   2  -2  13   30.20   11.20
   2  -2  13   28.10   12.50
   2  -2  13   39.60   10.70
   2  -2  13   30.70   15.20
  -3   2 -13   49.00   14.40
  -3   2 -13   79.99   16.30
   3  -2  13   84.99   15.10
   3  -2  13   26.20   12.00
   3  -2  13   33.30   17.90
   3  -2  13   68.49   17.50
   4   1 -13  525.55   27.00
   4   1 -13  524.55   32.70
   4   1 -13  524.75   28.90
  -4  -1  13  556.24   33.30
  -4  -1  13  542.45   25.60
  -4  -1  13  523.45   24.10
  -4  -1  13  575.94   27.60
  -4  -1  13  557.34   27.10
   3   1 -13   91.69   12.40
   3   1 -13  100.09   18.60
   3   1 -13  124.49   13.90
  -3  -1  13   89.09   10.50
  -3  -1  13  100.09   11.90
  -3  -1  13   95.79   11.80
  -3  -1  13  111.89   17.40
   2   1 -13   78.59   15.50
   2   1 -13   79.79   10.30
   2   1 -13   86.99   11.50
  -2  -1  13   84.29   10.20
  -2  -1  13   79.59   18.00
  -2  -1  13  111.49   14.20
  -2  -1  13   78.89   10.00
   1   1 -13  313.57   19.50
   1   1 -13  299.37   19.30
  -1  -1  13  310.77   27.30
  -1  -1  13  306.67   17.80
  -1  -1  13  333.87   18.20
  -1  -1  13  313.07   17.00
  -1  -1  13  346.17   18.50
   0   1 -13   -5.60    8.90
   0   1 -13   19.70    6.60
   0   1 -13   -3.90    9.70
   0  -1  13    9.10    7.70
   0  -1  13    5.50    8.20
   0  -1  13   -1.60   13.50
   0  -1  13    2.40    4.90
   0  -1  13   11.10    7.80
  -1   1 -13  130.39   13.80
  -1   1 -13  198.78   20.10
  -1   1 -13  165.58   18.90
   1  -1  13  153.78   18.90
   1  -1  13  158.78   16.20
   1  -1  13  162.28   15.90
   1  -1  13  135.69   15.40
  -2   1 -13   34.20   12.90
  -2   1 -13   62.89   14.70
  -2   1 -13   36.30   12.50
   2  -1  13   47.10   10.90
   2  -1  13   79.09   17.40
   2  -1  13   30.60   10.70
   2  -1  13   54.99   11.40
   4   0 -13    6.10    8.80
   4   0 -13    9.80   14.40
   4   0 -13    3.50   10.50
  -4   0  13   32.80    9.50
  -4   0  13   29.00    9.50
  -4   0  13   20.80   20.60
  -4   0  13   16.30    7.70
   3   0 -13  138.39   15.10
   3   0 -13  126.79   18.90
  -3   0  13  135.29   13.20
  -3   0  13   97.59   16.80
  -3   0  13  149.59   13.40
  -3   0  13  141.09   13.90
  -3   0  13  143.09   14.30
   2   0 -13  841.22   32.50
   2   0 -13  860.01   34.30
  -2   0  13  865.81   38.80
  -2   0  13  889.91   35.00
  -2   0  13  869.61   42.10
  -2   0  13  885.91   31.70
  -2   0  13  884.81   31.30
   1   0 -13   -7.40    7.10
   1   0 -13   10.20    6.10
   1   0 -13   -9.10    9.00
   1   0 -13    0.70    7.30
  -1   0  13    0.10    7.20
  -1   0  13   13.80    6.80
  -1   0  13   -3.30   14.70
  -1   0  13    6.20    7.80
  -1   0  13   -3.60    6.40
   0   0 -13    6.30   10.10
   0   0 -13   15.10    8.70
   0   0 -13   13.10    6.20
   0   0  13   14.00   14.90
   0   0  13   20.70    7.10
   0   0  13   -3.70    8.20
   0   0  13   11.80    7.40
   0   0  13   14.20    6.50
  -1   0 -13  989.20   37.10
  -1   0 -13  946.71   39.20
  -1   0 -13  917.21   36.20
   1   0  13  894.01   34.10
   1   0  13  946.21   34.70
   1   0  13  919.11   42.90
   1   0  13  920.71   34.50
  -2   0 -13    3.80   13.30
  -2   0 -13    7.40   11.10
  -2   0 -13   13.00   12.00
  -2   0 -13   -1.00   10.90
   2   0  13   10.60   14.20
   2   0  13   14.00    9.80
   2   0  13   28.50   13.50
   2   0  13   13.20    8.90
   3  -1 -13  169.38   12.90
   3  -1 -13  182.28   21.30
  -3   1  13  196.38   10.10
  -3   1  13  188.58   11.90
  -3   1  13  173.88    9.40
  -3   1  13  202.38   12.10
  -3   1  13  188.08   21.00
  -3   1  13  170.38   22.30
  -3   1  13  218.28   23.80
   2  -1 -13   62.89    7.50
   2  -1 -13   74.39    9.20
  -2   1  13  102.59   16.80
  -2   1  13   94.39    8.90
  -2   1  13   74.89    8.20
  -2   1  13   70.49   18.10
  -2   1  13   89.39   12.40
   1  -1 -13  377.86   16.90
   1  -1 -13  374.06   23.50
   1  -1 -13  378.96   19.00
  -1   1  13  420.06   26.70
  -1   1  13  346.07   26.70
  -1   1  13  398.36   15.80
  -1   1  13  399.86   20.70
   0  -1 -13   -5.70    7.20
   0  -1 -13   11.20    7.10
   0  -1 -13   -6.10   11.10
   0   1  13   19.30    5.70
   0   1  13    1.30    7.70
   0   1  13   10.20    6.00
   0   1  13   15.00    5.50
   0   1  13   -3.00   14.10
  -1  -1 -13  -15.40   10.50
  -1  -1 -13  -13.80   13.00
  -1  -1 -13   -4.80    8.50
   1   1  13   17.80   22.60
   1   1  13   -5.60    7.40
   1   1  13   -8.30    7.00
   1   1  13   -3.30    6.80
  -2   2  13  205.78   19.60
  -2   2  13  173.38   21.50
  -2   2  13  152.48   17.70
  -1   2  13  262.37   28.80
   1   7 -14   59.09   11.90
   1   7 -14  100.89   20.20
   1   7 -14   64.89   15.70
   1   7 -14   42.00   15.80
  -1  -7  14   41.30   22.20
  -1  -7  14   52.99   16.50
  -1  -7  14   46.00   17.50
  -1  -7  14   65.59    9.80
   0   7 -14    2.80   15.40
   0   7 -14   12.50   11.60
   0   7 -14  -15.00   15.40
   0   7 -14    6.60   14.00
   0   7 -14   -3.20   17.90
   0  -7  14  -45.00   15.60
   0  -7  14   -8.10   13.50
   0  -7  14   -5.40    5.60
   0  -7  14    3.60   13.70
  -1   7 -14   88.09   18.50
  -1   7 -14  123.69   15.70
  -1   7 -14  133.89   20.50
   1  -7  14   59.09   18.10
   1  -7  14   71.39   23.30
   1  -7  14  120.49   17.70
   2   6 -14  330.27   19.60
   2   6 -14  311.17   26.50
   2   6 -14  313.17   31.60
   2   6 -14  239.08   35.50
   2   6 -14  301.27   29.00
  -2  -6  14  283.67   25.80
  -2  -6  14  305.47   30.10
  -2  -6  14  374.86   29.30
   1   6 -14  152.18   18.80
   1   6 -14   97.39   12.70
   1   6 -14   95.69   17.30
   1   6 -14   98.89   17.70
  -1  -6  14  111.99   17.70
  -1  -6  14  108.59   13.80
  -1  -6  14  145.19   18.00
  -1  -6  14  128.59   17.80
   0   6 -14   21.30   11.20
   0   6 -14   25.90   15.70
   0   6 -14   12.10   14.40
   0   6 -14   27.40   15.60
   0   6 -14   43.20   15.50
   0  -6  14   28.50    4.90
   0  -6  14   13.80   15.00
   0  -6  14   45.60   15.00
   0  -6  14   39.80   14.80
  -1   6 -14   47.60   13.30
  -1   6 -14   68.79   16.10
  -1   6 -14   51.89   15.70
  -1   6 -14   50.19   16.20
   1  -6  14   85.59   16.50
   1  -6  14   80.39   16.00
   1  -6  14   32.50   16.00
  -2   6 -14   76.19   17.20
  -2   6 -14  106.99   16.30
  -2   6 -14   94.09   18.70
   2  -6  14   46.70   16.60
   2  -6  14  127.59   19.80
   2  -6  14  100.39   17.00
   2   5 -14  -27.20   15.30
   2   5 -14   21.90    8.90
   2   5 -14   37.10   16.70
   2   5 -14    6.20   13.10
   2   5 -14  -21.60   14.00
  -2  -5  14  -24.40   12.00
  -2  -5  14   -9.80   14.60
  -2  -5  14   10.90   13.60
   1   5 -14    9.70   14.10
   1   5 -14    4.50   12.70
   1   5 -14    4.40   15.70
   1   5 -14   21.60   14.50
   1   5 -14   -1.70    9.30
  -1  -5  14    2.80   12.50
  -1  -5  14    5.10   12.30
  -1  -5  14  -23.60   12.90
   0   5 -14  199.88   19.50
   0   5 -14  246.38   23.70
   0   5 -14  207.38   24.00
   0   5 -14  168.98   19.70
   0   5 -14  172.08   19.70
   0  -5  14  173.88   22.10
   0  -5  14  198.48   22.30
   0  -5  14  163.98   17.30
  -1   5 -14   34.80   14.00
  -1   5 -14   27.10   12.00
  -1   5 -14   15.00   13.70
  -1   5 -14   25.10   14.80
   1  -5  14   20.20   14.10
   1  -5  14   10.10   12.50
   1  -5  14   27.40   13.50
   1  -5  14   13.40   14.90
  -2   5 -14   15.80   13.90
  -2   5 -14   23.20   15.40
  -2   5 -14   34.10   15.70
  -2   5 -14   51.09   16.30
   2  -5  14   52.29   14.70
   2  -5  14   32.20   16.30
   2  -5  14   20.20   15.40
   2  -5  14   34.00   13.10
   3   4 -14   -1.70   15.70
   3   4 -14   13.10   16.90
   3   4 -14   42.70   18.70
  -3  -4  14   -4.00   12.70
  -3  -4  14   18.20   13.00
   2   4 -14   -2.80    8.20
   2   4 -14    4.50   14.00
   2   4 -14  -12.30   11.40
   2   4 -14   -1.10   15.10
   2   4 -14  -13.30   15.30
  -2  -4  14   45.30   12.60
  -2  -4  14  -11.00   12.80
  -2  -4  14   33.20   13.10
   1   4 -14   87.09   16.40
   1   4 -14  100.39   12.10
   1   4 -14   78.69   15.10
   1   4 -14  103.79   18.60
   1   4 -14   93.79   15.10
  -1  -4  14   85.79   14.10
  -1  -4  14   89.19   14.00
  -1  -4  14   84.89   14.60
   0   4 -14   10.10   12.40
   0   4 -14    7.50   10.50
   0   4 -14   14.20   13.00
   0   4 -14  -12.20   12.70
   0  -4  14   -2.20   12.10
   0  -4  14    9.10   16.20
   0  -4  14    9.90   11.90
   0  -4  14   -0.80   11.70
  -1   4 -14   24.20   12.30
  -1   4 -14    8.50   13.50
  -1   4 -14   24.70   12.80
  -1   4 -14   -4.70   13.50
   1  -4  14   -4.50   12.80
   1  -4  14   -5.60   15.40
   1  -4  14   19.80   11.70
   1  -4  14   25.50   12.50
  -2   4 -14   -2.20   14.70
  -2   4 -14    7.60   14.00
  -2   4 -14    9.60   14.20
   2  -4  14    7.50   18.40
   2  -4  14   28.40   14.70
   2  -4  14   -6.00   15.70
   2  -4  14   33.00   13.10
   3   3 -14   55.09   16.40
   3   3 -14   40.60   17.80
  -3  -3  14   87.39   17.00
  -3  -3  14   67.39   19.00
  -3  -3  14   91.39   13.70
  -3  -3  14   62.59   12.70
   2   3 -14   74.29   10.00
   2   3 -14   81.49   17.20
   2   3 -14   63.79   15.50
   2   3 -14   76.39   13.50
  -2  -3  14   57.19   12.10
  -2  -3  14   79.99   13.50
  -2  -3  14   74.19   12.70
   1   3 -14   17.80    9.50
   1   3 -14   16.60   14.40
   1   3 -14    2.00   12.90
   1   3 -14    5.80    8.60
   1   3 -14    7.40   11.10
  -1  -3  14  -11.00   17.40
  -1  -3  14   18.60    6.90
  -1  -3  14   18.70   10.10
  -1  -3  14    9.10   11.00
  -1  -3  14   16.60   10.80
   0   3 -14   24.70    9.10
   0   3 -14    1.20   12.40
   0   3 -14   -1.00   11.20
   0   3 -14   -1.50   10.50
   0  -3  14   18.40   10.40
   0  -3  14   10.60   10.60
   0  -3  14   -7.70   15.60
   0  -3  14   -8.00   10.80
  -1   3 -14  199.28   22.80
  -1   3 -14  224.78   22.10
  -1   3 -14  195.28   21.90
   1  -3  14  176.08   21.20
   1  -3  14  224.18   20.20
   1  -3  14  202.18   20.20
   1  -3  14  194.78   21.10
  -2   3 -14   10.10   11.10
  -2   3 -14   12.50   14.60
  -2   3 -14   -6.50   12.70
   2  -3  14   19.20   11.80
   3   2 -14  -20.60   15.70
   3   2 -14   15.20   16.80
   3   2 -14  -15.50   13.00
  -3  -2  14    0.80   11.00
  -3  -2  14   25.90   11.00
   2   2 -14    1.60   14.20
   2   2 -14   19.30   10.90
   2   2 -14   12.10    8.60
   2   2 -14   25.60   13.30
   2   2 -14    8.80    9.10
  -2  -2  14   15.30    9.90
  -2  -2  14   31.60   10.60
  -2  -2  14   12.60    8.80
   1   2 -14   30.00   10.10
   1   2 -14   29.10   12.00
   1   2 -14   13.00   10.30
  -1  -2  14   18.50    9.10
  -1  -2  14   24.70   10.10
  -1  -2  14   44.40   17.50
  -1  -2  14   43.70   10.80
  -1  -2  14   37.20    8.00
   0   2 -14   -1.10   10.50
   0   2 -14    7.60   10.90
   0   2 -14    9.60   11.50
   0   2 -14   -6.40    7.90
   0  -2  14   13.40    9.60
   0  -2  14    4.30    9.00
   0  -2  14    5.20   16.40
   0  -2  14    2.20    9.80
  -1   2 -14   41.90   13.10
  -1   2 -14   32.70   12.30
  -1   2 -14   61.69   13.40
   1  -2  14   60.39   11.30
   1  -2  14   64.39   17.20
   1  -2  14   35.50   10.40
   1  -2  14   61.59   11.80
   2   1 -14   48.20   15.70
   2   1 -14   85.89   13.20
   2   1 -14   68.69   11.00
   2   1 -14   61.59   10.70
  -2  -1  14   54.69   18.20
  -2  -1  14  103.99   11.90
  -2  -1  14   65.89    9.70
  -2  -1  14   41.10    7.90
  -2  -1  14   87.69   14.90
  -2  -1  14   63.79   10.10
   1   1 -14  123.29   13.40
   1   1 -14  131.99   14.20
   1   1 -14  166.58   16.70
  -1  -1  14  152.48   15.20
  -1  -1  14  145.39   12.50
  -1  -1  14  153.78   20.10
  -1  -1  14  182.68   14.10
  -1  -1  14  144.49   14.90
   0   1 -14    6.30    9.60
   0   1 -14   18.10   11.50
   0   1 -14    6.80   10.60
   0   1 -14    2.90    7.30
   0  -1  14   10.80    9.00
   0  -1  14  -10.90    6.90
   0  -1  14   15.80   15.90
   0  -1  14   12.90    8.50
   1   0 -14   64.49    9.70
   1   0 -14   88.59   13.00
   1   0 -14   91.19   12.00
  -1   0  14   70.29    8.60
  -1   0  14   90.09    9.70
  -1   0  14  110.59   11.40
_computing_structure_solution     'SHELXT 2014/4 (Sheldrick, 2014)'
;
_shelx_hkl_checksum              8236
_shelx_res_file
;
TITL UMD995_a.res in P-1
REM Old TITL UMD995 in P-1
REM SHELXT solution in P-1
REM R1 0.111, Rweak 0.005, Alpha 0.061, Orientation as input
REM Formula found by SHELXT: C16 N2 O4 Br4
CELL 0.71073 7.1044 10.5317 12.2598 108.078 93.481 101.484
ZERR 4 0.001 0.0015 0.0017 0.004 0.005 0.004
LATT 1
SFAC C H Br N O
UNIT 32 12 8 4 8
EQIV $1 2-X,1-Y,1-Z
EQIV $2 1+X,-1+Y,-1+Z
EQIV $3 -X,-Y,1-Z
DFIX 0.87 N1 H1 N1A H1A
L.S. 10
PLAN  5
SIZE 0.05 0.07 0.18
TEMP -73.15
HTAB N1A O1A_$1
HTAB N1A O1
HTAB C4A Br1_$2
HTAB C7A O1
HTAB N1 O1A_$1
HTAB N1 O2A_$1
HTAB C4 Br2A_$3
BOND $H
LIST 6
CONF
HTAB 2
fmap 2
acta 50.5
REM <olex2.extras>
REM <HklSrc "%.\\UMD995_a.hkl">
REM </olex2.extras>
WGHT    0.020000    0.950900
FVAR       0.49027
BR1A  3    0.472695   -0.307523    0.147140    11.00000    0.02325    0.01670 =
         0.02779    0.00042    0.00439    0.00039
BR2A  3    0.220058   -0.129734    0.335009    11.00000    0.01509    0.02296 =
         0.02782    0.00550    0.00595   -0.00174
O1A   5    1.137780    0.412694    0.422018    11.00000    0.02098    0.01982 =
         0.03994    0.00225    0.00895   -0.00480
O2A   5    1.163391    0.160146    0.248502    11.00000    0.02097    0.02544 =
         0.03528    0.00605    0.01265    0.00384
N1A   4    0.834716    0.284349    0.428162    11.00000    0.01795    0.01430 =
         0.02326   -0.00074    0.00792    0.00142
H1A   2    0.790459    0.344141    0.477853    11.00000   -1.20000
C1A   1    1.011240    0.307939    0.391895    11.00000    0.01665    0.01963 =
         0.02474    0.00648    0.00316    0.00266
C2A   1    1.023726    0.171490    0.299352    11.00000    0.01645    0.01805 =
         0.02354    0.00743    0.00500    0.00413
C3A   1    0.839104    0.075816    0.292890    11.00000    0.01577    0.01708 =
         0.02149    0.00602    0.00481    0.00400
C4A   1    0.764369   -0.059973    0.225684    11.00000    0.01859    0.01950 =
         0.02027    0.00409    0.00633    0.00492
AFIX  43
H4A   2    0.838030   -0.109188    0.172880    11.00000   -1.20000
AFIX   0
C5A   1    0.579143   -0.122003    0.237643    11.00000    0.02141    0.01606 =
         0.02034    0.00402    0.00169    0.00213
C6A   1    0.471718   -0.047957    0.315485    11.00000    0.01287    0.02159 =
         0.02095    0.00796    0.00273    0.00097
C7A   1    0.546373    0.088605    0.382904    11.00000    0.01761    0.02008 =
         0.01994    0.00421    0.00569    0.00475
AFIX  43
H7A   2    0.472810    0.138411    0.435362    11.00000   -1.20000
AFIX   0
C8A   1    0.730573    0.148540    0.370621    11.00000    0.01654    0.01606 =
         0.01776    0.00426    0.00102    0.00104
BR1   3   -0.163226    0.652137    0.968872    11.00000    0.02592    0.02957 =
         0.03630   -0.00192    0.01712    0.00441
BR2   3    0.215588    0.915573    1.016701    11.00000    0.02990    0.01911 =
         0.02697   -0.00201    0.00552    0.00648
O1    5    0.531363    0.365264    0.553128    11.00000    0.02634    0.02393 =
         0.04089   -0.00067    0.01881    0.00328
O2    5    0.154635    0.259430    0.613251    11.00000    0.02475    0.01946 =
         0.03189   -0.00007    0.00860   -0.00054
N1    4    0.503729    0.566559    0.691648    11.00000    0.01727    0.01798 =
         0.02723    0.00148    0.01012    0.00003
H1    2    0.609327    0.621342    0.689519    11.00000   -1.20000
C1    1    0.446965    0.432399    0.624237    11.00000    0.01864    0.01999 =
         0.02486    0.00416    0.00808    0.00293
C2    1    0.245951    0.376635    0.656439    11.00000    0.01774    0.02129 =
         0.02116    0.00554    0.00439    0.00318
C3    1    0.205534    0.494226    0.745435    11.00000    0.01953    0.01694 =
         0.02095    0.00409    0.00494    0.00314
C4    1    0.048437    0.507877    0.805374    11.00000    0.01822    0.02115 =
         0.02349    0.00586    0.00441    0.00088
AFIX  43
H4    2   -0.059303    0.432620    0.791680    11.00000   -1.20000
AFIX   0
C5    1    0.052220    0.634413    0.886091    11.00000    0.01822    0.02595 =
         0.02258    0.00455    0.00723    0.00784
C6    1    0.211493    0.744276    0.905485    11.00000    0.02429    0.01813 =
         0.01726    0.00239    0.00089    0.00705
C7    1    0.370484    0.731457    0.844491    11.00000    0.01976    0.01760 =
         0.02326    0.00607    0.00264    0.00086
AFIX  43
H7    2    0.478221    0.806573    0.857619    11.00000   -1.20000
AFIX   0
C8    1    0.363850    0.604848    0.764410    11.00000    0.01596    0.02036 =
         0.01849    0.00611    0.00458    0.00336
HKLF 4
REM  UMD995_a.res in P-1
REM R1 =  0.0197 for    2728 Fo > 4sig(Fo)  and  0.0266 for all    3116 data
REM    241 parameters refined using      2 restraints
END
WGHT      0.0200      0.9509
REM Instructions for potential hydrogen bonds
HTAB N1A O1A_$1
HTAB N1A O1
HTAB C4A Br1_$2
HTAB C7A O1
HTAB N1 O1A_$1
HTAB N1 O2A_$1
HTAB C4 Br2A_$3
REM Highest difference peak  0.384,  deepest hole -0.593,  1-sigma level  0.078
Q1    1   0.3423  0.4051  0.6443  11.00000  0.05    0.38
Q2    1   0.4095  0.2278  0.4924  11.00000  0.05    0.38
Q3    1   1.0237  0.2415  0.3417  11.00000  0.05    0.37
Q4    1   1.2325  0.5219  0.4440  11.00000  0.05    0.30
Q5    1   0.9112  0.3127  0.4068  11.00000  0.05    0.30
;
_shelx_res_checksum              95377
loop_
_space_group_symop_operation_xyz
'x, y, z'
'-x, -y, -z'
loop_
_atom_site_type_symbol
_atom_site_label
_atom_site_fract_x
_atom_site_fract_y
_atom_site_fract_z
_atom_site_U_iso_or_equiv
_atom_site_adp_type
_atom_site_calc_flag
_atom_site_occupancy
Br Br1A 0.47270(4) -0.30752(3) 0.14714(2) 0.02479(8) Uani d 1
Br Br2A 0.22006(4) -0.12973(3) 0.33501(2) 0.02340(8) Uani d 1
O O1A 1.1378(3) 0.4127(2) 0.42202(19) 0.0299(5) Uani d 1
O O2A 1.1634(3) 0.1601(2) 0.24850(18) 0.0280(5) Uani d 1
N N1A 0.8347(3) 0.2843(2) 0.4282(2) 0.0203(5) Uani d 1
H H1A 0.790(4) 0.344(3) 0.478(2) 0.024 Uiso d 1
C C1A 1.0112(4) 0.3079(3) 0.3919(2) 0.0207(6) Uani d 1
C C2A 1.0237(4) 0.1715(3) 0.2994(2) 0.0191(6) Uani d 1
C C3A 0.8391(4) 0.0758(3) 0.2929(2) 0.0181(6) Uani d 1
C C4A 0.7644(4) -0.0600(3) 0.2257(2) 0.0198(6) Uani d 1
H H4A 0.8380 -0.1092 0.1729 0.024 Uiso calc 1
C C5A 0.5791(4) -0.1220(3) 0.2376(2) 0.0201(6) Uani d 1
C C6A 0.4717(4) -0.0480(3) 0.3155(2) 0.0187(6) Uani d 1
C C7A 0.5464(4) 0.0886(3) 0.3829(2) 0.0196(6) Uani d 1
H H7A 0.4728 0.1384 0.4354 0.023 Uiso calc 1
C C8A 0.7306(4) 0.1485(3) 0.3706(2) 0.0176(6) Uani d 1
Br Br1 -0.16323(4) 0.65214(3) 0.96887(3) 0.03334(9) Uani d 1
Br Br2 0.21559(4) 0.91557(3) 1.01670(3) 0.02740(8) Uani d 1
O O1 0.5314(3) 0.3653(2) 0.55313(19) 0.0328(5) Uani d 1
O O2 0.1546(3) 0.2594(2) 0.61325(18) 0.0280(5) Uani d 1
N N1 0.5037(3) 0.5666(2) 0.6916(2) 0.0225(5) Uani d 1
H H1 0.609(3) 0.621(3) 0.690(3) 0.027 Uiso d 1
C C1 0.4470(4) 0.4324(3) 0.6242(2) 0.0219(6) Uani d 1
C C2 0.2460(4) 0.3766(3) 0.6564(2) 0.0205(6) Uani d 1
C C3 0.2055(4) 0.4942(3) 0.7454(2) 0.0197(6) Uani d 1
C C4 0.0484(4) 0.5079(3) 0.8054(2) 0.0218(6) Uani d 1
H H4 -0.0593 0.4326 0.7917 0.026 Uiso calc 1
C C5 0.0522(4) 0.6344(3) 0.8861(2) 0.0225(6) Uani d 1
C C6 0.2115(4) 0.7443(3) 0.9055(2) 0.0205(6) Uani d 1
C C7 0.3705(4) 0.7315(3) 0.8445(2) 0.0209(6) Uani d 1
H H7 0.4782 0.8066 0.8576 0.025 Uiso calc 1
C C8 0.3639(4) 0.6048(3) 0.7644(2) 0.0184(6) Uani d 1
loop_
_atom_site_aniso_label
_atom_site_aniso_U_11
_atom_site_aniso_U_22
_atom_site_aniso_U_33
_atom_site_aniso_U_12
_atom_site_aniso_U_13
_atom_site_aniso_U_23
Br1A 0.02325(15) 0.01670(14) 0.02779(16) 0.00039(11) 0.00439(11) 0.00042(12)
Br2A 0.01509(14) 0.02296(15) 0.02782(16) -0.00174(11) 0.00595(11) 0.00550(12)
O1A 0.0210(10) 0.0198(11) 0.0399(13) -0.0048(9) 0.0090(9) 0.0023(10)
O2A 0.0210(10) 0.0254(11) 0.0353(12) 0.0038(8) 0.0126(9) 0.0060(9)
N1A 0.0179(11) 0.0143(11) 0.0233(12) 0.0014(9) 0.0079(9) -0.0007(10)
C1A 0.0167(13) 0.0196(14) 0.0247(15) 0.0027(11) 0.0032(11) 0.0065(12)
C2A 0.0164(13) 0.0180(14) 0.0235(14) 0.0041(11) 0.0050(11) 0.0074(12)
C3A 0.0158(13) 0.0171(13) 0.0215(14) 0.0040(10) 0.0048(11) 0.0060(11)
C4A 0.0186(13) 0.0195(14) 0.0203(14) 0.0049(11) 0.0063(11) 0.0041(12)
C5A 0.0214(14) 0.0161(13) 0.0203(14) 0.0021(11) 0.0017(11) 0.0040(11)
C6A 0.0129(13) 0.0216(14) 0.0209(14) 0.0010(10) 0.0027(10) 0.0080(12)
C7A 0.0176(13) 0.0201(14) 0.0199(14) 0.0048(11) 0.0057(11) 0.0042(12)
C8A 0.0165(13) 0.0161(13) 0.0178(13) 0.0010(10) 0.0010(10) 0.0043(11)
Br1 0.02592(16) 0.02957(17) 0.03630(18) 0.00441(12) 0.01712(13) -0.00192(14)
Br2 0.02990(16) 0.01911(15) 0.02697(16) 0.00648(12) 0.00552(12) -0.00201(12)
O1 0.0263(11) 0.0239(11) 0.0409(13) 0.0033(9) 0.0188(10) -0.0007(10)
O2 0.0247(11) 0.0195(11) 0.0319(12) -0.0005(8) 0.0086(9) -0.0001(9)
N1 0.0173(12) 0.0180(12) 0.0272(13) 0.0000(9) 0.0101(10) 0.0015(10)
C1 0.0186(14) 0.0200(14) 0.0249(15) 0.0029(11) 0.0081(12) 0.0042(12)
C2 0.0177(13) 0.0213(15) 0.0212(14) 0.0032(11) 0.0044(11) 0.0055(12)
C3 0.0195(14) 0.0169(14) 0.0210(14) 0.0031(11) 0.0049(11) 0.0041(12)
C4 0.0182(14) 0.0212(14) 0.0235(15) 0.0009(11) 0.0044(11) 0.0059(12)
C5 0.0182(14) 0.0260(15) 0.0226(14) 0.0078(11) 0.0072(11) 0.0046(12)
C6 0.0243(14) 0.0181(13) 0.0173(13) 0.0070(11) 0.0009(11) 0.0024(11)
C7 0.0198(14) 0.0176(14) 0.0233(14) 0.0009(11) 0.0026(11) 0.0061(12)
C8 0.0160(13) 0.0204(14) 0.0185(14) 0.0034(11) 0.0046(11) 0.0061(12)
loop_
_atom_type_symbol
_atom_type_description
_atom_type_scat_dispersion_real
_atom_type_scat_dispersion_imag
_atom_type_scat_source
C C 0.0033 0.0016 'International Tables Vol C Tables 4.2.6.8 and 6.1.1.4'
H H 0.0000 0.0000 'International Tables Vol C Tables 4.2.6.8 and 6.1.1.4'
Br Br -0.2901 2.4595 'International Tables Vol C Tables 4.2.6.8 and 6.1.1.4'
N N 0.0061 0.0033 'International Tables Vol C Tables 4.2.6.8 and 6.1.1.4'
O O 0.0106 0.0060 'International Tables Vol C Tables 4.2.6.8 and 6.1.1.4'
loop_
_geom_angle_atom_site_label_1
_geom_angle_atom_site_label_2
_geom_angle_atom_site_label_3
_geom_angle
C1A N1A H1A 125(2)
C1A N1A C8A 111.0(2)
C8A N1A H1A 124(2)
O1A C1A N1A 129.0(3)
O1A C1A C2A 124.7(2)
N1A C1A C2A 106.3(2)
O2A C2A C1A 122.3(2)
O2A C2A C3A 132.8(3)
C3A C2A C1A 104.9(2)
C4A C3A C2A 132.1(2)
C4A C3A C8A 121.0(2)
C8A C3A C2A 106.9(2)
C3A C4A H4A 120.9
C3A C4A C5A 118.1(2)
C5A C4A H4A 120.9
C4A C5A Br1A 119.2(2)
C4A C5A C6A 120.3(2)
C6A C5A Br1A 120.5(2)
C5A C6A Br2A 121.4(2)
C7A C6A Br2A 116.9(2)
C7A C6A C5A 121.6(2)
C6A C7A H7A 121.3
C8A C7A C6A 117.4(2)
C8A C7A H7A 121.3
C3A C8A N1A 110.9(2)
C7A C8A N1A 127.6(2)
C7A C8A C3A 121.5(2)
C1 N1 H1 125(2)
C1 N1 C8 111.0(2)
C8 N1 H1 124(2)
O1 C1 N1 128.9(3)
O1 C1 C2 124.9(2)
N1 C1 C2 106.2(2)
O2 C2 C1 123.6(2)
O2 C2 C3 131.6(3)
C3 C2 C1 104.8(2)
C4 C3 C2 131.5(3)
C4 C3 C8 121.2(2)
C8 C3 C2 107.3(2)
C3 C4 H4 120.9
C3 C4 C5 118.1(3)
C5 C4 H4 120.9
C4 C5 Br1 117.9(2)
C4 C5 C6 120.4(3)
C6 C5 Br1 121.7(2)
C5 C6 Br2 119.9(2)
C5 C6 C7 121.8(2)
C7 C6 Br2 118.3(2)
C6 C7 H7 121.5
C8 C7 C6 117.0(2)
C8 C7 H7 121.5
C3 C8 N1 110.7(2)
C7 C8 N1 127.8(2)
C7 C8 C3 121.5(2)
loop_
_geom_bond_atom_site_label_1
_geom_bond_atom_site_label_2
_geom_bond_distance
Br1A C5A 1.893(3)
Br2A C6A 1.887(3)
O1A C1A 1.214(3)
O2A C2A 1.210(3)
N1A H1A 0.855(17)
N1A C1A 1.358(3)
N1A C8A 1.407(3)
C1A C2A 1.553(4)
C2A C3A 1.467(4)
C3A C4A 1.385(4)
C3A C8A 1.400(4)
C4A H4A 0.9500
C4A C5A 1.386(4)
C5A C6A 1.402(4)
C6A C7A 1.392(4)
C7A H7A 0.9500
C7A C8A 1.374(4)
Br1 C5 1.895(3)
Br2 C6 1.887(3)
O1 C1 1.212(3)
O2 C2 1.208(3)
N1 H1 0.858(18)
N1 C1 1.360(4)
N1 C8 1.411(3)
C1 C2 1.555(4)
C2 C3 1.465(4)
C3 C4 1.380(4)
C3 C8 1.398(4)
C4 H4 0.9500
C4 C5 1.386(4)
C5 C6 1.397(4)
C6 C7 1.398(4)
C7 H7 0.9500
C7 C8 1.379(4)
loop_
_geom_hbond_atom_site_label_D
_geom_hbond_atom_site_label_H
_geom_hbond_atom_site_label_A
_geom_hbond_site_symmetry_A
_geom_hbond_distance_DH
_geom_hbond_distance_HA
_geom_hbond_distance_DA
_geom_hbond_angle_DHA
N1 H1 O1A 2_766 0.86(2) 2.34(3) 2.979(3) 132(3)
N1 H1 O2A 2_766 0.86(2) 2.40(2) 3.191(3) 153(3)
N1A H1A O1A 2_766 0.86(2) 2.40(2) 3.109(3) 140(3)
N1A H1A O1 . 0.86(2) 2.13(2) 2.835(3) 140(3)
C7A H7A O1 . 0.95 2.31 3.039(3) 133
C4 H4 Br2A 2_556 0.95 3.03 3.845(3) 145
C4A H4A Br1 1_644 0.95 2.94 3.777(3) 147
loop_
_geom_torsion_atom_site_label_1
_geom_torsion_atom_site_label_2
_geom_torsion_atom_site_label_3
_geom_torsion_atom_site_label_4
_geom_torsion
Br1A C5A C6A Br2A 0.9(3)
Br1A C5A C6A C7A -179.9(2)
Br2A C6A C7A C8A 179.1(2)
O1A C1A C2A O2A -0.8(5)
O1A C1A C2A C3A 179.9(3)
O2A C2A C3A C4A 0.0(6)
O2A C2A C3A C8A -178.1(3)
N1A C1A C2A O2A 178.5(3)
N1A C1A C2A C3A -0.8(3)
C1A N1A C8A C3A 0.5(3)
C1A N1A C8A C7A -178.6(3)
C1A C2A C3A C4A 179.2(3)
C1A C2A C3A C8A 1.0(3)
C2A C3A C4A C5A -178.0(3)
C2A C3A C8A N1A -1.0(3)
C2A C3A C8A C7A 178.1(3)
C3A C4A C5A Br1A -180.0(2)
C3A C4A C5A C6A 0.3(4)
C4A C3A C8A N1A -179.4(3)
C4A C3A C8A C7A -0.3(4)
C4A C5A C6A Br2A -179.4(2)
C4A C5A C6A C7A -0.2(4)
C5A C6A C7A C8A -0.2(4)
C6A C7A C8A N1A 179.3(3)
C6A C7A C8A C3A 0.4(4)
C8A N1A C1A O1A 179.5(3)
C8A N1A C1A C2A 0.2(3)
C8A C3A C4A C5A -0.1(4)
Br1 C5 C6 Br2 0.1(4)
Br1 C5 C6 C7 -180.0(2)
Br2 C6 C7 C8 179.6(2)
O1 C1 C2 O2 0.3(5)
O1 C1 C2 C3 179.8(3)
O2 C2 C3 C4 -1.7(6)
O2 C2 C3 C8 178.7(3)
N1 C1 C2 O2 -179.1(3)
N1 C1 C2 C3 0.3(3)
C1 N1 C8 C3 -0.7(3)
C1 N1 C8 C7 179.8(3)
C1 C2 C3 C4 179.0(3)
C1 C2 C3 C8 -0.7(3)
C2 C3 C4 C5 179.8(3)
C2 C3 C8 N1 0.9(3)
C2 C3 C8 C7 -179.6(3)
C3 C4 C5 Br1 -179.6(2)
C3 C4 C5 C6 0.0(4)
C4 C3 C8 N1 -178.8(3)
C4 C3 C8 C7 0.7(4)
C4 C5 C6 Br2 -179.4(2)
C4 C5 C6 C7 0.5(5)
C5 C6 C7 C8 -0.4(4)
C6 C7 C8 N1 179.2(3)
C6 C7 C8 C3 -0.2(4)
C8 N1 C1 O1 -179.2(3)
C8 N1 C1 C2 0.2(3)
C8 C3 C4 C5 -0.6(4)

_cod_database_fobs_code 1545559
