#------------------------------------------------------------------------------
#$Date: 2017-05-05 00:58:51 +0300 (Fri, 05 May 2017) $
#$Revision: 196182 $
#$URL: file:///home/coder/svn-repositories/cod/cif/1/54/55/1545562.cif $
#------------------------------------------------------------------------------
#
# This file is available in the Crystallography Open Database (COD),
# http://www.crystallography.net/
#
# All data on this site have been placed in the public domain by the
# contributors.
#
data_1545562
loop_
_publ_author_name
'Reddy, Mallu Kesava'
'Mallik, Sumitava'
'Ramakrishna, Isai'
'Baidya, Mahiuddin'
_publ_section_title
;
 Nitrosocarbonyl-Henry and Denitration Cascade: Synthesis of \a-Ketoamides
 and \a-Keto Oximes.
;
_journal_issue                   7
_journal_name_full               'Organic letters'
_journal_page_first              1694
_journal_page_last               1697
_journal_paper_doi               10.1021/acs.orglett.7b00482
_journal_volume                  19
_journal_year                    2017
_chemical_formula_sum            'C16 H12 Cl N O4'
_chemical_formula_weight         317.72
_space_group_crystal_system      triclinic
_space_group_IT_number           2
_space_group_name_Hall           '-P 1'
_space_group_name_H-M_alt        'P -1'
_symmetry_space_group_name_Hall  '-P 1'
_symmetry_space_group_name_H-M   'P -1'
_atom_sites_solution_hydrogens   mixed
_audit_creation_method           SHELXL-2014/7
_cell_angle_alpha                92.8941(17)
_cell_angle_beta                 92.3808(19)
_cell_angle_gamma                99.1117(17)
_cell_formula_units_Z            2
_cell_length_a                   7.1293(3)
_cell_length_b                   8.5344(3)
_cell_length_c                   12.1967(5)
_cell_measurement_reflns_used    3975
_cell_measurement_temperature    296(2)
_cell_measurement_theta_max      25.51
_cell_measurement_theta_min      2.90
_cell_volume                     730.88(5)
_computing_cell_refinement       'Bruker SAINT'
_computing_data_collection       'Bruker APEX2'
_computing_data_reduction        'Bruker SAINT'
_computing_molecular_graphics    'Bruker SHELXTL'
_computing_publication_material  'Bruker SHELXTL'
_computing_structure_refinement  'SHELXL-2014/7 (Sheldrick, 2014)'
_computing_structure_solution    'SHELXS-97 (Sheldrick 2008)'
_diffrn_ambient_temperature      296(2)
_diffrn_measured_fraction_theta_full 0.999
_diffrn_measured_fraction_theta_max 0.999
_diffrn_measurement_device_type  'Bruker APEX-II CCD'
_diffrn_measurement_method       '\f and \w scans'
_diffrn_radiation_type           MoK\a
_diffrn_radiation_wavelength     0.71073
_diffrn_reflns_av_R_equivalents  0.0280
_diffrn_reflns_av_unetI/netI     0.0242
_diffrn_reflns_Laue_measured_fraction_full 0.999
_diffrn_reflns_Laue_measured_fraction_max 0.999
_diffrn_reflns_limit_h_max       8
_diffrn_reflns_limit_h_min       -8
_diffrn_reflns_limit_k_max       10
_diffrn_reflns_limit_k_min       -9
_diffrn_reflns_limit_l_max       14
_diffrn_reflns_limit_l_min       -14
_diffrn_reflns_number            10983
_diffrn_reflns_point_group_measured_fraction_full 0.999
_diffrn_reflns_point_group_measured_fraction_max 0.999
_diffrn_reflns_theta_full        24.998
_diffrn_reflns_theta_max         24.998
_diffrn_reflns_theta_min         2.421
_exptl_absorpt_coefficient_mu    0.279
_exptl_absorpt_correction_type   none
_exptl_crystal_colour            yellow
_exptl_crystal_density_diffrn    1.444
_exptl_crystal_description       Rectangular
_exptl_crystal_F_000             328
_exptl_crystal_size_max          0.250
_exptl_crystal_size_mid          0.220
_exptl_crystal_size_min          0.100
_refine_diff_density_max         0.353
_refine_diff_density_min         -0.325
_refine_diff_density_rms         0.046
_refine_ls_extinction_coef       0.023(4)
_refine_ls_extinction_expression Fc^*^=kFc[1+0.001xFc^2^\l^3^/sin(2\q)]^-1/4^
_refine_ls_extinction_method     'SHELXL-2014/7 (Sheldrick 2014'
_refine_ls_goodness_of_fit_ref   1.057
_refine_ls_hydrogen_treatment    mixed
_refine_ls_matrix_type           full
_refine_ls_number_parameters     204
_refine_ls_number_reflns         2579
_refine_ls_number_restraints     0
_refine_ls_restrained_S_all      1.057
_refine_ls_R_factor_all          0.0689
_refine_ls_R_factor_gt           0.0489
_refine_ls_shift/su_max          0.000
_refine_ls_shift/su_mean         0.000
_refine_ls_structure_factor_coef Fsqd
_refine_ls_weighting_details
'w=1/[\s^2^(Fo^2^)+(0.0500P)^2^+0.5043P] where P=(Fo^2^+2Fc^2^)/3'
_refine_ls_weighting_scheme      calc
_refine_ls_wR_factor_gt          0.1170
_refine_ls_wR_factor_ref         0.1326
_reflns_Friedel_coverage         0.000
_reflns_number_gt                1919
_reflns_number_total             2579
_reflns_threshold_expression     'I > 2\s(I)'
_cod_data_source_file            ol7b00482_si_002.cif
_cod_data_source_block           pcl
_cod_depositor_comments
'Adding full bibliography for 1545561--1545562.cif.'
_cod_database_code               1545562
_shelx_shelxl_version_number     2014/7
_shelx_space_group_comment
; 
The symmetry employed for this shelxl refinement is uniquely defined 
by the following loop, which should always be used as a source of 
symmetry information in preference to the above space-group names. 
They are only intended as comments. 
;
_shelx_estimated_absorpt_t_min   0.934
_shelx_estimated_absorpt_t_max   0.973
_shelx_res_file
; 
  
    pcl.res created by SHELXL-2014/7 
  
TITL pcl in P-1 
CELL 0.71073   7.12930   8.53440  12.19670  92.8941  92.3808  99.1117 
ZERR    2.00   0.00030   0.00030   0.00050   0.0017   0.0019   0.0017 
LATT 1 
SFAC C  H  N  O  Cl 
UNIT 32  24  2  8  2 
OMIT -3 50 
L.S. 8 
ACTA 
BOND $H 
FMAP 2 
PLAN 5 
CONF 
SIZE 0.10 0.22 0.25 
TEMP 23.000 
WGHT    0.050000    0.504300 
EXTI    0.022784 
FVAR       0.25146 
MOLE 1 
C8    1    0.598815    0.395385    0.658844    11.00000    0.05013    0.04560 = 
         0.05157   -0.00352   -0.00536    0.01422 
C9    1    0.317903    0.296422    0.538977    11.00000    0.04617    0.04189 = 
         0.05126   -0.00141   -0.00662    0.01581 
C10   1    0.239105    0.150741    0.461557    11.00000    0.04311    0.03723 = 
         0.04198    0.00388    0.00059    0.01512 
C11   1    0.054784    0.138202    0.398812    11.00000    0.03886    0.03359 = 
         0.04049    0.00317    0.00031    0.01049 
C12   1    0.011796    0.012643    0.320010    11.00000    0.04817    0.04564 = 
         0.05204   -0.00738   -0.00422    0.02096 
AFIX  43 
H12   2    0.097415   -0.057902    0.310079    11.00000   -1.20000 
AFIX   0 
C13   1   -0.154660   -0.008868    0.256737    11.00000    0.05421    0.05387 = 
         0.05441   -0.01403   -0.01046    0.01447 
AFIX  43 
H13   2   -0.182640   -0.093253    0.204298    11.00000   -1.20000 
AFIX   0 
C14   1   -0.280133    0.097229    0.272346    11.00000    0.03844    0.05313 = 
         0.05192    0.00402   -0.00571    0.00895 
C15   1   -0.244567    0.220284    0.349805    11.00000    0.03820    0.04240 = 
         0.06147    0.00388    0.00031    0.01446 
AFIX  43 
H15   2   -0.331924    0.289380    0.359467    11.00000   -1.20000 
AFIX   0 
C16   1   -0.076807    0.241177    0.413934    11.00000    0.04085    0.03612 = 
         0.05122   -0.00204   -0.00021    0.01195 
AFIX  43 
H16   2   -0.051647    0.324353    0.467425    11.00000   -1.20000 
AFIX   0 
CL1   5   -0.489017    0.070805    0.190052    11.00000    0.05497    0.10247 = 
         0.09001   -0.01487   -0.03059    0.02177 
N1    3    0.486610    0.279447    0.591222    11.00000    0.04888    0.03887 = 
         0.05237   -0.00634   -0.01115    0.01675 
O1    4    0.752582    0.340853    0.694308    11.00000    0.06521    0.04294 = 
         0.07116   -0.00934   -0.03281    0.01562 
O2    4    0.564026    0.525431    0.680734    11.00000    0.07353    0.05610 = 
         0.11970   -0.03341   -0.03173    0.02942 
O3    4    0.240949    0.411497    0.550164    11.00000    0.06586    0.05554 = 
         0.11363   -0.03153   -0.03449    0.03232 
O4    4    0.336711    0.047237    0.453118    11.00000    0.05316    0.04739 = 
         0.07009   -0.01113   -0.01538    0.02721 
C6    1    0.982686    0.375130    0.848561    11.00000    0.05625    0.04212 = 
         0.05362   -0.01214   -0.01546    0.01459 
C7    1    0.895285    0.454246    0.757941    11.00000    0.09126    0.04856 = 
         0.09036    0.00215   -0.04494   -0.00492 
AFIX  23 
H7A   2    0.836580    0.540674    0.788474    11.00000   -1.20000 
H7B   2    0.993218    0.498585    0.710275    11.00000   -1.20000 
AFIX   0 
C1    1    0.876074    0.273938    0.913257    11.00000    0.09917    0.06651 = 
         0.07439    0.00262    0.01181    0.02895 
AFIX  43 
H1    2    0.745311    0.249270    0.898811    11.00000   -1.20000 
AFIX   0 
C5    1    1.175762    0.410733    0.868019    11.00000    0.06340    0.06684 = 
         0.12810   -0.03776   -0.02362    0.01079 
AFIX  43 
H5    2    1.248751    0.478262    0.823015    11.00000   -1.20000 
AFIX   0 
C4    1    1.264076    0.344451    0.956872    11.00000    0.10417    0.10626 = 
         0.23323   -0.09951   -0.11113    0.05075 
AFIX  43 
H4    2    1.394480    0.367393    0.973077    11.00000   -1.20000 
AFIX   0 
C3    1    1.144878    0.244132    1.017591    11.00000    0.22555    0.11096 = 
         0.12240   -0.06328   -0.11754    0.10006 
AFIX  43 
H3    2    1.198800    0.197970    1.076048    11.00000   -1.20000 
AFIX   0 
C2    1    0.957745    0.208722    0.998324    11.00000    0.23141    0.09303 = 
         0.05907    0.00668    0.00785    0.06761 
AFIX  43 
H2    2    0.884060    0.140326    1.042482    11.00000   -1.20000 
AFIX   0 
H1N   2    0.522232    0.197289    0.579542    11.00000    0.03943 
HKLF 4 
  
REM  pcl in P-1 
REM R1 =  0.0489 for    1919 Fo > 4sig(Fo)  and  0.0689 for all    2579 data 
REM    204 parameters refined using      0 restraints 
  
END 
  
WGHT      0.0495      0.5060 
  
REM Highest difference peak  0.353,  deepest hole -0.325,  1-sigma level  0.046 
Q1    1   1.2064  0.3415  0.9784  11.00000  0.05    0.35 
Q2    1   1.1018  0.2175  1.0216  11.00000  0.05    0.34 
Q3    1   1.2749  0.2852  0.9800  11.00000  0.05    0.31 
Q4    1  -0.4257  0.1040  0.1209  11.00000  0.05    0.29 
Q5    1   1.3307  0.4039  0.8976  11.00000  0.05    0.25 
;
_shelx_res_checksum              95003
_shelx_hkl_file
; 
  -1   0   0    2.11    0.09 
  -1   0   0    2.67    0.10 
  -1   0   0    2.49    0.10 
  -1   0   0    2.72    0.10 
   1   0   0    2.51    0.10 
   1   0   0    2.81    0.10 
   1   0   0    2.75    0.10 
   1   0   0    2.71    0.10 
  -2   0   0    0.68    0.09 
  -2   0   0    0.42    0.08 
  -2   0   0    0.53    0.08 
  -2   0   0    0.65    0.09 
   2   0   0    0.52    0.08 
   2   0   0    0.37    0.08 
   2   0   0    0.76    0.10 
   2   0   0    0.64    0.09 
  -3   0   0   13.15    0.41 
  -3   0   0   13.27    0.41 
  -3   0   0   12.86    0.41 
  -3   0   0   13.52    0.42 
   3   0   0   12.63    0.42 
   3   0   0   12.64    0.42 
   3   0   0   13.10    0.41 
   3   0   0   13.54    0.41 
  -4   0   0   68.23    1.56 
   4   0   0   67.04    1.56 
   4   0   0   67.62    1.58 
   4   0   0   66.52    1.56 
   4   0   0   68.27    1.60 
  -5   0   0    9.96    0.42 
   5   0   0    9.96    0.43 
   5   0   0    9.60    0.42 
   5   0   0    9.66    0.43 
  -6   0   0    0.29    0.14 
   6   0   0    0.20    0.15 
   6   0   0    0.14    0.12 
   6   0   0    0.13    0.14 
  -7   0   0    0.88    0.20 
   7   0   0    1.04    0.21 
   7   0   0    1.08    0.23 
   8   0   0    1.97    0.26 
   8   0   0    1.96    0.30 
   8   0   0    0.95    0.22 
   9   0   0    0.53    0.23 
   9   0   0    0.23    0.18 
   9   0   0    0.63    0.21 
   9  -1   0    0.41    0.21 
   9  -1   0    0.39    0.21 
   9  -1   0    0.54    0.22 
   8  -1   0    0.51    0.17 
   8  -1   0    0.30    0.18 
   8  -1   0    0.08    0.18 
   7  -1   0    0.14    0.16 
   7  -1   0   -0.17    0.11 
  -7   1   0   -0.10    0.13 
   6  -1   0   13.43    0.57 
   6  -1   0   12.38    0.52 
  -6   1   0   12.94    0.56 
   5  -1   0   27.01    0.82 
   5  -1   0   26.07    0.80 
   5  -1   0   27.02    0.78 
  -5   1   0   26.47    0.81 
   4  -1   0    1.56    0.17 
   4  -1   0    2.10    0.19 
   4  -1   0    1.92    0.19 
  -4   1   0    1.60    0.17 
  -4   1   0    2.32    0.21 
   3  -1   0    7.30    0.28 
   3  -1   0    7.58    0.30 
   3  -1   0    7.67    0.30 
  -3   1   0    7.56    0.30 
  -3   1   0    7.38    0.30 
  -3   1   0    6.90    0.27 
  -3   1   0    7.48    0.30 
   2  -1   0   10.29    0.32 
   2  -1   0   10.29    0.32 
   2  -1   0   10.25    0.30 
  -2   1   0   10.44    0.32 
  -2   1   0   10.36    0.30 
  -2   1   0   10.41    0.32 
  -2   1   0   10.63    0.33 
   1  -1   0    0.14    0.03 
   1  -1   0    0.19    0.04 
   1  -1   0    0.19    0.04 
  -1   1   0    0.16    0.04 
  -1   1   0    0.15    0.04 
  -1   1   0    0.22    0.04 
   0   1   0    1.31    0.05 
  -1  -1   0    5.79    0.15 
  -1  -1   0    5.80    0.15 
  -1  -1   0    5.62    0.14 
   1   1   0    5.77    0.19 
   1   1   0    5.60    0.16 
   1   1   0    5.94    0.16 
   1   1   0    5.83    0.16 
  -2  -1   0   52.80    1.21 
  -2  -1   0   53.92    1.16 
  -2  -1   0   55.47    1.17 
   2   1   0   56.08    1.18 
   2   1   0   55.24    1.19 
   2   1   0   53.12    1.21 
   2   1   0   53.94    1.18 
  -3  -1   0    4.04    0.19 
  -3  -1   0    4.18    0.22 
  -3  -1   0    3.93    0.19 
   3   1   0    3.84    0.21 
   3   1   0    3.82    0.20 
   3   1   0    3.84    0.20 
   3   1   0    4.32    0.22 
  -4  -1   0    7.05    0.31 
   4   1   0    6.85    0.33 
   4   1   0    7.00    0.31 
   4   1   0    7.43    0.33 
   4   1   0    7.41    0.34 
  -5  -1   0    2.49    0.23 
   5   1   0    2.42    0.24 
   5   1   0    2.68    0.27 
   5   1   0    2.74    0.26 
   5   1   0    2.78    0.24 
  -6  -1   0    6.28    0.35 
   6   1   0    5.87    0.39 
   6   1   0    6.17    0.37 
   6   1   0    5.09    0.36 
   7   1   0    4.44    0.36 
   7   1   0    4.67    0.36 
   8   1   0    0.55    0.22 
   8   1   0    0.54    0.20 
   8   1   0    0.70    0.20 
   9  -2   0    0.21    0.20 
   9  -2   0    0.01    0.15 
   8  -2   0    0.54    0.16 
   8  -2   0    0.65    0.20 
   8  -2   0    0.30    0.18 
  -8   2   0    0.55    0.22 
   7  -2   0   -0.02    0.11 
   7  -2   0   -0.14    0.13 
  -7   2   0    0.16    0.16 
   6  -2   0   24.13    0.82 
   6  -2   0   24.00    0.75 
  -6   2   0   23.93    0.82 
   5  -2   0    0.37    0.13 
   5  -2   0    0.40    0.13 
  -5   2   0    0.23    0.13 
   4  -2   0    3.39    0.24 
   4  -2   0    3.32    0.20 
   4  -2   0    3.53    0.23 
  -4   2   0    3.85    0.26 
  -4   2   0    3.50    0.24 
   3  -2   0    6.13    0.24 
   3  -2   0    6.13    0.26 
   3  -2   0    5.94    0.27 
  -3   2   0    5.88    0.27 
  -3   2   0    5.91    0.28 
  -3   2   0    6.32    0.25 
  -3   2   0    6.03    0.28 
   2  -2   0   36.51    0.88 
   2  -2   0   37.69    0.87 
   2  -2   0   37.20    0.83 
  -2   2   0   37.15    0.89 
  -2   2   0   37.84    0.89 
  -2   2   0   38.98    0.89 
  -2   2   0   37.69    0.84 
   1  -2   0   61.07    1.27 
   1  -2   0   63.83    1.32 
   1  -2   0   62.61    1.32 
  -1   2   0   62.59    1.27 
  -1   2   0   65.32    1.34 
  -1   2   0   63.77    1.34 
  -1   2   0   63.58    1.31 
   0  -2   0    2.90    0.11 
   0   2   0    2.79    0.07 
   0   2   0    2.77    0.07 
  -1  -2   0   15.97    0.34 
   1   2   0   15.23    0.33 
   1   2   0   15.92    0.33 
   1   2   0   15.62    0.34 
  -2  -2   0    5.02    0.14 
  -2  -2   0    5.04    0.15 
  -2  -2   0    5.01    0.15 
   2   2   0    5.35    0.23 
   2   2   0    4.94    0.18 
   2   2   0    5.08    0.18 
   2   2   0    5.15    0.18 
  -3  -2   0   14.01    0.38 
  -3  -2   0   14.04    0.38 
  -3  -2   0   13.86    0.37 
   3   2   0   13.57    0.42 
   3   2   0   14.17    0.42 
   3   2   0   14.00    0.47 
   3   2   0   14.06    0.43 
  -4  -2   0    4.57    0.23 
   4   2   0    4.44    0.28 
   4   2   0    4.56    0.26 
   4   2   0    4.76    0.27 
   4   2   0    4.49    0.25 
  -5  -2   0    0.90    0.14 
   5   2   0    1.11    0.16 
   5   2   0    0.76    0.18 
   5   2   0    0.82    0.15 
   5   2   0    0.99    0.17 
  -6  -2   0    0.11    0.10 
   6   2   0   -0.12    0.10 
   6   2   0   -0.10    0.16 
   7   2   0    1.53    0.27 
   7   2   0    1.20    0.21 
  -8  -2   0    0.14    0.14 
   8   2   0   -0.08    0.15 
   8   2   0    0.09    0.15 
   8   2   0   -0.16    0.18 
   9  -3   0    0.10    0.18 
   9  -3   0   -0.06    0.17 
   8  -3   0    0.26    0.17 
   8  -3   0    0.25    0.16 
  -8   3   0    0.30    0.20 
   7  -3   0    0.44    0.16 
   7  -3   0    0.19    0.10 
   7  -3   0    0.10    0.13 
  -7   3   0    0.07    0.17 
   6  -3   0   27.94    0.83 
   6  -3   0   28.19    0.91 
  -6   3   0   28.73    0.94 
   5  -3   0    0.04    0.11 
   5  -3   0    0.23    0.11 
  -5   3   0    0.36    0.15 
   4  -3   0    6.17    0.27 
   4  -3   0    5.81    0.30 
  -4   3   0    6.24    0.33 
  -4   3   0    5.33    0.31 
   3  -3   0    0.06    0.07 
   3  -3   0   -0.08    0.05 
   3  -3   0    0.01    0.06 
  -3   3   0    0.04    0.06 
  -3   3   0   -0.03    0.07 
  -3   3   0    0.07    0.08 
  -3   3   0    0.04    0.07 
   2  -3   0    2.28    0.14 
   2  -3   0    2.26    0.12 
   2  -3   0    1.74    0.06 
   2  -3   0    2.18    0.14 
  -2   3   0    2.25    0.16 
  -2   3   0    2.36    0.16 
  -2   3   0    2.17    0.15 
  -2   3   0    2.28    0.12 
   1  -3   0   16.94    0.40 
   1  -3   0   17.37    0.40 
   1  -3   0   15.91    0.39 
  -1   3   0   16.97    0.43 
  -1   3   0   16.78    0.43 
  -1   3   0   16.75    0.38 
   0   3   0   35.32    0.72 
   0   3   0   33.95    0.71 
   0   3   0   34.69    0.79 
   0   3   0   35.23    0.77 
   1   3   0   35.91    0.84 
  -2  -3   0   18.28    0.42 
   2   3   0   17.75    0.43 
   2   3   0   17.97    0.43 
   2   3   0   17.57    0.44 
   2   3   0   18.46    0.53 
  -3  -3   0    6.33    0.17 
  -3  -3   0    6.03    0.17 
  -3  -3   0    6.37    0.23 
   3   3   0    6.28    0.24 
   3   3   0    5.56    0.29 
   3   3   0    6.18    0.25 
   3   3   0    6.11    0.25 
  -4  -3   0    0.27    0.07 
  -4  -3   0    0.45    0.09 
  -4  -3   0    0.22    0.06 
   4   3   0    0.42    0.15 
   4   3   0    0.34    0.11 
   4   3   0    0.21    0.09 
   4   3   0    0.20    0.10 
  -5  -3   0   -0.06    0.06 
  -5  -3   0    0.09    0.07 
   5   3   0   -0.05    0.08 
   5   3   0   -0.16    0.14 
   5   3   0   -0.01    0.09 
   5   3   0    0.18    0.11 
  -6  -3   0    1.04    0.16 
   6   3   0    0.57    0.19 
   6   3   0    0.61    0.15 
  -7  -3   0    0.28    0.12 
   7   3   0    0.69    0.20 
   7   3   0    0.29    0.15 
   7   3   0    0.76    0.23 
  -8  -3   0    0.26    0.15 
   8   3   0    0.12    0.15 
   8   3   0    0.08    0.21 
   8  -4   0   -0.24    0.14 
   8  -4   0    0.03    0.14 
  -8   4   0    0.05    0.19 
   7  -4   0    0.33    0.15 
   7  -4   0    0.24    0.09 
   7  -4   0    0.21    0.15 
  -7   4   0    0.27    0.19 
   6  -4   0    4.12    0.19 
   6  -4   0    4.53    0.30 
   6  -4   0    4.19    0.33 
  -6   4   0    4.12    0.36 
   5  -4   0   19.47    0.59 
   5  -4   0   16.97    0.63 
  -5   4   0   18.33    0.68 
   4  -4   0    0.09    0.02 
   4  -4   0    0.03    0.08 
   4  -4   0    0.01    0.08 
  -4   4   0    0.19    0.12 
  -4   4   0   -0.03    0.09 
  -4   4   0    0.08    0.13 
   3  -4   0   -0.08    0.05 
   3  -4   0    0.03    0.06 
  -3   4   0    0.12    0.09 
  -3   4   0   -0.01    0.07 
  -3   4   0    0.02    0.08 
  -3   4   0   -0.03    0.06 
   2  -4   0    4.38    0.19 
   2  -4   0    4.90    0.20 
   2  -4   0    4.65    0.17 
  -2   4   0    4.66    0.19 
  -2   4   0    4.74    0.22 
  -2   4   0    4.46    0.23 
   1  -4   0    0.29    0.03 
   1  -4   0    0.30    0.04 
   1  -4   0    0.25    0.05 
  -1   4   0    0.32    0.06 
  -1   4   0    0.22    0.04 
  -1   4   0    0.30    0.06 
   0   4   0    2.32    0.15 
   0   4   0    2.37    0.09 
   0   4   0    2.29    0.13 
   0   4   0    2.43    0.10 
   1   4   0    3.13    0.17 
  -2  -4   0   18.43    0.39 
   2   4   0   18.35    0.43 
   2   4   0   17.93    0.56 
   2   4   0   17.88    0.43 
   2   4   0   18.58    0.43 
  -3  -4   0    6.49    0.21 
   3   4   0    6.15    0.25 
   3   4   0    7.25    0.35 
   3   4   0    6.40    0.25 
   3   4   0    6.88    0.25 
  -4  -4   0   12.52    0.38 
   4   4   0   12.62    0.42 
   4   4   0   11.82    0.42 
   4   4   0   12.73    0.45 
   4   4   0   12.40    0.52 
  -5  -4   0    0.31    0.09 
   5   4   0    0.18    0.15 
   5   4   0    0.39    0.13 
   5   4   0    0.26    0.11 
   5   4   0    0.05    0.10 
  -6  -4   0    0.22    0.09 
   6   4   0    0.24    0.12 
   6   4   0    0.40    0.20 
  -7  -4   0   -0.10    0.09 
   7   4   0   -0.04    0.11 
   7   4   0   -0.02    0.18 
   8  -5   0    0.99    0.24 
   8  -5   0    1.15    0.23 
  -8   5   0    0.68    0.25 
   7  -5   0    1.97    0.28 
   7  -5   0    1.98    0.25 
  -7   5   0    1.82    0.30 
   6  -5   0    0.60    0.17 
   6  -5   0    0.83    0.16 
  -6   5   0    0.52    0.19 
   5  -5   0    5.06    0.28 
   5  -5   0    4.71    0.31 
  -5   5   0    4.95    0.36 
   4  -5   0    3.72    0.24 
  -4   5   0    3.86    0.29 
  -4   5   0    4.12    0.30 
  -4   5   0    4.36    0.36 
   3  -5   0    0.77    0.11 
  -3   5   0    0.81    0.14 
  -3   5   0    0.81    0.14 
  -3   5   0    0.72    0.14 
   2  -5   0   29.68    0.70 
   2  -5   0   28.91    0.69 
  -2   5   0   29.50    0.78 
  -2   5   0   29.72    0.71 
  -2   5   0   29.56    0.78 
  -2   5   0   29.99    0.64 
   1  -5   0   46.05    1.04 
  -1   5   0   46.16    1.04 
  -1   5   0   45.44    1.01 
  -1   5   0   45.96    1.04 
   0   5   0    0.03    0.03 
   0   5   0   -0.04    0.06 
   0   5   0    0.01    0.05 
   0   5   0    0.05    0.04 
   1   5   0   17.55    0.52 
   1   5   0   19.05    0.57 
   2   5   0    2.27    0.10 
   2   5   0    2.40    0.10 
   2   5   0    2.20    0.10 
   2   5   0    1.97    0.21 
   2   5   0    2.41    0.20 
  -3  -5   0    2.53    0.09 
   3   5   0    3.01    0.28 
   3   5   0    2.64    0.15 
   3   5   0    2.25    0.15 
   3   5   0    2.48    0.15 
  -4  -5   0    0.03    0.04 
   4   5   0   -0.08    0.06 
   4   5   0    0.10    0.08 
   4   5   0   -0.02    0.08 
   4   5   0    0.04    0.14 
  -5  -5   0    7.96    0.30 
   5   5   0    8.80    0.41 
   5   5   0    8.33    0.37 
   5   5   0    8.08    0.48 
   5   5   0    8.32    0.48 
  -6  -5   0   -0.02    0.06 
   6   5   0   -0.03    0.17 
   6   5   0    0.18    0.17 
   6   5   0    0.10    0.10 
  -7  -5   0   -0.01    0.09 
   7   5   0   -0.02    0.12 
   7   5   0    0.17    0.22 
   8  -6   0    0.11    0.13 
   8  -6   0    0.11    0.14 
  -8   6   0    0.22    0.23 
   7  -6   0    1.41    0.24 
   7  -6   0    1.62    0.23 
  -7   6   0    1.15    0.26 
   6  -6   0    0.96    0.19 
   6  -6   0    0.67    0.14 
  -6   6   0    0.84    0.22 
   5  -6   0    1.00    0.17 
  -5   6   0    1.15    0.24 
  -5   6   0    1.08    0.22 
   4  -6   0    0.80    0.13 
  -4   6   0    0.68    0.17 
  -4   6   0    1.03    0.19 
  -4   6   0    0.96    0.22 
   3  -6   0    2.21    0.14 
   3  -6   0    2.28    0.15 
  -3   6   0    1.94    0.22 
  -3   6   0    2.96    0.26 
  -3   6   0    1.36    0.18 
   2  -6   0   -0.01    0.05 
   2  -6   0    0.04    0.03 
  -2   6   0   -0.01    0.04 
  -2   6   0    0.10    0.08 
  -2   6   0   -0.05    0.06 
  -2   6   0   -0.01    0.08 
   1  -6   0    1.15    0.12 
  -1   6   0    1.08    0.12 
  -1   6   0    0.98    0.11 
  -1   6   0    1.17    0.12 
   0   6   0    4.69    0.24 
   0   6   0    4.75    0.23 
   0   6   0    4.87    0.18 
   0   6   0    4.86    0.18 
   0   6   0    4.85    0.13 
   1   6   0    5.21    0.14 
   1   6   0    5.16    0.14 
   1   6   0    5.74    0.30 
   1   6   0    5.14    0.26 
   2   6   0    2.49    0.10 
   2   6   0    2.76    0.10 
   2   6   0    2.36    0.24 
   2   6   0    2.60    0.26 
   2   6   0    2.54    0.09 
   2   6   0    2.72    0.21 
   3   6   0    2.16    0.13 
   3   6   0    2.11    0.13 
   3   6   0    2.05    0.22 
   3   6   0    2.82    0.29 
   3   6   0    1.94    0.14 
   3   6   0    2.07    0.25 
   4   6   0    0.07    0.15 
   4   6   0    0.12    0.07 
   4   6   0    0.13    0.08 
   4   6   0   -0.20    0.09 
   4   6   0    0.01    0.14 
   4   6   0    0.19    0.07 
  -5  -6   0    5.81    0.21 
   5   6   0    6.38    0.46 
   5   6   0    5.87    0.30 
   5   6   0    7.22    0.47 
  -6  -6   0    0.06    0.07 
   6   6   0    0.07    0.11 
   6   6   0    0.12    0.19 
   7  -7   0    0.29    0.19 
  -7   7   0    0.29    0.20 
   6  -7   0    0.03    0.12 
  -6   7   0   -0.02    0.15 
   5  -7   0    0.31    0.09 
   5  -7   0    0.38    0.13 
  -5   7   0    0.15    0.15 
   4  -7   0    0.01    0.06 
   4  -7   0   -0.01    0.07 
  -4   7   0    0.02    0.12 
   3  -7   0    1.32    0.13 
   3  -7   0    0.87    0.10 
  -3   7   0    1.68    0.20 
  -3   7   0    1.84    0.21 
  -3   7   0    1.62    0.21 
   2  -7   0    6.37    0.28 
  -2   7   0    6.91    0.34 
  -2   7   0    7.55    0.34 
  -2   7   0    7.54    0.24 
  -2   7   0    6.38    0.32 
  -1   7   0    8.08    0.31 
  -1   7   0    8.13    0.31 
  -1   7   0    7.80    0.29 
   0   7   0   -0.01    0.05 
   0   7   0    0.21    0.08 
   0   7   0    0.08    0.05 
   0   7   0    0.14    0.09 
   1   7   0    0.16    0.04 
   1   7   0    0.18    0.08 
   1   7   0    0.10    0.11 
   1   7   0    0.21    0.04 
   2   7   0    0.92    0.15 
   2   7   0    1.18    0.20 
   2   7   0    1.19    0.06 
   2   7   0    1.26    0.20 
   3   7   0    0.37    0.13 
   3   7   0    0.35    0.16 
   3   7   0    0.30    0.07 
   3   7   0    0.48    0.06 
   3   7   0    0.45    0.06 
   3   7   0    0.61    0.19 
   4   7   0    0.71    0.10 
   4   7   0    0.74    0.22 
   4   7   0    0.94    0.22 
   5   7   0    0.08    0.08 
   5   7   0    0.32    0.20 
   6   7   0    0.26    0.23 
  -7   8   0    0.21    0.21 
  -6   8   0    0.38    0.21 
   5  -8   0    7.06    0.44 
  -5   8   0    7.75    0.48 
   4  -8   0    1.34    0.14 
  -4   8   0    1.01    0.19 
   3  -8   0    3.23    0.21 
  -3   8   0    3.52    0.28 
  -2   8   0    2.83    0.15 
  -2   8   0    2.53    0.28 
  -2   8   0    3.03    0.23 
  -1   8   0   26.99    0.74 
  -1   8   0   26.36    0.73 
  -1   8   0   27.25    0.71 
   0   8   0    0.53    0.12 
   0   8   0    0.41    0.08 
   0   8   0    0.56    0.08 
   0   8   0    0.37    0.11 
   1   8   0    0.74    0.06 
   1   8   0    0.60    0.06 
   1   8   0    0.70    0.13 
   1   8   0    0.82    0.16 
   2   8   0    0.14    0.13 
   2   8   0    0.08    0.13 
   2   8   0   -0.03    0.09 
   3   8   0    3.25    0.34 
   3   8   0    2.25    0.10 
   3   8   0    3.09    0.34 
   3   8   0    2.37    0.10 
   4   8   0    0.23    0.18 
   4   8   0    0.25    0.07 
   5   8   0    0.13    0.19 
   5   8   0   -0.04    0.08 
  -6   9   0    1.10    0.27 
  -5   9   0    0.65    0.21 
  -4   9   0    0.05    0.12 
   3  -9   0    0.71    0.13 
  -3   9   0    0.57    0.15 
  -2   9   0    2.17    0.23 
  -1   9   0    2.76    0.20 
  -1   9   0    2.93    0.21 
   0   9   0   -0.06    0.08 
   0   9   0   -0.01    0.09 
   0   9   0   -0.08    0.08 
   0   9   0    0.00    0.04 
   1   9   0    1.75    0.10 
   1   9   0    1.70    0.21 
   1   9   0    1.63    0.20 
   2   9   0    0.25    0.14 
   2   9   0    0.03    0.14 
   3   9   0    0.01    0.16 
   3   9   0   -0.06    0.15 
  -4  10   0    0.32    0.15 
  -3  10   0    0.22    0.13 
  -2  10   0    0.66    0.14 
  -1  10   0    0.04    0.07 
   0  10   0    0.07    0.11 
   0  10   0    0.06    0.05 
   1  10   0    0.34    0.15 
   2  10   0    0.25    0.16 
   2  10   0    0.38    0.19 
   2  10  -1    0.31    0.16 
   2  10  -1    0.08    0.17 
   1  10  -1    0.11    0.12 
   0  10  -1    0.38    0.08 
   0  10  -1    0.52    0.19 
  -1  10  -1    5.90    0.29 
  -2  10  -1    0.99    0.17 
  -3  10  -1    0.27    0.14 
  -4  10  -1    0.14    0.13 
   3   9  -1    0.47    0.18 
   3   9  -1    0.20    0.18 
   2   9  -1    0.19    0.15 
   2   9  -1    0.24    0.17 
   1   9  -1    0.82    0.17 
   1   9  -1    1.29    0.17 
   0   9  -1    0.42    0.08 
   0   9  -1    0.26    0.10 
   0   9  -1    0.43    0.12 
   0   9  -1    0.44    0.08 
  -1   9  -1    0.01    0.08 
  -1   9  -1    0.29    0.09 
  -2   9  -1   -0.08    0.08 
  -3   9  -1   -0.13    0.09 
  -4   9  -1    0.00    0.11 
  -5   9  -1    0.07    0.16 
  -6   9  -1    0.10    0.18 
   5   8  -1    1.09    0.29 
   5   8  -1    0.56    0.11 
   4   8  -1   -0.07    0.15 
   4   8  -1   -0.01    0.06 
   4   8  -1   -0.31    0.21 
   3   8  -1    0.18    0.04 
   3   8  -1    0.13    0.15 
   3   8  -1    0.29    0.17 
   2   8  -1    0.87    0.15 
   2   8  -1    1.30    0.22 
   1   8  -1    4.96    0.32 
   1   8  -1    4.46    0.15 
   1   8  -1    4.96    0.27 
   0   8  -1    1.94    0.18 
   0   8  -1    1.86    0.13 
   0   8  -1    1.94    0.13 
   0   8  -1    1.88    0.14 
   0   8  -1    2.26    0.21 
  -1   8  -1    0.69    0.11 
  -1   8  -1    0.92    0.13 
  -1   8  -1    0.84    0.13 
  -2   8  -1    1.71    0.19 
  -2   8  -1    1.25    0.11 
  -2   8  -1    1.34    0.20 
  -3   8  -1    7.68    0.39 
   3  -8   1    7.25    0.30 
  -4   8  -1    1.92    0.25 
   4  -8   1    1.59    0.14 
  -5   8  -1    1.51    0.25 
  -6   8  -1    0.35    0.20 
  -7   8  -1    0.13    0.20 
   6   7  -1    0.07    0.20 
   6   7  -1   -0.04    0.11 
   5   7  -1    1.40    0.16 
   5   7  -1    1.67    0.31 
   4   7  -1    0.01    0.07 
   4   7  -1   -0.19    0.15 
   4   7  -1   -0.27    0.13 
   3   7  -1    0.66    0.07 
   3   7  -1    0.68    0.16 
   3   7  -1    0.58    0.19 
   3   7  -1    1.10    0.22 
   3   7  -1    0.72    0.08 
   2   7  -1    0.07    0.11 
   2   7  -1   -0.01    0.08 
   1   7  -1    0.02    0.07 
   1   7  -1    0.17    0.11 
   0   7  -1    4.20    0.22 
   0   7  -1    3.68    0.17 
   0   7  -1    3.72    0.16 
   0   7  -1    3.74    0.17 
   0   7  -1    3.33    0.24 
  -1   7  -1    2.87    0.20 
  -1   7  -1    2.89    0.18 
  -1   7  -1    3.10    0.18 
  -1   7  -1    2.83    0.19 
  -2   7  -1    0.85    0.14 
  -2   7  -1    0.91    0.14 
  -2   7  -1    0.77    0.14 
  -2   7  -1    0.82    0.08 
  -3   7  -1    2.72    0.25 
  -3   7  -1    2.43    0.24 
  -3   7  -1    2.65    0.25 
   3  -7   1    2.42    0.15 
  -4   7  -1   15.01    0.60 
   4  -7   1   14.35    0.42 
   4  -7   1   14.52    0.47 
  -5   7  -1    2.80    0.31 
   5  -7   1    3.41    0.19 
   5  -7   1    3.02    0.24 
  -6   7  -1   -0.05    0.15 
   6  -7   1    0.20    0.12 
  -7   7  -1    0.10    0.20 
   7  -7   1    0.12    0.21 
   6   6  -1    0.17    0.12 
   6   6  -1   -0.03    0.18 
  -6  -6   1    0.01    0.07 
   5   6  -1    0.25    0.18 
   5   6  -1    0.12    0.09 
  -5  -6   1    0.21    0.05 
   4   6  -1    0.15    0.07 
   4   6  -1    0.18    0.08 
   4   6  -1    0.04    0.14 
   3   6  -1    2.02    0.22 
   3   6  -1    2.25    0.13 
   3   6  -1    2.00    0.13 
   3   6  -1    2.60    0.28 
   2   6  -1    0.57    0.12 
   2   6  -1    0.36    0.04 
   1   6  -1    0.16    0.07 
   0   6  -1    0.28    0.06 
   0   6  -1    0.29    0.07 
   0   6  -1    0.20    0.10 
   0   6  -1    0.22    0.06 
   0   6  -1    0.37    0.03 
   0   6  -1    0.35    0.05 
  -1   6  -1    2.58    0.15 
  -1   6  -1    2.72    0.16 
  -1   6  -1    2.46    0.16 
  -1   6  -1    2.45    0.17 
  -1   6  -1    2.55    0.14 
  -2   6  -1    0.24    0.09 
  -2   6  -1    0.13    0.04 
  -2   6  -1    0.23    0.09 
  -2   6  -1    0.03    0.07 
   2  -6   1    0.12    0.04 
   2  -6   1    0.22    0.06 
  -3   6  -1    1.89    0.21 
  -3   6  -1    2.13    0.22 
  -3   6  -1    2.29    0.22 
   3  -6   1    2.25    0.13 
   3  -6   1    2.10    0.15 
  -4   6  -1    0.11    0.13 
  -4   6  -1    0.08    0.12 
  -4   6  -1    0.09    0.16 
   4  -6   1    0.06    0.08 
   4  -6   1   -0.02    0.05 
  -5   6  -1   10.64    0.54 
  -5   6  -1   12.30    0.58 
   5  -6   1   11.61    0.47 
  -6   6  -1    0.06    0.16 
   6  -6   1    0.18    0.13 
  -7   6  -1    3.86    0.43 
   7  -6   1    4.60    0.33 
   7  -6   1    5.06    0.37 
  -8   6  -1    1.47    0.33 
   8  -6   1    1.67    0.25 
   8  -6   1    1.22    0.23 
   7   5  -1    0.16    0.22 
   7   5  -1   -0.12    0.12 
  -7  -5   1    0.07    0.10 
   6   5  -1    0.07    0.18 
   6   5  -1    0.03    0.10 
  -6  -5   1    0.10    0.07 
   5   5  -1    0.92    0.15 
   5   5  -1    1.01    0.23 
  -5  -5   1    1.01    0.12 
   4   5  -1    2.11    0.28 
   4   5  -1    2.52    0.18 
   4   5  -1    2.33    0.18 
  -4  -5   1    2.15    0.13 
   3   5  -1    0.48    0.08 
   3   5  -1    0.25    0.14 
   3   5  -1    0.34    0.07 
  -3  -5   1    0.39    0.03 
   2   5  -1    6.81    0.18 
   2   5  -1    6.62    0.19 
   2   5  -1    6.91    0.19 
   1   5  -1    7.75    0.30 
   0   5  -1   13.50    0.39 
   0   5  -1   14.00    0.31 
   0   5  -1   13.78    0.33 
   0   5  -1   13.88    0.34 
   0   5  -1   13.82    0.35 
  -1   5  -1    6.30    0.23 
  -1   5  -1    5.77    0.24 
  -1   5  -1    6.02    0.22 
  -1   5  -1    5.83    0.23 
  -2   5  -1   78.44    1.76 
  -2   5  -1   77.67    1.59 
  -2   5  -1   80.04    1.75 
  -2   5  -1   80.73    1.76 
   2  -5   1   77.93    1.65 
   2  -5   1   76.74    1.65 
  -3   5  -1    1.32    0.17 
  -3   5  -1    1.73    0.19 
  -3   5  -1    1.87    0.20 
   3  -5   1    1.36    0.10 
   3  -5   1    1.36    0.13 
  -4   5  -1    1.33    0.20 
  -4   5  -1    1.37    0.25 
  -4   5  -1    1.21    0.19 
   4  -5   1    1.14    0.15 
  -5   5  -1    0.23    0.16 
   5  -5   1    0.17    0.11 
   5  -5   1    0.02    0.10 
  -6   5  -1    8.36    0.49 
   6  -5   1    7.65    0.42 
   6  -5   1    7.97    0.39 
  -7   5  -1    1.50    0.28 
   7  -5   1    1.30    0.21 
   7  -5   1    1.76    0.25 
  -8   5  -1    0.12    0.20 
   8  -5   1   -0.08    0.15 
   8  -5   1    0.07    0.15 
   7   4  -1    0.31    0.15 
   7   4  -1    0.59    0.24 
  -7  -4   1    0.39    0.13 
   6   4  -1    1.15    0.19 
   6   4  -1    1.13    0.26 
  -6  -4   1    0.89    0.14 
   5   4  -1    4.97    0.36 
   5   4  -1    4.55    0.29 
   5   4  -1    4.48    0.27 
  -5  -4   1    4.27    0.24 
   4   4  -1    0.00    0.07 
   4   4  -1    0.08    0.08 
   4   4  -1   -0.12    0.12 
  -4  -4   1    0.04    0.06 
   3   4  -1    0.01    0.10 
   3   4  -1    0.08    0.06 
   3   4  -1   -0.02    0.06 
   3   4  -1   -0.04    0.05 
  -3  -4   1    0.02    0.04 
   2   4  -1    4.58    0.15 
   2   4  -1    4.68    0.16 
   2   4  -1    4.79    0.16 
   1   4  -1    0.04    0.05 
   0   4  -1    1.82    0.07 
   0   4  -1    1.74    0.11 
   0   4  -1    1.71    0.07 
   0   4  -1    1.72    0.07 
  -1   4  -1    1.15    0.10 
  -1   4  -1    1.24    0.10 
  -1   4  -1    1.07    0.09 
  -1   4  -1    1.14    0.09 
   1  -4   1    1.35    0.09 
   1  -4   1    1.25    0.06 
   1  -4   1    1.26    0.07 
  -2   4  -1   14.77    0.46 
  -2   4  -1   14.64    0.45 
  -2   4  -1   15.19    0.42 
  -2   4  -1   15.24    0.45 
   2  -4   1   14.19    0.40 
   2  -4   1   14.87    0.37 
   2  -4   1   15.39    0.41 
  -3   4  -1   24.75    0.70 
  -3   4  -1   24.30    0.70 
  -3   4  -1   24.46    0.70 
   3  -4   1   22.96    0.64 
  -4   4  -1    0.05    0.11 
  -4   4  -1    0.01    0.09 
   4  -4   1   -0.13    0.07 
   4  -4   1   -0.09    0.06 
  -5   4  -1    5.83    0.38 
   5  -4   1    5.81    0.16 
   5  -4   1    5.72    0.34 
   5  -4   1    6.00    0.31 
  -6   4  -1    6.50    0.43 
   6  -4   1    5.62    0.33 
   6  -4   1    5.73    0.37 
   6  -4   1    5.80    0.20 
  -7   4  -1    8.14    0.51 
   7  -4   1    7.96    0.29 
   7  -4   1    7.96    0.46 
   7  -4   1    8.50    0.43 
  -8   4  -1    1.38    0.30 
   8  -4   1    1.64    0.27 
   8  -4   1    2.01    0.27 
   8   3  -1   -0.14    0.18 
   8   3  -1   -0.02    0.14 
  -8  -3   1    0.19    0.13 
   7   3  -1    2.02    0.32 
   7   3  -1    1.36    0.24 
   6   3  -1    2.32    0.26 
   6   3  -1    2.17    0.29 
   5   3  -1    0.15    0.10 
   5   3  -1   -0.01    0.10 
   5   3  -1    0.06    0.15 
  -5  -3   1    0.05    0.07 
   4   3  -1   27.41    0.76 
   4   3  -1   27.30    0.74 
   4   3  -1   27.94    0.85 
  -4  -3   1   27.52    0.65 
  -4  -3   1   27.70    0.63 
   3   3  -1   36.39    0.88 
   3   3  -1   36.34    0.88 
   3   3  -1   36.48    0.86 
   3   3  -1   36.93    0.97 
  -3  -3   1   36.58    0.76 
  -3  -3   1   36.73    0.76 
   2   3  -1   10.64    0.29 
   2   3  -1   10.82    0.29 
   2   3  -1   10.82    0.30 
   0   3  -1    3.09    0.11 
   0   3  -1    3.11    0.09 
   0   3  -1    3.14    0.13 
   0   3  -1    3.13    0.10 
   0   3  -1    3.20    0.09 
  -1   3  -1  118.25    2.51 
  -1   3  -1  122.21    2.51 
  -1   3  -1  123.76    2.53 
   1  -3   1  123.62    2.47 
   1  -3   1  123.47    2.48 
   1  -3   1  123.54    2.48 
  -2   3  -1   30.76    0.73 
  -2   3  -1   31.06    0.77 
  -2   3  -1   31.42    0.77 
  -2   3  -1   30.52    0.77 
   2  -3   1   31.92    0.74 
   2  -3   1   30.67    0.74 
  -3   3  -1    0.24    0.08 
  -3   3  -1    0.09    0.08 
  -3   3  -1    0.31    0.09 
  -3   3  -1    0.28    0.08 
   3  -3   1    0.18    0.07 
   3  -3   1    0.12    0.07 
   3  -3   1    0.12    0.07 
  -4   3  -1    4.51    0.28 
  -4   3  -1    4.55    0.28 
   4  -3   1    4.60    0.26 
   4  -3   1    4.18    0.15 
   4  -3   1    4.32    0.24 
  -5   3  -1   30.51    0.93 
   5  -3   1   30.31    0.72 
   5  -3   1   31.37    0.90 
   5  -3   1   31.14    0.84 
  -6   3  -1    1.18    0.24 
   6  -3   1    1.34    0.14 
   6  -3   1    1.29    0.22 
   6  -3   1    1.17    0.20 
  -7   3  -1    0.22    0.18 
   7  -3   1   -0.08    0.12 
   7  -3   1    0.01    0.13 
   7  -3   1    0.27    0.10 
  -8   3  -1    1.73    0.31 
   8  -3   1    2.00    0.28 
   8  -3   1    2.12    0.30 
   9  -3   1    2.43    0.34 
   9  -3   1    2.75    0.36 
   8   2  -1    0.11    0.15 
   8   2  -1   -0.02    0.18 
   7   2  -1    2.28    0.29 
   7   2  -1    2.34    0.31 
   6   2  -1    1.16    0.20 
   6   2  -1    2.00    0.27 
  -6  -2   1    1.47    0.17 
   5   2  -1    1.61    0.19 
   5   2  -1    1.65    0.24 
   5   2  -1    1.08    0.17 
  -5  -2   1    1.53    0.16 
   4   2  -1   48.58    1.16 
   4   2  -1   47.06    1.17 
   4   2  -1   47.21    1.22 
  -4  -2   1   46.64    1.09 
   3   2  -1    0.12    0.09 
   3   2  -1    0.16    0.06 
   3   2  -1    0.07    0.06 
   3   2  -1    0.00    0.05 
  -3  -2   1    0.08    0.05 
  -3  -2   1    0.10    0.05 
  -3  -2   1    0.13    0.05 
   2   2  -1    1.21    0.09 
   2   2  -1    1.10    0.09 
   2   2  -1    1.19    0.09 
   2   2  -1    1.13    0.12 
  -2  -2   1    1.10    0.07 
  -2  -2   1    1.17    0.06 
  -2  -2   1    1.23    0.07 
   1   2  -1    3.44    0.10 
   1   2  -1    3.57    0.11 
   1   2  -1    3.55    0.10 
   0   2  -1  287.99    5.50 
   0   2  -1  300.33    5.41 
   0   2  -1  259.17    5.47 
   0   2  -1  240.78    5.45 
  -1   2  -1   95.99    1.93 
  -1   2  -1   91.28    1.91 
  -1   2  -1   91.58    1.94 
  -1   2  -1   93.52    1.92 
   1  -2   1   94.93    1.91 
   1  -2   1   92.74    1.91 
  -2   2  -1   32.93    0.79 
  -2   2  -1   32.46    0.80 
  -2   2  -1   33.41    0.76 
  -2   2  -1   34.43    0.80 
   2  -2   1   34.11    0.81 
   2  -2   1   33.18    0.77 
   2  -2   1   32.36    0.75 
   2  -2   1   32.59    0.67 
   2  -2   1   32.57    0.78 
  -3   2  -1   68.60    1.55 
  -3   2  -1   67.76    1.50 
  -3   2  -1   69.74    1.55 
  -3   2  -1   65.81    1.54 
   3  -2   1   68.74    1.56 
   3  -2   1   67.26    1.48 
   3  -2   1   67.18    1.41 
   3  -2   1   66.20    1.53 
   3  -2   1   68.62    1.52 
  -4   2  -1   45.63    1.16 
  -4   2  -1   46.05    1.16 
   4  -2   1   44.18    1.14 
   4  -2   1   46.53    1.14 
   4  -2   1   46.02    1.10 
   4  -2   1   45.57    1.18 
  -5   2  -1   23.23    0.75 
   5  -2   1   23.30    0.62 
   5  -2   1   22.70    0.68 
   5  -2   1   22.92    0.74 
  -6   2  -1    0.45    0.17 
   6  -2   1    0.46    0.12 
   6  -2   1    0.22    0.14 
   6  -2   1    0.75    0.17 
  -7   2  -1    2.95    0.33 
   7  -2   1    2.94    0.23 
   7  -2   1    2.82    0.30 
   7  -2   1    2.66    0.29 
  -8   2  -1    1.73    0.30 
   8  -2   1    2.12    0.30 
   8  -2   1    1.90    0.22 
   8  -2   1    2.09    0.29 
   9  -2   1    1.27    0.27 
   9  -2   1    1.13    0.26 
   8   1  -1   -0.08    0.12 
   8   1  -1   -0.17    0.15 
   7   1  -1    0.22    0.18 
   7   1  -1    0.04    0.14 
   6   1  -1    0.33    0.16 
   6   1  -1    0.34    0.14 
   6   1  -1    0.20    0.13 
  -6  -1   1    0.20    0.12 
   5   1  -1    7.76    0.38 
   5   1  -1    7.50    0.40 
   5   1  -1    7.62    0.37 
  -5  -1   1    7.69    0.35 
   4   1  -1   24.88    0.73 
   4   1  -1   25.31    0.71 
   4   1  -1   25.65    0.73 
  -4  -1   1   25.68    0.69 
   3   1  -1   31.98    0.82 
   3   1  -1   30.72    0.83 
   3   1  -1   33.02    0.80 
  -3  -1   1   32.22    0.83 
  -3  -1   1   33.14    0.78 
  -3  -1   1   33.16    0.79 
   2   1  -1   13.79    0.38 
   2   1  -1   14.22    0.41 
   2   1  -1   14.58    0.38 
  -2  -1   1   13.84    0.36 
  -2  -1   1   13.35    0.36 
   1   1  -1  153.62    3.03 
   1   1  -1  146.96    3.02 
  -1  -1   1  150.66    3.02 
  -1  -1   1  147.27    3.01 
  -1  -1   1  155.91    3.03 
   0   1  -1   14.07    0.31 
   0   1  -1   14.07    0.31 
   0   1  -1   13.35    0.30 
   0  -1   1   13.32    0.31 
   0  -1   1   14.02    0.31 
  -1   1  -1    6.96    0.20 
  -1   1  -1    6.54    0.19 
  -1   1  -1    6.92    0.21 
  -1   1  -1    6.77    0.15 
   1  -1   1    6.80    0.15 
   1  -1   1    6.70    0.19 
   1  -1   1    6.52    0.19 
   1  -1   1    6.73    0.21 
  -2   1  -1   29.31    0.71 
  -2   1  -1   29.38    0.68 
  -2   1  -1   28.84    0.70 
  -2   1  -1   29.10    0.70 
   2  -1   1   29.13    0.64 
   2  -1   1   29.11    0.72 
   2  -1   1   27.63    0.69 
   2  -1   1   29.10    0.67 
   2  -1   1   29.79    0.69 
  -3   1  -1    4.69    0.23 
  -3   1  -1    4.71    0.23 
  -3   1  -1    4.34    0.23 
  -3   1  -1    4.74    0.22 
   3  -1   1    5.20    0.26 
   3  -1   1    4.86    0.22 
   3  -1   1    5.03    0.24 
   3  -1   1    5.24    0.24 
  -4   1  -1    2.68    0.27 
  -4   1  -1    2.81    0.22 
   4  -1   1    2.46    0.20 
   4  -1   1    2.17    0.19 
   4  -1   1    2.47    0.19 
   4  -1   1    2.63    0.23 
  -5   1  -1    0.57    0.15 
   5  -1   1    0.36    0.13 
   5  -1   1    0.81    0.17 
   5  -1   1    0.48    0.14 
   5  -1   1    0.71    0.15 
  -6   1  -1    6.45    0.40 
   6  -1   1    5.94    0.38 
   6  -1   1    6.72    0.34 
   6  -1   1    7.13    0.39 
  -7   1  -1    5.10    0.39 
   7  -1   1    4.97    0.35 
   7  -1   1    4.70    0.36 
   7  -1   1    4.96    0.32 
   8  -1   1    0.72    0.17 
   8  -1   1    0.45    0.19 
   8  -1   1    0.43    0.19 
   9  -1   1    0.90    0.25 
   9  -1   1    0.59    0.24 
   9   0  -1    0.39    0.18 
   9   0  -1    0.34    0.19 
   9   0  -1    0.25    0.21 
   8   0  -1    0.66    0.21 
   8   0  -1    0.31    0.17 
   7   0  -1   -0.14    0.13 
   7   0  -1   -0.13    0.11 
  -7   0   1   -0.07    0.12 
   6   0  -1    9.94    0.49 
   6   0  -1    9.99    0.49 
   6   0  -1    9.98    0.48 
  -6   0   1   10.02    0.46 
   5   0  -1    0.74    0.15 
   5   0  -1    0.79    0.15 
   5   0  -1    0.77    0.17 
  -5   0   1    0.74    0.15 
   4   0  -1    1.00    0.14 
   4   0  -1    0.91    0.14 
   4   0  -1    0.83    0.15 
  -4   0   1    0.76    0.12 
   3   0  -1    0.04    0.08 
   3   0  -1    0.00    0.06 
   3   0  -1    0.00    0.06 
  -3   0   1    0.00    0.05 
  -3   0   1   -0.02    0.05 
  -3   0   1   -0.04    0.05 
  -3   0   1    0.03    0.06 
   2   0  -1    9.73    0.31 
   2   0  -1    9.51    0.30 
   2   0  -1    9.29    0.29 
  -2   0   1    9.04    0.29 
  -2   0   1    9.31    0.29 
  -2   0   1    9.53    0.29 
  -2   0   1    9.20    0.29 
   1   0  -1   31.06    0.69 
   1   0  -1   31.14    0.68 
   1   0  -1   31.94    0.68 
  -1   0   1   30.82    0.68 
  -1   0   1   31.94    0.68 
  -1   0   1   31.11    0.68 
  -1   0  -1   65.48    1.38 
  -1   0  -1   64.31    1.37 
  -1   0  -1   65.93    1.38 
  -1   0  -1   66.64    1.38 
  -1   0  -1   67.62    1.37 
  -1   0  -1   67.72    1.38 
   1   0   1   66.47    1.38 
   1   0   1   65.67    1.38 
   1   0   1   66.65    1.38 
   1   0   1   67.73    1.37 
   1   0   1   67.29    1.37 
  -2   0  -1   26.60    0.63 
  -2   0  -1   24.62    0.62 
  -2   0  -1   25.42    0.62 
   2   0   1   26.36    0.62 
   2   0   1   25.64    0.64 
   2   0   1   26.11    0.62 
   2   0   1   25.27    0.62 
  -3   0  -1  107.58    2.33 
  -3   0  -1  108.34    2.34 
  -3   0  -1  109.07    2.34 
  -3   0  -1  112.16    2.35 
   3   0   1  111.38    2.36 
   3   0   1  107.20    2.34 
   3   0   1  108.46    2.33 
   3   0   1  110.77    2.33 
  -4   0  -1   10.47    0.41 
   4   0   1   10.92    0.42 
   4   0   1   11.17    0.41 
   4   0   1   11.61    0.45 
   4   0   1   11.05    0.41 
  -5   0  -1    0.18    0.11 
   5   0   1    0.23    0.13 
   5   0   1    0.08    0.11 
   5   0   1    0.15    0.11 
   5   0   1    0.03    0.12 
  -6   0  -1   -0.09    0.12 
   6   0   1   -0.19    0.10 
   6   0   1    0.02    0.11 
   6   0   1   -0.01    0.14 
   6   0   1   -0.02    0.13 
   6   0   1    0.12    0.15 
  -7   0  -1    2.70    0.30 
   7   0   1    1.82    0.25 
   7   0   1    3.36    0.30 
   7   0   1    2.40    0.28 
   8   0   1   -0.03    0.15 
   8   0   1    0.17    0.14 
   8   0   1    0.18    0.17 
   9  -1  -1    0.25    0.20 
   9  -1  -1    0.54    0.19 
   9  -1  -1    0.24    0.20 
   8  -1  -1    0.01    0.17 
   8  -1  -1   -0.08    0.14 
   7  -1  -1   -0.06    0.13 
   7  -1  -1    0.06    0.15 
  -7   1   1    0.06    0.14 
   6  -1  -1    2.51    0.29 
   6  -1  -1    2.62    0.27 
  -6   1   1    2.67    0.28 
   5  -1  -1    0.42    0.13 
   5  -1  -1    0.46    0.15 
   5  -1  -1    0.83    0.15 
  -5   1   1    0.47    0.14 
   4  -1  -1    3.62    0.25 
   4  -1  -1    4.24    0.24 
   4  -1  -1    4.32    0.26 
  -4   1   1    4.30    0.32 
  -4   1   1    3.85    0.25 
   3  -1  -1   66.72    1.48 
   3  -1  -1   66.54    1.51 
   3  -1  -1   66.51    1.52 
  -3   1   1   67.74    1.52 
  -3   1   1   67.32    1.51 
  -3   1   1   65.93    1.49 
  -3   1   1   66.92    1.52 
   2  -1  -1   10.40    0.33 
   2  -1  -1   10.08    0.32 
   2  -1  -1   10.16    0.30 
  -2   1   1   10.38    0.33 
  -2   1   1   10.53    0.33 
  -2   1   1   10.67    0.30 
   1  -1  -1  125.13    2.62 
   1  -1  -1  126.78    2.63 
   1  -1  -1  130.34    2.59 
  -1   1   1  132.58    2.63 
  -1   1   1  128.71    2.63 
  -1   1   1  128.73    2.59 
   0  -1  -1    0.03    0.02 
   0  -1  -1   -0.02    0.03 
   0  -1  -1   -0.06    0.03 
   0  -1  -1   -0.01    0.03 
   0  -1  -1    0.06    0.03 
   0  -1  -1    0.13    0.04 
   0   1   1    0.05    0.03 
   0   1   1    0.01    0.03 
   0   1   1    0.01    0.03 
   0   1   1    0.03    0.03 
   0   1   1    0.00    0.03 
  -1  -1  -1    1.49    0.08 
  -1  -1  -1    1.52    0.08 
  -1  -1  -1    1.43    0.09 
  -1  -1  -1    1.51    0.08 
  -1  -1  -1    1.50    0.08 
   1   1   1    1.50    0.08 
   1   1   1    1.51    0.10 
   1   1   1    1.36    0.08 
   1   1   1    1.61    0.08 
   1   1   1    1.45    0.08 
   1   1   1    1.42    0.10 
  -2  -1  -1    4.24    0.17 
  -2  -1  -1    3.95    0.19 
  -2  -1  -1    4.35    0.16 
  -2  -1  -1    4.04    0.17 
   2   1   1    4.19    0.18 
   2   1   1    3.85    0.17 
   2   1   1    4.09    0.17 
   2   1   1    4.12    0.19 
  -3  -1  -1    0.55    0.08 
  -3  -1  -1    0.59    0.09 
  -3  -1  -1    0.55    0.10 
  -3  -1  -1    0.92    0.11 
   3   1   1    0.64    0.10 
   3   1   1    0.75    0.11 
   3   1   1    0.47    0.09 
   3   1   1    0.53    0.11 
  -4  -1  -1    0.88    0.13 
   4   1   1    0.67    0.12 
   4   1   1    0.64    0.12 
   4   1   1    0.70    0.14 
   4   1   1    0.76    0.12 
  -5  -1  -1    5.19    0.29 
   5   1   1    4.68    0.32 
   5   1   1    4.86    0.32 
   5   1   1    4.82    0.29 
   5   1   1    4.26    0.28 
  -6  -1  -1    5.57    0.34 
   6   1   1    4.97    0.38 
   6   1   1    5.23    0.34 
   6   1   1    5.30    0.35 
   6   1   1    5.18    0.34 
   6   1   1    5.43    0.35 
  -7  -1  -1    1.29    0.20 
   7   1   1    1.26    0.23 
   7   1   1    1.39    0.25 
   7   1   1    1.28    0.22 
   8   1   1   -0.14    0.17 
   8   1   1    0.08    0.15 
   8   1   1   -0.06    0.13 
   9  -2  -1   -0.04    0.16 
   9  -2  -1   -0.12    0.17 
   8  -2  -1    0.90    0.21 
   8  -2  -1    0.85    0.22 
  -8   2   1    0.78    0.23 
   7  -2  -1    0.59    0.19 
   7  -2  -1    0.88    0.20 
  -7   2   1    1.01    0.23 
   6  -2  -1    0.26    0.16 
   6  -2  -1    0.00    0.14 
  -6   2   1    0.09    0.14 
   5  -2  -1    0.32    0.14 
   5  -2  -1    0.12    0.11 
  -5   2   1    0.47    0.16 
   4  -2  -1    2.85    0.22 
   4  -2  -1    2.46    0.21 
   4  -2  -1    2.74    0.19 
  -4   2   1    2.62    0.22 
  -4   2   1    2.61    0.22 
   3  -2  -1    0.13    0.07 
   3  -2  -1    0.23    0.09 
   3  -2  -1    0.21    0.08 
  -3   2   1    0.31    0.08 
  -3   2   1    0.23    0.07 
  -3   2   1    0.18    0.09 
  -3   2   1    0.02    0.07 
   2  -2  -1    1.17    0.12 
   2  -2  -1    1.21    0.12 
   2  -2  -1    1.48    0.10 
  -2   2   1    1.31    0.13 
  -2   2   1    1.35    0.10 
  -2   2   1    1.39    0.13 
   1  -2  -1   48.01    1.05 
   1  -2  -1   49.11    1.00 
   1  -2  -1   48.81    1.05 
  -1   2   1   48.56    1.06 
  -1   2   1   48.21    1.00 
  -1   2   1   48.56    1.06 
  -1   2   1   48.92    1.00 
   0  -2  -1  480.94    9.00 
   0  -2  -1  405.18    8.99 
   0  -2  -1  432.89    8.99 
   0  -2  -1  432.74    9.00 
   0  -2  -1  477.03    8.98 
   0   2   1  474.74    9.04 
   0   2   1  464.59    8.99 
   0   2   1  427.93    9.10 
   0   2   1  460.57    8.96 
  -1  -2  -1    2.09    0.06 
  -1  -2  -1    2.01    0.07 
  -1  -2  -1    1.98    0.08 
   1   2   1    1.96    0.12 
   1   2   1    1.95    0.12 
   1   2   1    2.06    0.08 
   1   2   1    1.86    0.14 
   1   2   1    1.98    0.08 
   1   2   1    2.00    0.08 
   1   2   1    1.96    0.08 
   1   2   1    1.95    0.08 
  -2  -2  -1   11.06    0.35 
  -2  -2  -1   10.92    0.29 
  -2  -2  -1   10.64    0.27 
  -2  -2  -1   10.67    0.28 
  -2  -2  -1   10.91    0.29 
   2   2   1   10.66    0.30 
   2   2   1   10.56    0.35 
   2   2   1   10.59    0.30 
   2   2   1   10.56    0.30 
  -3  -2  -1   10.99    0.34 
  -3  -2  -1   11.04    0.32 
  -3  -2  -1   11.39    0.34 
  -3  -2  -1   11.21    0.33 
   3   2   1   10.41    0.36 
   3   2   1   10.92    0.35 
   3   2   1   10.47    0.36 
   3   2   1   11.29    0.40 
  -4  -2  -1   10.25    0.35 
  -4  -2  -1    9.51    0.35 
   4   2   1    9.20    0.39 
   4   2   1    8.80    0.37 
   4   2   1    8.93    0.35 
   4   2   1    9.02    0.36 
  -5  -2  -1    0.54    0.12 
  -5  -2  -1    0.50    0.12 
   5   2   1    0.80    0.17 
   5   2   1    0.50    0.13 
   5   2   1    0.44    0.13 
   5   2   1    0.52    0.16 
  -6  -2  -1    0.04    0.08 
  -6  -2  -1    0.00    0.09 
   6   2   1    0.00    0.12 
   6   2   1   -0.15    0.11 
   6   2   1    0.27    0.17 
   6   2   1    0.13    0.12 
  -7  -2  -1   -0.02    0.10 
   7   2   1   -0.16    0.11 
   7   2   1    0.06    0.14 
   7   2   1    0.10    0.15 
  -8  -2  -1    0.17    0.14 
   8   2   1    0.12    0.22 
   8   2   1    0.61    0.19 
   8   2   1    0.37    0.20 
   9  -3  -1   -0.08    0.16 
   9  -3  -1    0.14    0.18 
   8  -3  -1    0.37    0.19 
   8  -3  -1    0.67    0.21 
  -8   3   1    0.79    0.23 
   7  -3  -1   -0.06    0.11 
   7  -3  -1   -0.01    0.12 
  -7   3   1   -0.05    0.14 
   6  -3  -1   15.45    0.64 
   6  -3  -1   15.35    0.56 
  -6   3   1   14.82    0.63 
   5  -3  -1    8.33    0.42 
   5  -3  -1    8.57    0.36 
  -5   3   1    8.93    0.44 
   4  -3  -1    1.09    0.14 
   4  -3  -1    1.05    0.16 
  -4   3   1    0.83    0.15 
  -4   3   1    0.87    0.15 
   3  -3  -1    6.33    0.29 
   3  -3  -1    7.01    0.25 
   3  -3  -1    7.04    0.30 
  -3   3   1    6.69    0.25 
  -3   3   1    6.74    0.31 
  -3   3   1    6.41    0.31 
   2  -3  -1   53.57    1.10 
   2  -3  -1   53.27    1.21 
   2  -3  -1   52.82    1.14 
   2  -3  -1   54.34    1.20 
  -2   3   1   52.03    1.15 
  -2   3   1   54.64    1.23 
   1  -3  -1   36.22    0.79 
   1  -3  -1   36.78    0.81 
   1  -3  -1   37.25    0.81 
   1  -3  -1   34.69    0.80 
  -1   3   1   36.57    0.78 
  -1   3   1   37.50    0.78 
  -1   3   1   36.66    0.83 
  -1   3   1   35.85    0.83 
   0  -3  -1    2.25    0.12 
   0   3   1    2.40    0.10 
   0   3   1    2.33    0.13 
   0   3   1    2.51    0.13 
   0   3   1    2.34    0.10 
   1   3   1  134.82    2.72 
   1   3   1  137.16    2.72 
   1   3   1  133.31    2.72 
   1   3   1  136.29    2.72 
   1   3   1  140.54    2.84 
   1   3   1  135.70    2.82 
   1   3   1  132.57    2.80 
   1   3   1  134.43    2.72 
  -2  -3  -1    8.15    0.23 
   2   3   1    8.47    0.34 
   2   3   1    8.10    0.24 
   2   3   1    8.36    0.25 
   2   3   1    8.23    0.31 
   2   3   1    8.21    0.25 
  -3  -3  -1    8.32    0.21 
  -3  -3  -1    7.84    0.20 
  -3  -3  -1    8.26    0.22 
  -3  -3  -1    8.02    0.26 
  -3  -3  -1    8.04    0.23 
   3   3   1    8.12    0.28 
   3   3   1    7.86    0.34 
   3   3   1    7.82    0.28 
   3   3   1    8.21    0.30 
  -4  -3  -1    2.35    0.15 
  -4  -3  -1    2.42    0.17 
   4   3   1    2.02    0.19 
   4   3   1    2.95    0.27 
   4   3   1    2.25    0.18 
   4   3   1    2.31    0.19 
   4   3   1    2.09    0.23 
  -5  -3  -1   14.04    0.48 
  -5  -3  -1   14.49    0.45 
   5   3   1   14.74    0.53 
   5   3   1   14.94    0.59 
   5   3   1   14.54    0.51 
   5   3   1   13.95    0.55 
   5   3   1   14.20    0.58 
  -6  -3  -1    6.64    0.34 
   6   3   1    6.85    0.42 
   6   3   1    7.01    0.44 
   6   3   1    6.43    0.37 
   6   3   1    6.95    0.43 
  -7  -3  -1    0.11    0.11 
   7   3   1    0.68    0.20 
   7   3   1    0.21    0.14 
   7   3   1    0.23    0.19 
  -8  -3  -1    0.58    0.17 
   8   3   1    0.53    0.20 
   8   3   1    0.57    0.24 
   8  -4  -1    0.11    0.16 
   8  -4  -1    0.23    0.17 
  -8   4   1   -0.03    0.19 
   7  -4  -1   -0.05    0.13 
   7  -4  -1    0.16    0.15 
  -7   4   1    0.03    0.16 
   6  -4  -1   15.87    0.56 
   6  -4  -1   15.94    0.64 
  -6   4   1   15.11    0.66 
   5  -4  -1   19.35    0.68 
   5  -4  -1   20.38    0.61 
  -5   4   1   19.08    0.71 
   4  -4  -1    7.20    0.20 
   4  -4  -1    7.06    0.29 
   4  -4  -1    6.88    0.34 
  -4   4   1    7.73    0.39 
  -4   4   1    7.07    0.37 
   3  -4  -1    3.92    0.23 
   3  -4  -1    4.56    0.13 
   3  -4  -1    4.46    0.19 
  -3   4   1    4.24    0.26 
  -3   4   1    4.36    0.20 
  -3   4   1    4.58    0.26 
   2  -4  -1   28.47    0.64 
   2  -4  -1   29.12    0.71 
   2  -4  -1   28.69    0.71 
  -2   4   1   29.23    0.75 
  -2   4   1   27.75    0.66 
  -2   4   1   28.09    0.74 
   1  -4  -1   12.83    0.32 
   1  -4  -1   12.28    0.35 
  -1   4   1   12.33    0.37 
  -1   4   1   12.04    0.32 
  -1   4   1   12.53    0.37 
   0  -4  -1    8.08    0.28 
   0   4   1    8.19    0.27 
   0   4   1    7.73    0.23 
   0   4   1    8.29    0.23 
   0   4   1    8.23    0.28 
   1   4   1   24.06    0.53 
   1   4   1   23.88    0.52 
   1   4   1   24.02    0.52 
   1   4   1   24.31    0.64 
   1   4   1   23.85    0.52 
   1   4   1   24.89    0.54 
   1   4   1   25.56    0.67 
   2   4   1   28.65    0.64 
   2   4   1   29.04    0.77 
   2   4   1   27.77    0.65 
   2   4   1   28.54    0.77 
   2   4   1   28.45    0.65 
   2   4   1   29.98    0.80 
  -3  -4  -1    4.06    0.16 
   3   4   1    3.61    0.26 
   3   4   1    3.74    0.28 
   3   4   1    4.18    0.20 
   3   4   1    3.86    0.19 
   3   4   1    4.19    0.19 
  -4  -4  -1   -0.05    0.05 
   4   4   1   -0.15    0.07 
   4   4   1   -0.01    0.08 
   4   4   1   -0.18    0.12 
   4   4   1   -0.21    0.10 
   4   4   1    0.03    0.07 
  -5  -4  -1    0.63    0.11 
  -5  -4  -1    0.58    0.08 
   5   4   1    0.16    0.11 
   5   4   1    0.58    0.13 
   5   4   1    0.57    0.18 
   5   4   1    0.42    0.12 
   5   4   1    0.64    0.18 
  -6  -4  -1    2.68    0.22 
   6   4   1    2.98    0.31 
   6   4   1    2.53    0.25 
   6   4   1    3.17    0.34 
   6   4   1    2.56    0.32 
  -7  -4  -1    0.68    0.15 
   7   4   1    0.57    0.18 
   7   4   1    0.71    0.24 
   8  -5  -1    0.96    0.23 
   8  -5  -1    1.33    0.24 
  -8   5   1    0.93    0.28 
   7  -5  -1   -0.03    0.13 
   7  -5  -1    0.20    0.13 
  -7   5   1   -0.06    0.15 
   6  -5  -1    3.31    0.25 
   6  -5  -1    3.28    0.13 
   6  -5  -1    3.23    0.31 
  -6   5   1    3.89    0.39 
   5  -5  -1    0.70    0.05 
   5  -5  -1    0.85    0.14 
   5  -5  -1    0.46    0.14 
  -5   5   1    0.68    0.18 
   4  -5  -1    3.73    0.12 
   4  -5  -1    3.86    0.26 
   4  -5  -1    3.91    0.21 
  -4   5   1    4.04    0.31 
  -4   5   1    3.71    0.29 
   3  -5  -1    3.32    0.21 
   3  -5  -1    3.39    0.13 
  -3   5   1    2.96    0.24 
  -3   5   1    3.33    0.21 
  -3   5   1    3.20    0.23 
   2  -5  -1    4.68    0.20 
   2  -5  -1    4.77    0.21 
  -2   5   1    4.87    0.17 
  -2   5   1    4.49    0.19 
  -2   5   1    4.85    0.25 
  -2   5   1    4.94    0.25 
   1  -5  -1    0.32    0.04 
   1  -5  -1    0.21    0.06 
  -1   5   1    0.22    0.06 
  -1   5   1    0.23    0.07 
  -1   5   1    0.21    0.06 
   0   5   1   10.43    0.34 
   0   5   1   10.45    0.29 
   0   5   1   10.36    0.29 
   0   5   1   10.07    0.34 
   1   5   1   21.19    0.59 
   1   5   1   20.44    0.45 
   1   5   1   21.11    0.47 
   1   5   1   20.55    0.61 
   1   5   1   20.08    0.47 
   2   5   1   -0.04    0.07 
   2   5   1    0.00    0.03 
   2   5   1    0.00    0.10 
   2   5   1    0.03    0.03 
   2   5   1    0.07    0.09 
   2   5   1    0.03    0.04 
   3   5   1    0.15    0.07 
   3   5   1    0.18    0.06 
   3   5   1    0.13    0.06 
   3   5   1    0.29    0.11 
   3   5   1   -0.06    0.13 
   3   5   1    0.16    0.13 
  -4  -5  -1   11.56    0.34 
   4   5   1   10.98    0.42 
   4   5   1   12.08    0.54 
   4   5   1   11.98    0.41 
   4   5   1   11.18    0.39 
   4   5   1   12.71    0.54 
   4   5   1   12.39    0.51 
  -5  -5  -1    1.99    0.16 
   5   5   1    2.62    0.22 
   5   5   1    1.89    0.22 
   5   5   1    2.36    0.31 
   5   5   1    2.54    0.29 
  -6  -5  -1    0.12    0.07 
   6   5   1    0.29    0.13 
   6   5   1   -0.18    0.15 
   6   5   1    0.18    0.12 
   6   5   1    0.53    0.21 
  -7  -5  -1    0.04    0.11 
   7   5   1    0.11    0.14 
   7   5   1    0.19    0.22 
   8  -6  -1    1.18    0.22 
   8  -6  -1    0.99    0.23 
  -8   6   1    0.87    0.27 
   7  -6  -1    0.23    0.14 
   7  -6  -1    0.30    0.14 
  -7   6   1    0.41    0.20 
   6  -6  -1    7.06    0.41 
   6  -6  -1    6.63    0.34 
  -6   6   1    6.71    0.47 
   5  -6  -1   26.95    0.83 
  -5   6   1   25.93    0.90 
  -5   6   1   27.99    0.98 
   4  -6  -1    1.14    0.15 
  -4   6   1    0.75    0.17 
  -4   6   1    1.00    0.18 
   3  -6  -1    1.87    0.14 
   3  -6  -1    1.72    0.15 
  -3   6   1    1.86    0.21 
  -3   6   1    1.82    0.20 
   2  -6  -1    0.81    0.10 
   2  -6  -1    0.78    0.08 
  -2   6   1    0.83    0.10 
  -2   6   1    0.95    0.09 
  -2   6   1    0.97    0.13 
  -2   6   1    0.66    0.12 
   1  -6  -1   11.52    0.39 
  -1   6   1   10.93    0.37 
  -1   6   1   11.09    0.37 
  -1   6   1   10.81    0.34 
   0   6   1    0.38    0.09 
   0   6   1    0.47    0.07 
   0   6   1    0.34    0.08 
   0   6   1    0.38    0.07 
   1   6   1   10.60    0.28 
   1   6   1   10.50    0.41 
   1   6   1   10.38    0.28 
   1   6   1   10.78    0.39 
   2   6   1    0.82    0.07 
   2   6   1    1.20    0.18 
   2   6   1    0.89    0.18 
   2   6   1    0.97    0.08 
   2   6   1    1.20    0.16 
   2   6   1    0.81    0.07 
   3   6   1    3.95    0.19 
   3   6   1    3.71    0.31 
   3   6   1    3.18    0.29 
   3   6   1    3.45    0.16 
   3   6   1    3.63    0.17 
   3   6   1    3.48    0.26 
   4   6   1    0.09    0.08 
   4   6   1    0.09    0.07 
   4   6   1    0.32    0.17 
   4   6   1    0.21    0.08 
   4   6   1    0.35    0.18 
  -5  -6  -1    1.42    0.12 
   5   6   1    0.87    0.23 
   5   6   1    1.16    0.18 
   5   6   1    0.77    0.14 
   5   6   1    1.48    0.26 
  -6  -6  -1    0.19    0.10 
   6   6   1    0.16    0.11 
   6   6   1    0.45    0.23 
   7  -7  -1   -0.01    0.16 
  -7   7   1    0.24    0.21 
   6  -7  -1    0.36    0.14 
  -6   7   1    0.70    0.22 
   5  -7  -1    0.53    0.14 
  -5   7   1    0.20    0.15 
   4  -7  -1    3.57    0.23 
   4  -7  -1    3.57    0.21 
  -4   7   1    2.21    0.25 
   3  -7  -1    2.14    0.14 
   3  -7  -1    1.98    0.16 
  -3   7   1    1.77    0.21 
  -3   7   1    2.16    0.24 
  -3   7   1    2.28    0.24 
   2  -7  -1    2.32    0.18 
  -2   7   1    2.26    0.21 
  -2   7   1    2.12    0.20 
  -2   7   1    2.22    0.14 
   1  -7  -1    0.12    0.08 
  -1   7   1   -0.04    0.06 
  -1   7   1    0.16    0.08 
  -1   7   1    0.05    0.07 
   0   7   1    6.28    0.23 
   0   7   1    5.67    0.28 
   0   7   1    6.07    0.23 
   0   7   1    6.16    0.29 
   1   7   1    4.88    0.29 
   1   7   1    5.08    0.28 
   1   7   1    4.76    0.17 
   1   7   1    4.62    0.17 
   2   7   1    6.16    0.20 
   2   7   1    6.40    0.34 
   2   7   1    6.94    0.37 
   2   7   1    6.66    0.37 
   2   7   1    6.18    0.19 
   3   7   1    0.07    0.14 
   3   7   1    0.08    0.04 
   3   7   1    0.11    0.14 
   3   7   1   -0.03    0.05 
   3   7   1    0.03    0.11 
   3   7   1   -0.02    0.04 
   4   7   1    1.24    0.24 
   4   7   1    1.27    0.13 
   4   7   1    0.86    0.13 
   4   7   1    0.82    0.20 
   5   7   1    1.59    0.21 
   5   7   1    1.42    0.16 
   5   7   1    1.58    0.29 
  -7   8   1    1.76    0.35 
  -6   8   1    0.72    0.22 
   5  -8  -1    0.23    0.09 
  -5   8   1    0.31    0.17 
   4  -8  -1    3.36    0.22 
  -4   8   1    3.27    0.33 
   3  -8  -1    1.60    0.17 
  -3   8   1    1.75    0.21 
   2  -8  -1    2.94    0.22 
  -2   8   1    3.36    0.25 
  -2   8   1    2.76    0.17 
  -1   8   1   19.00    0.56 
  -1   8   1   17.90    0.53 
   0   8   1    1.11    0.15 
   0   8   1    0.97    0.11 
   0   8   1    1.13    0.15 
   1   8   1    0.19    0.05 
   1   8   1    0.22    0.10 
   1   8   1    0.04    0.10 
   2   8   1    0.03    0.12 
   2   8   1   -0.02    0.03 
   2   8   1    0.19    0.13 
   2   8   1   -0.01    0.10 
   3   8   1    0.63    0.09 
   3   8   1    0.65    0.07 
   3   8   1    1.24    0.23 
   3   8   1    1.02    0.21 
   4   8   1    0.31    0.19 
   4   8   1    0.16    0.07 
   4   8   1    0.46    0.10 
   5   8   1    0.13    0.19 
  -6   9   1    0.10    0.20 
  -5   9   1    0.24    0.17 
  -4   9   1    0.04    0.12 
   3  -9  -1    0.50    0.12 
  -3   9   1    0.37    0.13 
  -2   9   1    0.01    0.09 
  -2   9   1    0.03    0.09 
  -1   9   1    2.04    0.18 
  -1   9   1    2.02    0.18 
   0   9   1    0.05    0.10 
   0   9   1    0.07    0.05 
   1   9   1    0.46    0.15 
   1   9   1    0.51    0.07 
   1   9   1    0.50    0.16 
   2   9   1    0.27    0.14 
   2   9   1    0.56    0.18 
   3   9   1   -0.01    0.16 
  -4  10   1    0.44    0.15 
  -3  10   1    0.15    0.12 
  -2  10   1    0.19    0.10 
  -1  10   1    0.92    0.14 
   0  10   1    0.08    0.10 
   0  10   1    0.01    0.05 
   1  10   1    0.17    0.05 
   1  10   1    0.24    0.13 
   1  10   1    0.08    0.15 
   2  10   1   -0.03    0.17 
   2  10  -2    0.05    0.14 
   2  10  -2    0.07    0.19 
   1  10  -2    0.26    0.14 
   0  10  -2    0.56    0.09 
  -1  10  -2    0.05    0.09 
  -2  10  -2   -0.03    0.09 
  -3  10  -2    0.28    0.13 
  -4  10  -2    0.42    0.15 
   3   9  -2    0.28    0.20 
   3   9  -2    0.51    0.19 
   2   9  -2    0.36    0.16 
   1   9  -2    0.13    0.13 
   1   9  -2    0.09    0.09 
   0   9  -2    9.72    0.41 
   0   9  -2    8.87    0.31 
   0   9  -2    9.35    0.35 
   0   9  -2    9.09    0.37 
  -1   9  -2    1.11    0.14 
  -1   9  -2    1.16    0.15 
  -2   9  -2    0.96    0.17 
  -3   9  -2    0.85    0.17 
  -4   9  -2    0.30    0.13 
  -5   9  -2    0.07    0.15 
  -6   9  -2    0.22    0.20 
   5   8  -2    0.49    0.24 
   5   8  -2    0.08    0.08 
   4   8  -2   -0.20    0.22 
   4   8  -2    0.00    0.06 
   4   8  -2    0.27    0.20 
   3   8  -2    0.74    0.07 
   3   8  -2    0.48    0.22 
   3   8  -2    0.87    0.22 
   2   8  -2    2.36    0.27 
   2   8  -2    2.16    0.21 
   1   8  -2    1.29    0.20 
   1   8  -2    1.10    0.07 
   1   8  -2    1.05    0.07 
   1   8  -2    1.18    0.16 
   0   8  -2   -0.09    0.06 
   0   8  -2    0.04    0.10 
   0   8  -2    0.02    0.06 
   0   8  -2   -0.08    0.05 
   0   8  -2   -0.02    0.06 
  -1   8  -2    1.53    0.16 
  -1   8  -2    1.38    0.15 
  -1   8  -2    1.77    0.17 
  -2   8  -2    0.43    0.12 
  -2   8  -2    0.45    0.07 
  -3   8  -2    2.46    0.25 
  -4   8  -2    0.05    0.13 
  -5   8  -2   -0.07    0.13 
  -6   8  -2    0.04    0.17 
  -7   8  -2    0.13    0.20 
   6   7  -2    0.21    0.13 
   6   7  -2    0.61    0.23 
   5   7  -2    0.78    0.14 
   5   7  -2    1.09    0.28 
   4   7  -2    0.71    0.22 
   4   7  -2    0.59    0.10 
   3   7  -2    0.13    0.05 
   3   7  -2    0.32    0.17 
   3   7  -2    0.02    0.10 
   3   7  -2    0.03    0.05 
   2   7  -2    3.98    0.26 
   1   7  -2    0.02    0.03 
   1   7  -2    0.05    0.07 
   1   7  -2    0.05    0.03 
   1   7  -2    0.11    0.03 
   0   7  -2    3.73    0.16 
   0   7  -2    3.53    0.24 
   0   7  -2    3.44    0.17 
   0   7  -2    3.55    0.17 
   0   7  -2    3.68    0.20 
  -1   7  -2    0.11    0.07 
  -1   7  -2   -0.03    0.05 
  -1   7  -2    0.06    0.07 
  -1   7  -2   -0.03    0.07 
  -2   7  -2    0.03    0.08 
  -2   7  -2    0.12    0.07 
  -2   7  -2    0.06    0.09 
  -2   7  -2    0.02    0.08 
  -2   7  -2    0.01    0.04 
  -3   7  -2    1.47    0.19 
  -3   7  -2    1.27    0.18 
  -3   7  -2    1.26    0.16 
  -3   7  -2    1.84    0.21 
   3  -7   2    1.59    0.12 
   3  -7   2    1.29    0.11 
  -4   7  -2   22.96    0.78 
   4  -7   2   21.43    0.62 
   4  -7   2   21.99    0.55 
  -5   7  -2    2.76    0.32 
   5  -7   2    2.49    0.15 
   5  -7   2    2.34    0.23 
  -6   7  -2    1.15    0.24 
   6  -7   2    0.80    0.16 
  -7   7  -2    1.13    0.28 
   6   6  -2    1.13    0.27 
   6   6  -2    0.57    0.16 
  -6  -6   2    0.62    0.11 
   5   6  -2    0.85    0.15 
   5   6  -2    1.33    0.29 
  -5  -6   2    1.09    0.09 
   4   6  -2    0.04    0.07 
   4   6  -2    0.17    0.16 
   4   6  -2   -0.03    0.06 
   3   6  -2    0.17    0.06 
   3   6  -2   -0.12    0.12 
   3   6  -2    0.10    0.05 
   2   6  -2    0.36    0.04 
   2   6  -2    0.28    0.04 
   2   6  -2    0.28    0.10 
   1   6  -2    8.73    0.34 
   1   6  -2    9.06    0.23 
   1   6  -2    9.15    0.21 
   1   6  -2    8.82    0.22 
   0   6  -2    0.67    0.09 
   0   6  -2    0.78    0.08 
   0   6  -2    0.83    0.07 
   0   6  -2    0.74    0.07 
  -1   6  -2    0.02    0.05 
  -1   6  -2   -0.06    0.06 
  -1   6  -2   -0.03    0.06 
  -1   6  -2    0.01    0.04 
  -1   6  -2   -0.12    0.05 
  -2   6  -2    0.92    0.13 
  -2   6  -2    1.02    0.14 
  -2   6  -2    0.81    0.13 
  -2   6  -2    0.79    0.11 
  -2   6  -2    0.72    0.06 
   2  -6   2    0.85    0.07 
  -3   6  -2    4.93    0.30 
  -3   6  -2    5.05    0.30 
  -3   6  -2    5.39    0.30 
   3  -6   2    5.15    0.22 
   3  -6   2    5.24    0.19 
  -4   6  -2   -0.05    0.10 
  -4   6  -2   -0.02    0.12 
   4  -6   2    0.09    0.07 
   4  -6   2    0.04    0.04 
  -5   6  -2    1.15    0.24 
   5  -6   2    1.01    0.16 
  -6   6  -2    0.55    0.19 
   6  -6   2    0.16    0.13 
  -7   6  -2    2.02    0.33 
   7  -6   2    2.14    0.28 
   7  -6   2    2.39    0.27 
  -8   6  -2    0.61    0.27 
   8  -6   2    0.34    0.16 
   8  -6   2    0.11    0.15 
   7   5  -2    0.51    0.17 
   7   5  -2    0.53    0.23 
  -7  -5   2    0.66    0.16 
   6   5  -2    0.40    0.14 
   6   5  -2    0.53    0.21 
  -6  -5   2    0.42    0.11 
   5   5  -2    0.33    0.17 
   5   5  -2    0.50    0.12 
  -5  -5   2    0.37    0.09 
   4   5  -2    2.37    0.29 
   4   5  -2    2.33    0.18 
   4   5  -2    2.23    0.19 
  -4  -5   2    2.63    0.14 
   3   5  -2    5.32    0.22 
   3   5  -2    5.16    0.34 
   3   5  -2    5.68    0.23 
  -3  -5   2    5.63    0.16 
   2   5  -2    9.54    0.26 
   2   5  -2    9.63    0.25 
   1   5  -2    1.07    0.12 
   1   5  -2    1.02    0.06 
   0   5  -2    0.20    0.04 
   0   5  -2    0.30    0.05 
   0   5  -2    0.32    0.04 
   0   5  -2    0.18    0.05 
   0   5  -2    0.26    0.05 
  -1   5  -2    7.64    0.27 
  -1   5  -2    8.09    0.29 
  -1   5  -2    8.04    0.26 
  -1   5  -2    8.00    0.27 
  -2   5  -2    1.12    0.14 
  -2   5  -2    1.07    0.14 
  -2   5  -2    1.11    0.06 
  -2   5  -2    1.17    0.13 
  -2   5  -2    1.41    0.13 
   2  -5   2    1.36    0.08 
   2  -5   2    1.28    0.10 
  -3   5  -2    0.08    0.09 
  -3   5  -2    0.06    0.08 
  -3   5  -2   -0.16    0.07 
   3  -5   2    0.04    0.03 
   3  -5   2    0.02    0.06 
  -4   5  -2   24.45    0.80 
  -4   5  -2   24.90    0.79 
   4  -5   2   25.85    0.72 
  -5   5  -2   34.44    1.07 
   5  -5   2   36.16    0.98 
   5  -5   2   35.70    0.95 
  -6   5  -2    0.72    0.21 
   6  -5   2    0.85    0.18 
   6  -5   2    0.70    0.17 
  -7   5  -2   -0.18    0.15 
   7  -5   2   -0.15    0.11 
   7  -5   2   -0.01    0.12 
  -8   5  -2    0.35    0.22 
   8  -5   2    0.62    0.20 
   8  -5   2    0.37    0.17 
   7   4  -2    2.22    0.27 
   7   4  -2    1.90    0.32 
   6   4  -2    0.92    0.23 
   6   4  -2    0.89    0.18 
   5   4  -2    0.92    0.21 
   5   4  -2    1.00    0.16 
   5   4  -2    1.14    0.17 
   4   4  -2    1.81    0.24 
   4   4  -2    1.47    0.15 
   4   4  -2    1.62    0.17 
   3   4  -2    0.41    0.08 
   3   4  -2    0.47    0.08 
   3   4  -2    0.22    0.12 
   2   4  -2   42.45    0.91 
   2   4  -2   41.51    0.90 
   1   4  -2    2.58    0.09 
   0   4  -2   23.07    0.51 
   0   4  -2   23.35    0.51 
   0   4  -2   22.66    0.54 
   0   4  -2   22.33    0.51 
   0   4  -2   22.72    0.53 
  -1   4  -2   34.07    0.81 
  -1   4  -2   35.42    0.79 
  -1   4  -2   34.94    0.80 
  -1   4  -2   34.03    0.79 
   1  -4   2   34.57    0.75 
  -2   4  -2   12.26    0.40 
  -2   4  -2   12.94    0.40 
  -2   4  -2   12.70    0.42 
   2  -4   2   12.36    0.30 
   2  -4   2   13.32    0.36 
   2  -4   2   12.66    0.40 
  -3   4  -2   14.51    0.49 
  -3   4  -2   13.85    0.49 
  -3   4  -2   14.24    0.49 
   3  -4   2   14.06    0.44 
  -4   4  -2   13.15    0.50 
  -4   4  -2   12.73    0.51 
   4  -4   2   12.45    0.43 
   4  -4   2   13.16    0.46 
  -5   4  -2   15.11    0.62 
   5  -4   2   16.39    0.55 
   5  -4   2   15.81    0.35 
   5  -4   2   16.15    0.58 
  -6   4  -2    0.14    0.15 
   6  -4   2   -0.18    0.10 
   6  -4   2   -0.08    0.11 
   6  -4   2    0.08    0.04 
  -7   4  -2    0.27    0.18 
   7  -4   2    0.32    0.15 
   7  -4   2    0.42    0.17 
  -8   4  -2    0.10    0.20 
   8  -4   2    0.09    0.16 
   8  -4   2    0.03    0.16 
   8   3  -2    0.06    0.14 
   8   3  -2    0.02    0.18 
   7   3  -2    0.03    0.13 
   7   3  -2    0.10    0.19 
   6   3  -2    0.72    0.16 
   6   3  -2    0.53    0.20 
   5   3  -2    4.30    0.34 
   5   3  -2    3.91    0.28 
   5   3  -2    3.70    0.26 
  -5  -3   2    3.82    0.20 
   4   3  -2    3.80    0.29 
   4   3  -2    3.51    0.23 
   4   3  -2    3.38    0.22 
  -4  -3   2    3.44    0.14 
  -4  -3   2    3.48    0.16 
   3   3  -2    0.99    0.16 
   3   3  -2    1.01    0.11 
   3   3  -2    1.18    0.12 
  -3  -3   2    1.24    0.07 
  -3  -3   2    1.21    0.07 
   2   3  -2    0.14    0.04 
   2   3  -2    0.06    0.04 
   1   3  -2  103.07    2.08 
  -1  -3   2  102.22    2.07 
   0   3  -2    0.03    0.02 
   0   3  -2    0.02    0.02 
   0   3  -2    0.06    0.03 
   0   3  -2    0.01    0.02 
   0  -3   2   -0.01    0.02 
  -1   3  -2   -0.01    0.04 
  -1   3  -2    0.01    0.04 
  -1   3  -2    0.00    0.04 
  -1   3  -2   -0.01    0.03 
   1  -3   2   -0.04    0.02 
   1  -3   2    0.03    0.04 
   1  -3   2    0.01    0.03 
  -2   3  -2    5.58    0.21 
  -2   3  -2    5.53    0.24 
  -2   3  -2    5.68    0.23 
  -2   3  -2    5.33    0.23 
   2  -3   2    5.88    0.25 
   2  -3   2    5.71    0.22 
   2  -3   2    5.67    0.21 
  -3   3  -2   21.41    0.61 
  -3   3  -2   20.35    0.61 
  -3   3  -2   20.39    0.61 
   3  -3   2   19.64    0.62 
   3  -3   2   20.90    0.58 
   3  -3   2   20.37    0.57 
   3  -3   2   20.53    0.56 
  -4   3  -2    0.90    0.16 
  -4   3  -2    0.88    0.15 
   4  -3   2    1.08    0.07 
   4  -3   2    0.87    0.13 
   4  -3   2    0.83    0.15 
   4  -3   2    0.98    0.14 
  -5   3  -2    1.52    0.23 
   5  -3   2    1.31    0.11 
   5  -3   2    1.50    0.19 
   5  -3   2    1.14    0.17 
  -6   3  -2    2.98    0.34 
   6  -3   2    2.77    0.16 
   6  -3   2    2.63    0.27 
   6  -3   2    2.42    0.27 
  -7   3  -2    4.52    0.39 
   7  -3   2    3.93    0.33 
   7  -3   2    4.73    0.35 
   7  -3   2    4.47    0.23 
  -8   3  -2    0.17    0.20 
   8  -3   2    0.05    0.14 
   8  -3   2    0.35    0.18 
   8   2  -2    0.20    0.19 
   8   2  -2    0.18    0.15 
   7   2  -2    0.14    0.14 
   7   2  -2    0.45    0.19 
   6   2  -2    3.40    0.35 
   6   2  -2    2.95    0.29 
  -6  -2   2    3.00    0.23 
   5   2  -2   -0.10    0.09 
   5   2  -2    0.06    0.10 
   5   2  -2   -0.24    0.13 
  -5  -2   2   -0.11    0.07 
   4   2  -2    0.49    0.11 
   4   2  -2    0.47    0.11 
   4   2  -2    0.56    0.16 
  -4  -2   2    0.54    0.09 
   3   2  -2    9.52    0.38 
   3   2  -2    9.57    0.33 
   3   2  -2    9.11    0.33 
  -3  -2   2    9.29    0.30 
  -3  -2   2    9.42    0.29 
  -3  -2   2    9.66    0.28 
   2   2  -2    0.37    0.06 
   2   2  -2    0.44    0.06 
  -2  -2   2    0.49    0.05 
  -2  -2   2    0.42    0.06 
  -2  -2   2    0.51    0.05 
   1   2  -2   49.38    1.04 
   1   2  -2   48.73    1.03 
  -1  -2   2   50.05    1.01 
   0   2  -2  257.26    5.89 
   0   2  -2  311.57    5.72 
   0   2  -2  287.47    5.71 
   0   2  -2  261.05    5.75 
   0  -2   2  309.14    5.72 
   0  -2   2  293.15    5.80 
  -1   2  -2    0.22    0.05 
  -1   2  -2    0.25    0.05 
  -1   2  -2    0.25    0.06 
  -1   2  -2    0.20    0.05 
   1  -2   2    0.17    0.04 
   1  -2   2    0.12    0.05 
   1  -2   2    0.18    0.04 
  -2   2  -2   10.75    0.34 
  -2   2  -2   11.34    0.35 
  -2   2  -2   10.93    0.32 
  -2   2  -2   11.90    0.35 
  -2   2  -2   10.64    0.35 
  -2   2  -2   10.92    0.26 
   2  -2   2   10.37    0.35 
   2  -2   2   11.03    0.33 
   2  -2   2   10.83    0.32 
   2  -2   2   10.78    0.25 
   2  -2   2   10.19    0.32 
  -3   2  -2   49.38    1.20 
  -3   2  -2   50.76    1.25 
  -3   2  -2   51.13    1.21 
  -3   2  -2   51.14    1.21 
   3  -2   2   52.15    1.24 
   3  -2   2   51.56    1.07 
   3  -2   2   51.96    1.18 
   3  -2   2   51.23    1.16 
   3  -2   2   48.72    1.18 
  -4   2  -2    0.47    0.12 
  -4   2  -2    0.59    0.13 
   4  -2   2    0.54    0.11 
   4  -2   2    0.57    0.11 
   4  -2   2    0.42    0.11 
   4  -2   2    0.55    0.07 
   4  -2   2    0.43    0.13 
  -5   2  -2    1.77    0.22 
   5  -2   2    1.79    0.21 
   5  -2   2    1.61    0.22 
   5  -2   2    2.16    0.22 
   5  -2   2    1.94    0.15 
  -6   2  -2   -0.04    0.13 
   6  -2   2   -0.04    0.11 
   6  -2   2    0.06    0.08 
   6  -2   2   -0.08    0.11 
   6  -2   2   -0.06    0.13 
  -7   2  -2    2.85    0.33 
   7  -2   2    3.20    0.32 
   7  -2   2    2.93    0.22 
   7  -2   2    3.49    0.34 
  -8   2  -2    0.91    0.24 
   8  -2   2    1.04    0.22 
   8  -2   2    0.60    0.14 
   8  -2   2    0.85    0.20 
   9  -2   2    0.61    0.23 
   9  -2   2    0.71    0.24 
   8   1  -2    0.54    0.23 
   8   1  -2    0.19    0.16 
   7   1  -2    0.60    0.19 
   7   1  -2    0.79    0.22 
   6   1  -2    0.02    0.12 
   6   1  -2    0.19    0.17 
   6   1  -2    0.02    0.12 
  -6  -1   2    0.15    0.11 
   5   1  -2    2.11    0.23 
   5   1  -2    2.29    0.24 
   5   1  -2    2.33    0.26 
  -5  -1   2    1.84    0.19 
   4   1  -2   22.02    0.68 
   4   1  -2   22.30    0.67 
   4   1  -2   22.57    0.65 
  -4  -1   2   22.84    0.63 
   3   1  -2   18.42    0.54 
   3   1  -2   19.94    0.57 
   3   1  -2   19.13    0.53 
  -3  -1   2   18.31    0.51 
  -3  -1   2   19.22    0.53 
  -3  -1   2   18.57    0.51 
   2   1  -2    9.95    0.31 
   2   1  -2   10.23    0.31 
   2   1  -2    9.92    0.33 
  -2  -1   2   10.03    0.29 
   1   1  -2  340.77    6.93 
   1   1  -2  344.60    6.91 
  -1  -1   2  338.95    6.82 
   0   1  -2   43.11    0.90 
   0   1  -2   42.37    0.89 
   0   1  -2   41.53    0.89 
   0  -1   2   42.44    0.89 
  -1   1  -2    1.97    0.11 
  -1   1  -2    2.00    0.08 
  -1   1  -2    2.19    0.11 
  -1   1  -2    2.03    0.10 
  -1   1  -2    1.98    0.11 
  -1   1  -2    2.27    0.10 
   1  -1   2    2.18    0.10 
   1  -1   2    2.26    0.12 
   1  -1   2    2.29    0.12 
   1  -1   2    2.01    0.10 
   1  -1   2    2.11    0.10 
   1  -1   2    2.13    0.07 
  -2   1  -2    0.02    0.04 
  -2   1  -2    0.05    0.04 
  -2   1  -2    0.03    0.05 
  -2   1  -2    0.04    0.05 
  -2   1  -2   -0.01    0.04 
  -2   1  -2    0.02    0.05 
   2  -1   2    0.05    0.05 
   2  -1   2    0.10    0.05 
   2  -1   2    0.07    0.05 
   2  -1   2    0.08    0.05 
   2  -1   2    0.01    0.03 
  -3   1  -2   24.53    0.66 
  -3   1  -2   24.32    0.63 
  -3   1  -2   24.38    0.66 
  -3   1  -2   23.54    0.65 
   3  -1   2   24.20    0.57 
   3  -1   2   23.44    0.62 
   3  -1   2   23.67    0.67 
   3  -1   2   23.44    0.64 
   3  -1   2   23.62    0.63 
  -4   1  -2    0.02    0.08 
   4  -1   2    0.05    0.07 
   4  -1   2    0.15    0.09 
   4  -1   2    0.06    0.06 
   4  -1   2    0.10    0.09 
   4  -1   2   -0.05    0.06 
  -5   1  -2    9.74    0.44 
   5  -1   2    8.96    0.46 
   5  -1   2    9.85    0.37 
   5  -1   2    9.82    0.43 
   5  -1   2    9.76    0.41 
   5  -1   2   10.20    0.42 
  -6   1  -2    0.40    0.15 
   6  -1   2    0.74    0.14 
   6  -1   2    0.55    0.16 
   6  -1   2    0.92    0.19 
   6  -1   2    0.67    0.19 
  -7   1  -2    0.43    0.15 
  -7   1  -2    0.10    0.15 
   7  -1   2    0.04    0.15 
   7  -1   2    0.35    0.16 
   7  -1   2    0.10    0.11 
   8  -1   2    1.51    0.26 
   8  -1   2    1.68    0.28 
   8  -1   2    2.02    0.23 
   9  -1   2    5.13    0.48 
   9   0  -2    0.55    0.21 
   9   0  -2    0.92    0.29 
   8   0  -2    0.67    0.23 
   8   0  -2    0.69    0.20 
   7   0  -2    2.34    0.29 
   7   0  -2    2.70    0.32 
  -7   0   2    2.25    0.27 
   6   0  -2    1.52    0.23 
   6   0  -2    2.03    0.26 
   6   0  -2    1.96    0.26 
  -6   0   2    1.86    0.23 
   5   0  -2    0.22    0.12 
   5   0  -2    0.40    0.13 
   5   0  -2    0.04    0.12 
  -5   0   2    0.19    0.11 
   4   0  -2    0.09    0.08 
   4   0  -2    0.27    0.09 
   4   0  -2    0.04    0.09 
  -4   0   2    0.07    0.08 
   3   0  -2    7.17    0.30 
   3   0  -2    7.02    0.29 
   3   0  -2    6.74    0.28 
  -3   0   2    6.82    0.29 
  -3   0   2    7.14    0.28 
  -3   0   2    7.65    0.29 
  -3   0   2    7.27    0.28 
   2   0  -2    1.57    0.12 
   2   0  -2    1.59    0.12 
  -2   0   2    1.71    0.11 
  -2   0   2    1.79    0.12 
  -2   0   2    1.83    0.13 
   1   0  -2    7.52    0.23 
   1   0  -2    7.81    0.23 
  -1   0   2    7.73    0.23 
   0   0  -2    0.71    0.06 
   0   0  -2    0.60    0.05 
   0   0  -2    0.57    0.06 
   0   0   2    0.63    0.05 
   0   0   2    0.55    0.05 
   0   0   2    0.67    0.05 
   0   0   2    0.59    0.05 
  -1   0  -2   44.74    0.94 
  -1   0  -2   44.24    0.93 
  -1   0  -2   42.31    0.93 
  -1   0  -2   42.37    0.91 
  -1   0  -2   44.63    0.93 
  -1   0  -2   42.21    0.91 
   1   0   2   42.30    0.91 
   1   0   2   44.20    0.91 
   1   0   2   42.38    0.92 
   1   0   2   42.93    0.92 
   1   0   2   41.07    0.93 
   1   0   2   43.40    0.91 
  -2   0  -2  140.94    3.01 
  -2   0  -2  149.80    3.03 
  -2   0  -2  150.48    3.03 
  -2   0  -2  146.71    3.03 
  -2   0  -2  148.34    3.03 
   2   0   2  146.32    3.04 
   2   0   2  146.72    2.99 
   2   0   2  144.17    3.01 
   2   0   2  147.67    3.02 
  -3   0  -2   61.03    1.39 
  -3   0  -2   60.94    1.39 
  -3   0  -2   60.94    1.38 
  -3   0  -2   63.33    1.40 
  -3   0  -2   60.61    1.39 
   3   0   2   62.35    1.36 
   3   0   2   61.35    1.38 
   3   0   2   59.71    1.41 
   3   0   2   60.86    1.39 
   3   0   2   61.34    1.37 
  -4   0  -2   22.63    0.66 
  -4   0  -2   22.42    0.65 
   4   0   2   22.48    0.66 
   4   0   2   21.49    0.68 
   4   0   2   22.90    0.65 
   4   0   2   22.39    0.64 
   4   0   2   22.48    0.62 
  -5   0  -2    0.57    0.15 
  -5   0  -2    0.58    0.13 
   5   0   2    0.53    0.15 
   5   0   2    0.66    0.14 
   5   0   2    0.58    0.13 
   5   0   2    0.37    0.12 
   5   0   2    0.45    0.14 
  -6   0  -2    0.66    0.16 
  -6   0  -2    0.65    0.17 
   6   0   2    0.35    0.14 
   6   0   2    0.55    0.16 
   6   0   2    0.54    0.17 
   6   0   2    0.75    0.16 
   6   0   2    0.32    0.17 
  -7   0  -2    0.11    0.14 
  -7   0  -2    0.08    0.11 
   7   0   2   -0.07    0.11 
   7   0   2    0.06    0.15 
   7   0   2    0.08    0.14 
   7   0   2    0.08    0.14 
   8   0   2    0.90    0.19 
   8   0   2    0.78    0.23 
   8   0   2    0.52    0.19 
   9  -1  -2    0.32    0.20 
   9  -1  -2    0.35    0.20 
   8  -1  -2    0.41    0.22 
   8  -1  -2    0.71    0.21 
   7  -1  -2    1.31    0.23 
   7  -1  -2    1.23    0.25 
  -7   1   2    1.35    0.23 
   6  -1  -2   14.15    0.56 
   6  -1  -2   13.66    0.59 
  -6   1   2   12.65    0.55 
   5  -1  -2   10.68    0.44 
   5  -1  -2   10.80    0.46 
   5  -1  -2   11.20    0.49 
  -5   1   2   10.66    0.45 
   4  -1  -2   55.98    1.38 
   4  -1  -2   56.03    1.32 
   4  -1  -2   55.20    1.35 
  -4   1   2   55.79    1.35 
   3  -1  -2    1.93    0.16 
   3  -1  -2    2.14    0.18 
   3  -1  -2    2.12    0.16 
  -3   1   2    1.97    0.16 
  -3   1   2    2.16    0.17 
  -3   1   2    1.91    0.15 
   2  -1  -2   56.51    1.23 
   2  -1  -2   58.47    1.27 
  -2   1   2   56.81    1.24 
  -2   1   2   56.72    1.27 
  -2   1   2   56.64    1.27 
   1  -1  -2  597.28   11.93 
   1  -1  -2  612.33   12.03 
   1  -1  -2  587.35   12.04 
  -1   1   2  589.73   11.92 
  -1   1   2  588.31   11.84 
  -1   1   2  597.29   11.95 
   0  -1  -2    4.29    0.15 
   0  -1  -2    4.26    0.15 
   0  -1  -2    4.18    0.14 
   0  -1  -2    4.24    0.14 
   0  -1  -2    4.27    0.14 
   0   1   2    4.32    0.10 
   0   1   2    4.40    0.15 
   0   1   2    4.06    0.14 
   0   1   2    4.47    0.14 
   0   1   2    4.49    0.15 
  -1  -1  -2    1.09    0.08 
  -1  -1  -2    1.25    0.08 
  -1  -1  -2    1.22    0.08 
  -1  -1  -2    1.24    0.08 
  -1  -1  -2    1.20    0.08 
  -1  -1  -2    1.14    0.09 
   1   1   2    1.23    0.09 
   1   1   2    0.86    0.08 
   1   1   2    1.18    0.09 
   1   1   2    1.28    0.09 
   1   1   2    1.18    0.08 
   1   1   2    1.27    0.08 
  -2  -1  -2    2.94    0.16 
  -2  -1  -2    2.86    0.14 
  -2  -1  -2    3.27    0.15 
  -2  -1  -2    2.51    0.14 
  -2  -1  -2    3.00    0.14 
   2   1   2    3.06    0.15 
   2   1   2    2.99    0.16 
   2   1   2    2.96    0.15 
   2   1   2    3.05    0.16 
   2   1   2    3.34    0.16 
  -3  -1  -2  135.91    2.97 
  -3  -1  -2  144.46    3.04 
  -3  -1  -2  145.43    3.01 
  -3  -1  -2  146.69    3.00 
  -3  -1  -2  145.39    3.01 
   3   1   2  144.68    3.02 
   3   1   2  135.51    3.02 
   3   1   2  143.44    3.01 
   3   1   2  144.65    3.01 
   3   1   2  146.60    3.00 
  -4  -1  -2    8.31    0.34 
  -4  -1  -2    7.95    0.33 
   4   1   2    8.23    0.37 
   4   1   2    8.07    0.35 
   4   1   2    8.74    0.36 
   4   1   2    8.80    0.34 
   4   1   2    8.21    0.34 
  -5  -1  -2    1.95    0.21 
  -5  -1  -2    2.55    0.21 
   5   1   2    1.76    0.23 
   5   1   2    1.75    0.20 
   5   1   2    2.22    0.25 
   5   1   2    2.18    0.22 
   5   1   2    2.07    0.20 
  -6  -1  -2    4.26    0.31 
  -6  -1  -2    4.32    0.30 
   6   1   2    4.21    0.36 
   6   1   2    4.80    0.38 
   6   1   2    4.92    0.32 
   6   1   2    4.50    0.31 
   6   1   2    4.09    0.31 
  -7  -1  -2    3.05    0.31 
   7   1   2    2.43    0.29 
   7   1   2    1.73    0.26 
   7   1   2    2.38    0.28 
   7   1   2    2.09    0.30 
   8   1   2    2.32    0.29 
   8   1   2    2.23    0.28 
   8   1   2    2.60    0.34 
   9  -2  -2   -0.01    0.16 
   9  -2  -2    0.20    0.20 
   8  -2  -2   -0.11    0.14 
   8  -2  -2   -0.12    0.13 
  -8   2   2    0.22    0.18 
   7  -2  -2    0.24    0.16 
   7  -2  -2    0.45    0.17 
  -7   2   2    0.68    0.20 
   6  -2  -2    9.62    0.44 
   6  -2  -2    9.26    0.49 
  -6   2   2    9.93    0.49 
   5  -2  -2    2.10    0.24 
   5  -2  -2    2.54    0.24 
  -5   2   2    2.09    0.23 
   4  -2  -2    0.22    0.10 
   4  -2  -2    0.21    0.10 
   4  -2  -2    0.09    0.08 
  -4   2   2    0.18    0.10 
  -4   2   2    0.10    0.10 
   3  -2  -2   21.93    0.65 
   3  -2  -2   22.71    0.63 
   3  -2  -2   21.40    0.57 
  -3   2   2   22.64    0.59 
  -3   2   2   21.59    0.63 
  -3   2   2   22.48    0.64 
   2  -2  -2  175.44    3.54 
   2  -2  -2  173.02    3.46 
   2  -2  -2  170.52    3.55 
  -2   2   2  169.66    3.54 
  -2   2   2  166.24    3.54 
  -2   2   2  171.35    3.47 
   1  -2  -2  130.95    2.73 
   1  -2  -2  133.94    2.69 
   1  -2  -2  133.35    2.65 
   1  -2  -2  128.01    2.72 
  -1   2   2  136.26    2.73 
  -1   2   2  134.73    2.65 
  -1   2   2  130.78    2.73 
   0  -2  -2  206.07    4.10 
   0  -2  -2  191.17    4.08 
   0  -2  -2  204.93    4.12 
   0  -2  -2  202.93    4.12 
   0  -2  -2  208.99    4.10 
   0  -2  -2  197.20    4.08 
   0   2   2  197.88    4.12 
   0   2   2  206.37    4.11 
   0   2   2  208.83    4.06 
   0   2   2  208.88    4.11 
   0   2   2  212.19    4.11 
  -1  -2  -2   34.10    0.74 
  -1  -2  -2   30.51    0.72 
  -1  -2  -2   35.26    0.73 
  -1  -2  -2   33.71    0.73 
  -1  -2  -2   33.58    0.80 
  -1  -2  -2   33.13    0.75 
  -1  -2  -2   34.22    0.73 
   1   2   2   33.96    0.73 
   1   2   2   34.27    0.78 
   1   2   2   33.11    0.75 
   1   2   2   33.71    0.73 
   1   2   2   34.03    0.74 
   1   2   2   34.95    0.74 
   1   2   2   32.95    0.74 
  -2  -2  -2  103.09    2.17 
  -2  -2  -2  101.67    2.16 
  -2  -2  -2  104.80    2.18 
  -2  -2  -2  107.46    2.24 
  -2  -2  -2  105.99    2.18 
  -2  -2  -2  106.16    2.18 
   2   2   2  105.45    2.23 
   2   2   2  104.04    2.20 
   2   2   2  104.32    2.19 
   2   2   2  106.75    2.25 
   2   2   2  108.26    2.26 
   2   2   2  105.89    2.19 
  -3  -2  -2   77.22    1.68 
  -3  -2  -2   78.29    1.68 
  -3  -2  -2   77.27    1.68 
   3   2   2   76.32    1.68 
   3   2   2   76.59    1.73 
   3   2   2   78.94    1.75 
   3   2   2   76.23    1.69 
   3   2   2   77.50    1.71 
  -4  -2  -2    0.66    0.11 
  -4  -2  -2    0.78    0.12 
   4   2   2    1.07    0.17 
   4   2   2    0.58    0.11 
   4   2   2    0.55    0.13 
   4   2   2    0.54    0.12 
   4   2   2    0.57    0.12 
  -5  -2  -2    8.09    0.36 
   5   2   2    8.53    0.41 
   5   2   2    8.29    0.41 
   5   2   2    7.58    0.37 
   5   2   2    7.70    0.40 
   5   2   2    7.79    0.36 
  -6  -2  -2    8.53    0.40 
   6   2   2    8.59    0.48 
   6   2   2    9.50    0.47 
   6   2   2    8.26    0.43 
   6   2   2    8.44    0.46 
  -7  -2  -2    0.09    0.11 
   7   2   2   -0.04    0.13 
   7   2   2    0.11    0.15 
   7   2   2   -0.07    0.11 
   7   2   2    0.08    0.17 
  -8  -2  -2    0.29    0.19 
   8   2   2    0.16    0.23 
   8   2   2   -0.02    0.17 
   8   2   2    0.43    0.19 
   9  -3  -2    0.30    0.20 
   9  -3  -2    0.16    0.19 
   8  -3  -2    3.99    0.41 
   8  -3  -2    3.70    0.35 
  -8   3   2    3.46    0.39 
   7  -3  -2    0.90    0.21 
   7  -3  -2    1.30    0.21 
  -7   3   2    1.10    0.23 
   6  -3  -2    2.45    0.24 
   6  -3  -2    2.79    0.30 
  -6   3   2    2.54    0.29 
   5  -3  -2    3.38    0.23 
   5  -3  -2    3.10    0.27 
  -5   3   2    3.20    0.30 
   4  -3  -2    1.34    0.14 
   4  -3  -2    0.79    0.14 
  -4   3   2    0.92    0.15 
  -4   3   2    1.06    0.17 
   3  -3  -2   50.75    1.20 
   3  -3  -2   49.77    1.10 
   3  -3  -2   50.23    1.21 
  -3   3   2   48.87    1.13 
  -3   3   2   49.75    1.22 
  -3   3   2   48.56    1.21 
   2  -3  -2    0.05    0.06 
   2  -3  -2    0.17    0.07 
   2  -3  -2    0.16    0.04 
   2  -3  -2    0.15    0.04 
  -2   3   2    0.17    0.08 
  -2   3   2    0.09    0.06 
  -2   3   2    0.20    0.05 
   1  -3  -2   -0.04    0.03 
   1  -3  -2   -0.05    0.04 
   1  -3  -2    0.01    0.04 
   1  -3  -2    0.02    0.04 
  -1   3   2    0.12    0.04 
  -1   3   2    0.00    0.05 
  -1   3   2    0.05    0.04 
  -1   3   2    0.08    0.03 
   0  -3  -2    3.08    0.10 
   0  -3  -2    3.14    0.16 
   0  -3  -2    3.01    0.10 
   0  -3  -2    3.06    0.15 
   0  -3  -2    3.04    0.12 
   0   3   2    3.06    0.15 
   0   3   2    3.11    0.13 
   0   3   2    2.81    0.13 
  -1  -3  -2   31.29    0.64 
  -1  -3  -2   31.20    0.65 
   1   3   2   29.94    0.72 
   1   3   2   29.89    0.67 
   1   3   2   30.41    0.68 
   1   3   2   31.25    0.69 
   1   3   2   31.62    0.76 
   1   3   2   30.85    0.69 
   1   3   2   30.77    0.68 
   1   3   2   30.57    0.75 
  -2  -3  -2    0.74    0.05 
  -2  -3  -2    0.70    0.05 
  -2  -3  -2    0.79    0.06 
  -2  -3  -2    0.62    0.07 
  -2  -3  -2    0.74    0.06 
   2   3   2    0.60    0.10 
   2   3   2    0.59    0.07 
   2   3   2    0.83    0.11 
   2   3   2    0.52    0.11 
   2   3   2    0.82    0.09 
   2   3   2    0.76    0.08 
  -3  -3  -2    0.71    0.08 
  -3  -3  -2    0.79    0.08 
  -3  -3  -2    0.76    0.07 
  -3  -3  -2    0.68    0.08 
   3   3   2    0.73    0.13 
   3   3   2    0.81    0.11 
   3   3   2    0.71    0.10 
   3   3   2    0.79    0.10 
   3   3   2    0.71    0.13 
  -4  -3  -2    9.40    0.34 
  -4  -3  -2    9.94    0.33 
   4   3   2   10.09    0.40 
   4   3   2    9.70    0.36 
   4   3   2    9.59    0.37 
   4   3   2    9.56    0.43 
   4   3   2    9.58    0.43 
  -5  -3  -2    2.40    0.19 
  -5  -3  -2    2.32    0.20 
   5   3   2    2.47    0.28 
   5   3   2    1.83    0.19 
   5   3   2    1.77    0.21 
   5   3   2    2.35    0.22 
   5   3   2    2.75    0.30 
  -6  -3  -2    1.58    0.20 
   6   3   2    1.04    0.18 
   6   3   2    1.83    0.27 
   6   3   2    1.44    0.22 
   6   3   2    1.23    0.22 
  -7  -3  -2    0.20    0.12 
   7   3   2    0.06    0.12 
   7   3   2    0.16    0.17 
   7   3   2    0.42    0.17 
   7   3   2    0.27    0.19 
  -8  -3  -2    1.13    0.21 
   8   3   2    0.87    0.28 
   8   3   2    1.26    0.25 
   8  -4  -2    1.83    0.30 
   8  -4  -2    1.55    0.25 
  -8   4   2    1.38    0.28 
   7  -4  -2    1.71    0.22 
   7  -4  -2    1.37    0.25 
  -7   4   2    1.40    0.26 
   6  -4  -2    0.76    0.17 
   6  -4  -2    1.18    0.22 
  -6   4   2    0.75    0.21 
   5  -4  -2    0.16    0.13 
   5  -4  -2   -0.02    0.09 
  -5   4   2    0.05    0.12 
   4  -4  -2    3.91    0.27 
   4  -4  -2    3.95    0.21 
   4  -4  -2    3.97    0.16 
  -4   4   2    3.96    0.29 
   3  -4  -2   32.69    0.72 
   3  -4  -2   32.34    0.76 
   3  -4  -2   32.07    0.86 
  -3   4   2   32.80    0.89 
  -3   4   2   32.28    0.88 
  -3   4   2   32.43    0.78 
   2  -4  -2   10.29    0.29 
   2  -4  -2    9.85    0.35 
  -2   4   2    9.86    0.36 
  -2   4   2   10.54    0.37 
  -2   4   2   10.55    0.29 
   1  -4  -2   62.14    1.35 
   1  -4  -2   64.19    1.40 
   1  -4  -2   64.13    1.38 
   1  -4  -2   64.32    1.36 
  -1   4   2   63.03    1.31 
  -1   4   2   63.25    1.40 
  -1   4   2   63.05    1.35 
  -1   4   2   62.57    1.40 
   0  -4  -2   14.86    0.31 
   0  -4  -2   14.39    0.44 
   0   4   2   14.77    0.39 
   0   4   2   15.39    0.42 
   0   4   2   14.63    0.39 
   0   4   2   15.14    0.43 
   1   4   2   17.81    0.42 
   1   4   2   17.61    0.42 
   1   4   2   17.14    0.51 
   1   4   2   18.01    0.49 
   1   4   2   17.69    0.44 
   1   4   2   18.56    0.43 
   1   4   2   17.91    0.43 
   1   4   2   18.59    0.51 
   2   4   2   -0.01    0.04 
   2   4   2    0.03    0.04 
   2   4   2    0.04    0.08 
   2   4   2    0.09    0.09 
   2   4   2    0.08    0.06 
   2   4   2    0.04    0.04 
  -3  -4  -2   12.72    0.36 
   3   4   2   12.54    0.38 
   3   4   2   12.41    0.38 
   3   4   2   12.53    0.47 
   3   4   2   12.45    0.47 
   3   4   2   12.58    0.40 
   3   4   2   12.70    0.49 
  -4  -4  -2    7.04    0.19 
  -4  -4  -2    7.16    0.28 
   4   4   2    7.24    0.33 
   4   4   2    6.95    0.39 
   4   4   2    7.26    0.38 
   4   4   2    7.47    0.39 
   4   4   2    7.09    0.31 
   4   4   2    7.52    0.31 
  -5  -4  -2    0.45    0.12 
  -5  -4  -2    0.38    0.09 
   5   4   2    0.51    0.13 
   5   4   2    0.58    0.13 
   5   4   2    0.45    0.18 
   5   4   2    0.56    0.19 
  -6  -4  -2    0.08    0.09 
   6   4   2    0.21    0.17 
   6   4   2    0.02    0.16 
   6   4   2   -0.01    0.11 
   6   4   2    0.03    0.10 
  -7  -4  -2   -0.18    0.08 
   7   4   2    0.23    0.15 
   7   4   2   -0.03    0.18 
   7   4   2    0.03    0.12 
   8  -5  -2    1.79    0.30 
   8  -5  -2    1.78    0.27 
  -8   5   2    1.19    0.29 
   7  -5  -2    0.18    0.13 
   7  -5  -2   -0.04    0.13 
  -7   5   2    0.09    0.16 
   6  -5  -2    6.64    0.41 
   6  -5  -2    5.79    0.32 
   6  -5  -2    5.72    0.21 
  -6   5   2    5.60    0.42 
   5  -5  -2    0.04    0.04 
   5  -5  -2   -0.19    0.07 
   5  -5  -2    0.11    0.12 
  -5   5   2   -0.02    0.12 
   4  -5  -2    0.05    0.07 
   4  -5  -2    0.06    0.09 
   4  -5  -2    0.07    0.04 
  -4   5   2    0.05    0.12 
   3  -5  -2    0.00    0.07 
   3  -5  -2    0.02    0.04 
  -3   5   2    0.07    0.06 
  -3   5   2   -0.04    0.08 
  -3   5   2    0.19    0.11 
   2  -5  -2   10.33    0.34 
   2  -5  -2   10.70    0.32 
   2  -5  -2   10.32    0.35 
  -2   5   2   10.62    0.39 
  -2   5   2   10.08    0.30 
  -2   5   2   10.48    0.39 
   1  -5  -2    1.53    0.08 
   1  -5  -2    1.72    0.14 
   1  -5  -2    1.62    0.07 
   1  -5  -2    1.75    0.12 
  -1   5   2    1.47    0.14 
  -1   5   2    1.62    0.13 
  -1   5   2    1.44    0.09 
  -1   5   2    1.52    0.12 
   0  -5  -2    2.97    0.19 
   0   5   2    3.00    0.18 
   0   5   2    2.80    0.15 
   0   5   2    2.60    0.14 
   0   5   2    2.95    0.18 
   1   5   2    0.12    0.04 
   1   5   2    0.10    0.07 
   1   5   2    0.28    0.05 
   1   5   2    0.10    0.08 
   1   5   2    0.14    0.04 
   1   5   2    0.11    0.07 
   1   5   2    0.11    0.04 
   2   5   2    5.72    0.20 
   2   5   2    6.02    0.29 
   2   5   2    5.38    0.28 
   2   5   2    5.71    0.19 
   2   5   2    5.51    0.30 
   2   5   2    5.90    0.21 
   3   5   2    0.13    0.13 
   3   5   2    0.10    0.13 
   3   5   2    0.09    0.06 
   3   5   2    0.21    0.08 
   3   5   2    0.14    0.06 
   3   5   2    0.20    0.10 
  -4  -5  -2    0.89    0.10 
   4   5   2    0.84    0.12 
   4   5   2    0.71    0.13 
   4   5   2    0.93    0.20 
   4   5   2    0.66    0.16 
   4   5   2    0.84    0.19 
   4   5   2    0.78    0.12 
  -5  -5  -2    0.23    0.07 
   5   5   2    0.15    0.10 
   5   5   2    0.23    0.15 
   5   5   2    0.30    0.17 
   5   5   2    0.35    0.12 
  -6  -5  -2    1.12    0.14 
   6   5   2    1.09    0.18 
   6   5   2    0.52    0.21 
   6   5   2    0.65    0.17 
   6   5   2    0.70    0.21 
   7   5   2   -0.12    0.11 
   7   5   2   -0.11    0.19 
   7   5   2    0.05    0.14 
   8  -6  -2    0.27    0.15 
   8  -6  -2    0.22    0.17 
  -8   6   2   -0.02    0.20 
   7  -6  -2    0.07    0.11 
   7  -6  -2    0.02    0.13 
  -7   6   2    0.11    0.17 
   6  -6  -2    1.44    0.19 
   6  -6  -2    1.65    0.24 
  -6   6   2    1.34    0.25 
   5  -6  -2   12.18    0.30 
   5  -6  -2   12.15    0.51 
  -5   6   2   11.22    0.56 
   4  -6  -2    0.07    0.05 
   4  -6  -2   -0.02    0.08 
  -4   6   2    0.15    0.13 
   3  -6  -2    6.60    0.29 
   3  -6  -2    5.97    0.23 
   3  -6  -2    6.40    0.28 
  -3   6   2    5.83    0.29 
  -3   6   2    5.92    0.33 
  -3   6   2    6.14    0.34 
   2  -6  -2    4.84    0.23 
  -2   6   2    4.41    0.19 
  -2   6   2    4.58    0.19 
  -2   6   2    4.53    0.26 
  -2   6   2    4.65    0.26 
   1  -6  -2    9.99    0.37 
  -1   6   2   10.23    0.36 
  -1   6   2   10.22    0.36 
  -1   6   2   10.32    0.34 
   0   6   2    0.69    0.12 
   0   6   2    0.75    0.09 
   0   6   2    0.55    0.10 
   0   6   2    0.73    0.09 
   1   6   2    0.43    0.07 
   1   6   2    0.37    0.06 
   1   6   2    0.58    0.13 
   1   6   2    0.43    0.11 
   1   6   2    0.33    0.10 
   2   6   2    4.05    0.26 
   2   6   2    4.48    0.30 
   2   6   2    4.21    0.17 
   2   6   2    3.61    0.26 
   2   6   2    4.24    0.18 
   2   6   2    3.83    0.16 
   3   6   2   -0.04    0.05 
   3   6   2   -0.02    0.05 
   3   6   2    0.08    0.05 
   3   6   2    0.19    0.13 
   3   6   2    0.10    0.10 
   3   6   2    0.12    0.12 
   4   6   2    5.35    0.37 
   4   6   2    5.53    0.29 
   4   6   2    5.64    0.25 
   4   6   2    5.51    0.37 
   5   6   2    0.25    0.17 
   5   6   2    0.11    0.11 
   5   6   2    0.57    0.19 
   5   6   2    0.24    0.10 
   6   6   2    0.34    0.15 
   6   6   2   -0.10    0.19 
   6   6   2    0.33    0.12 
  -7   7   2    0.03    0.18 
   6  -7  -2    2.73    0.29 
  -6   7   2    2.05    0.30 
   5  -7  -2    2.27    0.23 
  -5   7   2    1.99    0.28 
   4  -7  -2    6.86    0.31 
   4  -7  -2    6.83    0.33 
  -4   7   2    7.57    0.43 
   3  -7  -2    1.93    0.18 
   3  -7  -2    1.75    0.15 
  -3   7   2    1.56    0.20 
  -3   7   2    1.55    0.20 
   2  -7  -2    2.94    0.11 
   2  -7  -2    2.95    0.21 
  -2   7   2    2.95    0.24 
  -2   7   2    2.89    0.17 
  -2   7   2    2.80    0.23 
  -2   7   2    3.31    0.17 
   1  -7  -2   11.48    0.44 
  -1   7   2   11.40    0.41 
  -1   7   2   12.40    0.42 
  -1   7   2   11.40    0.39 
  -1   7   2   12.05    0.35 
   0   7   2    3.87    0.19 
   0   7   2    3.77    0.24 
   0   7   2    4.00    0.19 
   0   7   2    3.80    0.23 
   1   7   2   14.73    0.51 
   1   7   2   13.82    0.51 
   1   7   2   13.49    0.49 
   1   7   2   13.72    0.38 
   1   7   2   14.42    0.39 
   2   7   2    0.40    0.07 
   2   7   2    0.48    0.15 
   2   7   2    0.49    0.13 
   2   7   2    0.24    0.13 
   2   7   2    0.38    0.07 
   3   7   2   -0.02    0.05 
   3   7   2   -0.05    0.11 
   3   7   2    0.02    0.05 
   3   7   2    0.16    0.13 
   3   7   2   -0.05    0.05 
   4   7   2    1.05    0.13 
   4   7   2    0.97    0.15 
   4   7   2    1.53    0.24 
   4   7   2    1.69    0.26 
   5   7   2    0.47    0.20 
   5   7   2    0.12    0.12 
   5   7   2    0.28    0.11 
  -7   8   2    0.02    0.19 
  -6   8   2    0.16    0.18 
   5  -8  -2    0.22    0.11 
  -5   8   2    0.07    0.15 
   4  -8  -2   -0.01    0.07 
  -4   8   2   -0.08    0.09 
   3  -8  -2    0.58    0.12 
  -3   8   2    0.42    0.13 
   2  -8  -2    0.01    0.08 
  -2   8   2    0.08    0.08 
  -2   8   2    0.05    0.07 
  -1   8   2    3.78    0.22 
  -1   8   2    3.33    0.22 
   0   8   2    0.57    0.13 
   0   8   2    0.45    0.08 
   1   8   2    0.70    0.15 
   1   8   2    0.97    0.10 
   1   8   2    0.77    0.15 
   1   8   2    0.77    0.15 
   2   8   2    0.80    0.18 
   2   8   2    0.54    0.08 
   2   8   2    0.50    0.16 
   3   8   2    0.82    0.09 
   3   8   2    0.99    0.21 
   3   8   2    0.75    0.19 
   3   8   2    0.72    0.10 
   4   8   2    0.05    0.07 
   4   8   2    0.11    0.16 
   4   8   2   -0.02    0.06 
  -6   9   2    0.14    0.18 
  -5   9   2    0.14    0.16 
   4  -9  -2    0.16    0.10 
  -4   9   2    0.11    0.12 
   3  -9  -2    0.06    0.09 
  -3   9   2   -0.06    0.08 
   2  -9  -2    5.56    0.33 
  -2   9   2    5.63    0.32 
  -2   9   2    5.69    0.27 
  -1   9   2   -0.10    0.08 
  -1   9   2    0.08    0.07 
   0   9   2    0.20    0.07 
   0   9   2    0.33    0.12 
   1   9   2    0.00    0.05 
   1   9   2    0.12    0.12 
   1   9   2   -0.08    0.10 
   2   9   2    2.12    0.13 
   2   9   2    2.49    0.28 
   2   9   2    2.14    0.27 
   3   9   2    0.15    0.17 
   3   9   2    0.13    0.07 
  -4  10   2    0.98    0.22 
  -3  10   2    2.54    0.28 
  -2  10   2   -0.05    0.08 
  -1  10   2    0.30    0.10 
   0  10   2   -0.02    0.10 
   0  10   2   -0.01    0.06 
   1  10   2    0.79    0.18 
   1  10   2    0.76    0.10 
   2  10  -3    0.36    0.19 
   1  10  -3    0.24    0.15 
   0  10  -3    1.91    0.16 
  -1  10  -3    0.09    0.09 
  -2  10  -3    0.03    0.11 
  -3  10  -3   -0.04    0.11 
  -4  10  -3    0.57    0.17 
   3   9  -3    0.16    0.18 
   3   9  -3   -0.18    0.17 
   2   9  -3    1.01    0.22 
   2   9  -3    0.52    0.13 
   1   9  -3    0.09    0.13 
   1   9  -3    0.07    0.09 
   1   9  -3   -0.01    0.04 
   1   9  -3    0.02    0.05 
   0   9  -3   10.31    0.42 
   0   9  -3   10.99    0.46 
   0   9  -3   10.27    0.35 
  -1   9  -3    3.00    0.22 
  -1   9  -3    3.39    0.22 
  -2   9  -3    0.47    0.14 
  -3   9  -3    1.83    0.24 
  -4   9  -3    4.89    0.37 
  -5   9  -3    0.27    0.18 
  -6   9  -3    0.12    0.19 
   5   8  -3   -0.08    0.21 
   5   8  -3    0.19    0.10 
   4   8  -3   -0.03    0.06 
   4   8  -3    0.10    0.18 
   3   8  -3    0.78    0.08 
   3   8  -3    0.96    0.25 
   3   8  -3    0.84    0.09 
   2   8  -3    0.00    0.03 
   2   8  -3    0.02    0.09 
   1   8  -3    0.04    0.04 
   1   8  -3    0.13    0.08 
   1   8  -3    0.02    0.04 
   0   8  -3    0.33    0.12 
   0   8  -3    0.17    0.07 
   0   8  -3    0.22    0.08 
   0   8  -3    0.27    0.07 
  -1   8  -3    4.12    0.23 
  -1   8  -3    3.53    0.22 
  -1   8  -3    3.84    0.23 
  -2   8  -3    0.09    0.05 
  -2   8  -3    0.06    0.08 
  -3   8  -3   -0.05    0.09 
  -4   8  -3    0.21    0.13 
  -5   8  -3    0.13    0.16 
  -6   8  -3    1.13    0.27 
   5   7  -3    0.10    0.09 
   5   7  -3   -0.08    0.18 
   4   7  -3    0.18    0.08 
   4   7  -3    0.24    0.18 
   3   7  -3    0.07    0.15 
   3   7  -3    0.06    0.05 
   3   7  -3    0.01    0.05 
   3   7  -3    0.09    0.10 
   2   7  -3    7.52    0.35 
   2   7  -3    7.21    0.22 
   2   7  -3    7.17    0.22 
   1   7  -3    0.08    0.07 
   1   7  -3    0.02    0.03 
   1   7  -3    0.02    0.04 
   1   7  -3    0.00    0.04 
   0   7  -3    0.64    0.10 
   0   7  -3    0.58    0.08 
   0   7  -3    0.50    0.08 
   0   7  -3    0.66    0.08 
  -1   7  -3    1.16    0.14 
  -1   7  -3    1.03    0.12 
  -1   7  -3    1.09    0.13 
  -2   7  -3   -0.07    0.05 
  -2   7  -3   -0.03    0.04 
  -2   7  -3    0.19    0.09 
  -2   7  -3   -0.05    0.08 
  -2   7  -3   -0.01    0.07 
  -3   7  -3    0.25    0.12 
  -3   7  -3    0.19    0.11 
  -3   7  -3    0.17    0.09 
  -3   7  -3    0.12    0.10 
   3  -7   3    0.16    0.06 
  -4   7  -3    1.15    0.19 
  -4   7  -3    0.96    0.20 
   4  -7   3    0.90    0.13 
   4  -7   3    0.79    0.07 
  -5   7  -3    0.19    0.15 
   5  -7   3    0.02    0.09 
  -6   7  -3    3.41    0.38 
   6  -7   3    3.90    0.30 
  -7   7  -3    0.10    0.20 
   6   6  -3    1.14    0.28 
   6   6  -3    1.39    0.20 
   5   6  -3   -0.05    0.08 
   5   6  -3    0.29    0.19 
   4   6  -3    0.06    0.15 
   4   6  -3    0.00    0.07 
   4   6  -3    0.03    0.07 
   3   6  -3    0.10    0.06 
   3   6  -3    0.08    0.06 
   2   6  -3    0.75    0.08 
   2   6  -3    0.76    0.08 
   1   6  -3    0.12    0.07 
   1   6  -3    0.08    0.04 
   1   6  -3    0.10    0.04 
   1   6  -3    0.11    0.03 
   0   6  -3    9.86    0.31 
   0   6  -3   10.07    0.32 
   0   6  -3    9.96    0.30 
   0   6  -3   10.22    0.29 
  -1   6  -3   14.24    0.45 
  -1   6  -3   15.31    0.41 
  -1   6  -3   15.22    0.43 
  -1   6  -3   14.50    0.44 
  -2   6  -3    0.72    0.12 
  -2   6  -3    0.70    0.07 
  -2   6  -3    0.58    0.11 
  -2   6  -3    0.80    0.13 
  -2   6  -3    0.75    0.11 
  -3   6  -3    5.06    0.29 
  -3   6  -3    4.43    0.28 
  -3   6  -3    4.74    0.27 
  -3   6  -3    4.92    0.30 
   3  -6   3    4.56    0.21 
  -4   6  -3    6.84    0.36 
  -4   6  -3    6.82    0.40 
  -4   6  -3    6.27    0.37 
   4  -6   3    6.34    0.19 
   4  -6   3    6.31    0.29 
  -5   6  -3    5.10    0.34 
  -5   6  -3    5.40    0.40 
   5  -6   3    5.17    0.30 
  -6   6  -3    0.74    0.22 
   6  -6   3    0.29    0.13 
  -7   6  -3    0.22    0.20 
   7  -6   3    0.09    0.13 
  -8   6  -3    0.90    0.28 
   8  -6   3    0.86    0.21 
   8  -6   3    0.94    0.22 
   7   5  -3    0.16    0.22 
   7   5  -3    0.37    0.16 
  -7  -5   3    0.43    0.19 
   6   5  -3   -0.02    0.20 
   6   5  -3   -0.02    0.10 
   5   5  -3    1.07    0.16 
   5   5  -3    1.25    0.26 
   4   5  -3    0.84    0.21 
   4   5  -3    1.10    0.14 
   4   5  -3    1.12    0.14 
   3   5  -3    2.94    0.16 
   3   5  -3    2.61    0.16 
   2   5  -3    0.00    0.04 
   2   5  -3    0.02    0.04 
  -2  -5   3    0.04    0.02 
   1   5  -3    0.33    0.05 
   0   5  -3    0.02    0.04 
   0   5  -3    0.02    0.04 
   0   5  -3    0.04    0.03 
   0   5  -3   -0.06    0.04 
   0   5  -3    0.08    0.03 
  -1   5  -3    4.46    0.20 
  -1   5  -3    4.73    0.15 
  -1   5  -3    4.42    0.21 
  -1   5  -3    4.66    0.19 
  -1   5  -3    5.03    0.20 
  -2   5  -3    5.91    0.27 
  -2   5  -3    6.19    0.27 
  -2   5  -3    5.73    0.28 
  -2   5  -3    6.05    0.26 
   2  -5   3    5.82    0.21 
  -3   5  -3    1.93    0.20 
  -3   5  -3    1.92    0.20 
  -3   5  -3    1.97    0.20 
  -3   5  -3    1.93    0.19 
   3  -5   3    1.66    0.14 
   3  -5   3    1.75    0.08 
  -4   5  -3   19.28    0.68 
  -4   5  -3   19.38    0.67 
  -4   5  -3   20.47    0.66 
   4  -5   3   20.68    0.62 
  -5   5  -3    2.31    0.25 
  -5   5  -3    2.46    0.30 
   5  -5   3    2.54    0.24 
  -6   5  -3    0.09    0.15 
   6  -5   3    0.20    0.13 
   6  -5   3    0.11    0.12 
  -7   5  -3    0.98    0.25 
   7  -5   3    1.09    0.21 
   7  -5   3    1.02    0.20 
  -8   5  -3    0.21    0.22 
   8  -5   3    0.06    0.14 
   8  -5   3    0.36    0.18 
   7   4  -3    0.55    0.23 
   7   4  -3    0.29    0.16 
   6   4  -3    0.09    0.10 
   6   4  -3   -0.04    0.17 
   5   4  -3    0.04    0.10 
   5   4  -3    0.20    0.12 
   5   4  -3    0.25    0.16 
   4   4  -3    0.06    0.13 
   4   4  -3    0.04    0.07 
   4   4  -3    0.06    0.08 
   3   4  -3    0.16    0.13 
   3   4  -3    0.17    0.07 
   3   4  -3    0.20    0.07 
   2   4  -3    1.38    0.10 
   2   4  -3    1.13    0.09 
   1   4  -3    5.12    0.17 
  -1  -4   3    5.06    0.16 
   0   4  -3    1.19    0.09 
   0   4  -3    1.26    0.08 
   0   4  -3    1.21    0.08 
   0   4  -3    1.32    0.08 
  -1   4  -3    3.59    0.16 
  -1   4  -3    3.40    0.16 
  -1   4  -3    3.79    0.17 
  -1   4  -3    3.37    0.18 
   1  -4   3    3.87    0.14 
   1  -4   3    3.42    0.17 
   1  -4   3    3.82    0.14 
  -2   4  -3    1.57    0.14 
  -2   4  -3    1.67    0.15 
  -2   4  -3    1.60    0.15 
  -2   4  -3    1.68    0.14 
   2  -4   3    1.49    0.11 
  -3   4  -3    5.13    0.26 
  -3   4  -3    5.02    0.28 
  -3   4  -3    5.14    0.27 
  -3   4  -3    5.23    0.28 
   3  -4   3    4.66    0.23 
   3  -4   3    4.95    0.28 
  -4   4  -3    1.09    0.18 
  -4   4  -3    0.98    0.16 
  -4   4  -3    1.06    0.16 
   4  -4   3    0.89    0.17 
   4  -4   3    0.80    0.13 
   4  -4   3    0.64    0.13 
  -5   4  -3   56.17    1.49 
  -5   4  -3   55.04    1.44 
   5  -4   3   57.76    1.39 
   5  -4   3   55.74    1.41 
  -6   4  -3    0.71    0.19 
  -6   4  -3    1.08    0.22 
   6  -4   3    1.22    0.20 
   6  -4   3    1.15    0.09 
   6  -4   3    1.21    0.20 
  -7   4  -3    0.21    0.19 
   7  -4   3    0.12    0.13 
   7  -4   3    0.39    0.17 
  -8   4  -3    0.07    0.20 
   8  -4   3    0.01    0.16 
   8  -4   3   -0.15    0.12 
   8   3  -3    0.48    0.19 
   8   3  -3   -0.05    0.19 
   7   3  -3    0.16    0.19 
   7   3  -3    0.39    0.17 
   6   3  -3    0.21    0.18 
   6   3  -3    0.00    0.10 
   5   3  -3    1.86    0.20 
   5   3  -3    2.50    0.30 
   5   3  -3    1.89    0.22 
  -5  -3   3    1.85    0.16 
   4   3  -3    2.02    0.19 
   4   3  -3    2.42    0.27 
   4   3  -3    2.48    0.20 
  -4  -3   3    2.93    0.15 
   3   3  -3    0.56    0.14 
   3   3  -3    0.43    0.09 
   3   3  -3    0.43    0.08 
  -3  -3   3    0.49    0.06 
   2   3  -3    0.55    0.07 
   2   3  -3    0.81    0.08 
  -2  -3   3    0.68    0.05 
  -2  -3   3    0.72    0.06 
   1   3  -3    6.20    0.20 
   1   3  -3    6.21    0.19 
  -1  -3   3    6.14    0.19 
  -1  -3   3    6.06    0.16 
   0   3  -3    5.41    0.18 
   0   3  -3    5.40    0.17 
   0   3  -3    5.48    0.18 
   0   3  -3    5.53    0.19 
   0  -3   3    5.53    0.18 
   0  -3   3    5.21    0.18 
  -1   3  -3    0.17    0.05 
  -1   3  -3    0.16    0.05 
  -1   3  -3    0.12    0.05 
  -1   3  -3    0.15    0.04 
   1  -3   3    0.06    0.04 
   1  -3   3    0.20    0.04 
  -2   3  -3   20.31    0.57 
  -2   3  -3   20.53    0.56 
  -2   3  -3   20.19    0.54 
  -2   3  -3   20.10    0.56 
  -2   3  -3   20.51    0.55 
  -2   3  -3   20.13    0.45 
   2  -3   3   20.81    0.58 
   2  -3   3   20.38    0.52 
   2  -3   3   19.97    0.53 
  -3   3  -3    1.12    0.14 
  -3   3  -3    1.09    0.14 
  -3   3  -3    1.29    0.16 
  -3   3  -3    1.46    0.15 
   3  -3   3    1.10    0.13 
   3  -3   3    0.99    0.14 
   3  -3   3    1.07    0.12 
  -4   3  -3   -0.01    0.07 
  -4   3  -3    0.09    0.09 
  -4   3  -3   -0.08    0.09 
   4  -3   3   -0.03    0.10 
   4  -3   3    0.08    0.08 
   4  -3   3   -0.06    0.03 
   4  -3   3    0.11    0.09 
  -5   3  -3   28.22    0.89 
  -5   3  -3   28.21    0.86 
   5  -3   3   28.78    0.81 
   5  -3   3   28.56    0.66 
   5  -3   3   28.18    0.84 
   5  -3   3   28.80    0.92 
  -6   3  -3    0.13    0.11 
  -6   3  -3   -0.06    0.13 
   6  -3   3    0.04    0.11 
   6  -3   3    0.12    0.11 
   6  -3   3    0.14    0.07 
   6  -3   3   -0.09    0.13 
  -7   3  -3    1.57    0.28 
   7  -3   3    1.11    0.13 
   7  -3   3    1.26    0.22 
   7  -3   3    1.59    0.25 
  -8   3  -3    0.18    0.19 
   8  -3   3    0.20    0.15 
   8  -3   3    0.17    0.17 
   8   2  -3    0.69    0.24 
   8   2  -3    0.87    0.24 
   7   2  -3    1.08    0.26 
   7   2  -3    0.81    0.20 
   6   2  -3    0.21    0.13 
   6   2  -3    0.17    0.17 
  -6  -2   3    0.18    0.10 
   5   2  -3    4.56    0.29 
   5   2  -3    4.62    0.35 
   5   2  -3    4.43    0.31 
  -5  -2   3    4.36    0.24 
   4   2  -3    0.11    0.08 
   4   2  -3    0.04    0.09 
   4   2  -3   -0.10    0.11 
  -4  -2   3   -0.03    0.05 
   3   2  -3    4.64    0.27 
   3   2  -3    5.33    0.23 
   3   2  -3    4.97    0.24 
  -3  -2   3    5.08    0.20 
  -3  -2   3    5.05    0.20 
   2   2  -3    0.86    0.09 
   2   2  -3    0.98    0.10 
  -2  -2   3    0.95    0.08 
  -2  -2   3    1.00    0.08 
   1   2  -3   18.16    0.44 
   1   2  -3   17.37    0.43 
  -1  -2   3   17.29    0.42 
   0   2  -3    0.13    0.03 
   0   2  -3    0.08    0.03 
   0   2  -3    0.13    0.04 
   0   2  -3    0.11    0.04 
   0  -2   3    0.17    0.04 
   0  -2   3    0.04    0.04 
  -1   2  -3    4.51    0.18 
  -1   2  -3    4.39    0.17 
  -1   2  -3    4.52    0.19 
  -1   2  -3    4.73    0.17 
   1  -2   3    4.55    0.19 
   1  -2   3    4.62    0.19 
   1  -2   3    4.85    0.17 
   1  -2   3    4.54    0.17 
  -2   2  -3   10.11    0.26 
  -2   2  -3    9.69    0.33 
  -2   2  -3   10.15    0.34 
  -2   2  -3   10.02    0.31 
  -2   2  -3   10.35    0.33 
  -2   2  -3   10.70    0.34 
   2  -2   3    9.88    0.31 
   2  -2   3    9.68    0.31 
   2  -2   3    9.69    0.35 
   2  -2   3   10.19    0.31 
  -3   2  -3   35.25    0.90 
  -3   2  -3   34.65    0.89 
  -3   2  -3   36.05    0.90 
  -3   2  -3   34.75    0.89 
   3  -2   3   35.01    0.76 
   3  -2   3   34.64    0.87 
   3  -2   3   33.79    0.84 
   3  -2   3   34.31    0.86 
   3  -2   3   35.96    0.93 
  -4   2  -3   33.01    0.91 
  -4   2  -3   33.50    0.93 
  -4   2  -3   37.22    1.19 
   4  -2   3   32.48    0.95 
   4  -2   3   34.46    0.90 
   4  -2   3   32.49    0.77 
   4  -2   3   33.68    0.87 
  -5   2  -3   16.22    0.62 
  -5   2  -3   16.97    0.60 
   5  -2   3   16.37    0.56 
   5  -2   3   16.57    0.59 
   5  -2   3   16.93    0.47 
   5  -2   3   16.90    0.65 
  -6   2  -3    0.38    0.14 
  -6   2  -3    0.51    0.16 
   6  -2   3    0.60    0.11 
   6  -2   3    0.87    0.18 
   6  -2   3    0.63    0.20 
   6  -2   3    0.79    0.17 
  -7   2  -3    0.75    0.21 
   7  -2   3    1.34    0.22 
   7  -2   3    1.01    0.14 
   7  -2   3    1.18    0.24 
   7  -2   3    0.92    0.20 
  -8   2  -3    2.19    0.39 
   8  -2   3    1.95    0.21 
   8  -2   3    1.65    0.28 
   8  -2   3    1.75    0.27 
   8   1  -3    0.06    0.19 
   8   1  -3    0.40    0.20 
   7   1  -3   -0.17    0.12 
   7   1  -3    0.00    0.17 
   6   1  -3    3.99    0.35 
   6   1  -3    3.36    0.30 
   6   1  -3    3.13    0.31 
  -6  -1   3    3.82    0.28 
   5   1  -3    9.30    0.42 
   5   1  -3    9.37    0.44 
   5   1  -3   10.43    0.48 
  -5  -1   3    9.21    0.39 
   4   1  -3    0.44    0.11 
   4   1  -3    0.41    0.13 
   4   1  -3    0.36    0.10 
  -4  -1   3    0.51    0.10 
   3   1  -3    0.96    0.12 
   3   1  -3    0.92    0.12 
   3   1  -3    0.83    0.13 
  -3  -1   3    0.83    0.10 
  -3  -1   3    0.80    0.10 
   2   1  -3   12.50    0.37 
   2   1  -3   12.54    0.37 
  -2  -1   3   12.19    0.36 
  -2  -1   3   13.30    0.36 
   1   1  -3  979.74   19.33 
   1   1  -3 1000.00   19.52 
  -1  -1   3  975.78   19.27 
  -1  -1   3  872.77   19.22 
   0   1  -3   53.24    1.11 
   0   1  -3   51.77    1.12 
   0   1  -3   51.79    1.12 
   0  -1   3   53.07    1.12 
   0  -1   3   51.45    1.12 
  -1   1  -3    6.00    0.20 
  -1   1  -3    5.76    0.20 
  -1   1  -3    5.62    0.18 
  -1   1  -3    5.73    0.16 
  -1   1  -3    5.57    0.21 
  -1   1  -3    6.09    0.20 
  -1   1  -3    5.55    0.20 
   1  -1   3    5.78    0.15 
   1  -1   3    5.95    0.21 
   1  -1   3    5.76    0.22 
   1  -1   3    5.80    0.20 
   1  -1   3    5.68    0.19 
  -2   1  -3    9.30    0.30 
  -2   1  -3    8.57    0.25 
  -2   1  -3    9.12    0.28 
  -2   1  -3    9.34    0.30 
  -2   1  -3    8.73    0.30 
  -2   1  -3    8.91    0.30 
   2  -1   3    8.59    0.28 
   2  -1   3    8.86    0.32 
   2  -1   3    8.76    0.25 
   2  -1   3    8.74    0.28 
   2  -1   3    8.54    0.29 
  -3   1  -3  161.41    3.25 
  -3   1  -3  155.82    3.25 
  -3   1  -3  153.62    3.24 
  -3   1  -3  152.43    3.23 
   3  -1   3  154.47    3.14 
   3  -1   3  154.32    3.21 
   3  -1   3  151.35    3.19 
   3  -1   3  152.61    3.27 
   3  -1   3  146.09    3.21 
  -4   1  -3   14.92    0.52 
  -4   1  -3   15.78    0.51 
   4  -1   3   14.57    0.49 
   4  -1   3   14.46    0.47 
   4  -1   3   15.22    0.43 
   4  -1   3   14.31    0.53 
   4  -1   3   14.82    0.50 
  -5   1  -3    4.20    0.30 
  -5   1  -3    4.16    0.28 
   5  -1   3    3.93    0.27 
   5  -1   3    4.00    0.28 
   5  -1   3    4.54    0.33 
   5  -1   3    4.29    0.23 
  -6   1  -3    3.69    0.29 
  -6   1  -3    3.54    0.33 
   6  -1   3    3.82    0.29 
   6  -1   3    3.42    0.29 
   6  -1   3    3.12    0.33 
   6  -1   3    3.65    0.24 
  -7   1  -3    2.47    0.32 
  -7   1  -3    3.05    0.33 
   7  -1   3    2.70    0.24 
   7  -1   3    2.37    0.28 
   7  -1   3    2.54    0.34 
   7  -1   3    2.41    0.29 
   8  -1   3    0.91    0.23 
   8  -1   3    1.03    0.18 
   8  -1   3    1.10    0.23 
   8   0  -3    0.29    0.18 
   8   0  -3    0.25    0.19 
   7   0  -3    2.86    0.33 
   7   0  -3    2.03    0.29 
  -7   0   3    2.50    0.29 
   6   0  -3    8.54    0.45 
   6   0  -3    8.37    0.46 
   6   0  -3    9.67    0.48 
  -6   0   3    8.79    0.43 
   5   0  -3    1.60    0.22 
   5   0  -3    1.01    0.17 
   5   0  -3    1.09    0.18 
  -5   0   3    1.28    0.17 
   4   0  -3    0.50    0.12 
   4   0  -3    0.34    0.12 
   4   0  -3    0.63    0.12 
  -4   0   3    0.46    0.11 
   3   0  -3   13.56    0.46 
   3   0  -3   13.77    0.44 
   3   0  -3   13.60    0.45 
  -3   0   3   13.83    0.44 
  -3   0   3   14.48    0.44 
   2   0  -3    0.22    0.07 
   2   0  -3    0.21    0.07 
   2   0  -3    0.30    0.08 
  -2   0   3    0.24    0.07 
  -2   0   3    0.29    0.07 
   1   0  -3   19.45    0.50 
   1   0  -3   20.04    0.50 
  -1   0   3   19.61    0.49 
  -1   0   3   20.25    0.50 
   0   0  -3    6.71    0.21 
   0   0  -3    6.89    0.22 
   0   0  -3    6.84    0.22 
   0   0   3    6.04    0.20 
   0   0   3    6.65    0.22 
   0   0   3    7.00    0.22 
  -1   0  -3   36.26    0.80 
  -1   0  -3   37.68    0.82 
  -1   0  -3   36.62    0.83 
  -1   0  -3   35.68    0.81 
  -1   0  -3   36.55    0.79 
  -1   0  -3   36.57    0.79 
  -1   0  -3   36.93    0.82 
   1   0   3   37.06    0.80 
   1   0   3   36.05    0.79 
   1   0   3   37.05    0.79 
   1   0   3   36.89    0.82 
   1   0   3   36.27    0.83 
   1   0   3   34.71    0.81 
  -2   0  -3    1.28    0.11 
  -2   0  -3    1.69    0.12 
  -2   0  -3    1.37    0.11 
  -2   0  -3    1.54    0.12 
  -2   0  -3    1.65    0.12 
  -2   0  -3    1.82    0.13 
   2   0   3    1.66    0.12 
   2   0   3    1.73    0.12 
   2   0   3    1.61    0.12 
   2   0   3    1.52    0.11 
   2   0   3    1.67    0.11 
   2   0   3    1.57    0.12 
   2   0   3    1.76    0.13 
  -3   0  -3    2.33    0.17 
  -3   0  -3    2.29    0.16 
  -3   0  -3    2.08    0.15 
  -3   0  -3    2.11    0.21 
  -3   0  -3    2.06    0.16 
   3   0   3    2.18    0.17 
   3   0   3    2.11    0.15 
   3   0   3    2.27    0.20 
   3   0   3    1.83    0.14 
   3   0   3    1.77    0.14 
  -4   0  -3    4.03    0.25 
  -4   0  -3    4.24    0.25 
   4   0   3    4.33    0.28 
   4   0   3    4.42    0.24 
   4   0   3    4.14    0.22 
   4   0   3    4.19    0.24 
   4   0   3    4.28    0.24 
  -5   0  -3   21.15    0.69 
  -5   0  -3   21.38    0.68 
   5   0   3   20.91    0.63 
   5   0   3   21.83    0.68 
   5   0   3   22.04    0.68 
   5   0   3   20.07    0.67 
   5   0   3   21.04    0.73 
  -6   0  -3   15.59    0.59 
  -6   0  -3   15.13    0.60 
   6   0   3   14.29    0.64 
   6   0   3   14.88    0.57 
   6   0   3   14.95    0.54 
   6   0   3   15.25    0.59 
  -7   0  -3    0.93    0.19 
  -7   0  -3    1.45    0.24 
   7   0   3    0.95    0.20 
   7   0   3    1.25    0.26 
   7   0   3    1.26    0.23 
   7   0   3    1.23    0.19 
   8   0   3    0.97    0.23 
   8   0   3    0.89    0.19 
   8   0   3    0.85    0.27 
   8   0   3    1.11    0.25 
   9  -1  -3    0.12    0.19 
   9  -1  -3   -0.01    0.19 
   8  -1  -3    0.12    0.17 
   8  -1  -3   -0.02    0.16 
   7  -1  -3    9.46    0.54 
   7  -1  -3   10.68    0.52 
  -7   1   3    9.57    0.50 
   6  -1  -3    1.00    0.20 
   6  -1  -3    0.93    0.21 
  -6   1   3    0.79    0.18 
   5  -1  -3    0.12    0.13 
   5  -1  -3    0.29    0.13 
   5  -1  -3    0.39    0.13 
  -5   1   3    0.62    0.15 
   4  -1  -3    1.52    0.19 
   4  -1  -3    1.39    0.17 
   4  -1  -3    1.47    0.17 
  -4   1   3    1.30    0.16 
   3  -1  -3   19.23    0.56 
   3  -1  -3   17.91    0.56 
   3  -1  -3   18.44    0.52 
  -3   1   3   19.28    0.55 
  -3   1   3   17.86    0.52 
  -3   1   3   17.90    0.54 
   2  -1  -3    0.27    0.07 
   2  -1  -3    0.20    0.06 
   2  -1  -3    0.24    0.07 
  -2   1   3    0.15    0.06 
  -2   1   3    0.14    0.06 
  -2   1   3    0.18    0.07 
   1  -1  -3  154.86    3.15 
   1  -1  -3  158.49    3.22 
   1  -1  -3  160.20    3.23 
  -1   1   3  157.09    3.22 
  -1   1   3  153.52    3.21 
   0  -1  -3    2.73    0.12 
   0  -1  -3    2.45    0.12 
   0  -1  -3    2.26    0.12 
   0  -1  -3    2.36    0.12 
   0  -1  -3    2.50    0.12 
   0  -1  -3    2.59    0.11 
   0  -1  -3    2.44    0.08 
   0   1   3    2.61    0.13 
   0   1   3    2.36    0.13 
  -1  -1  -3    6.69    0.20 
  -1  -1  -3    6.51    0.22 
  -1  -1  -3    6.54    0.22 
  -1  -1  -3    7.02    0.22 
  -1  -1  -3    6.83    0.22 
  -1  -1  -3    6.60    0.22 
  -1  -1  -3    6.62    0.21 
  -1  -1  -3    6.84    0.22 
   1   1   3    6.57    0.22 
   1   1   3    6.77    0.23 
   1   1   3    6.72    0.21 
   1   1   3    6.59    0.19 
   1   1   3    6.43    0.21 
   1   1   3    6.37    0.22 
   1   1   3    6.77    0.22 
  -2  -1  -3   23.97    0.64 
  -2  -1  -3   24.81    0.61 
  -2  -1  -3   25.09    0.61 
  -2  -1  -3   24.85    0.61 
  -2  -1  -3   24.55    0.62 
  -2  -1  -3   24.78    0.62 
   2   1   3   25.49    0.62 
   2   1   3   24.59    0.63 
   2   1   3   25.22    0.63 
   2   1   3   24.54    0.60 
   2   1   3   25.19    0.61 
   2   1   3   23.73    0.61 
   2   1   3   25.42    0.62 
  -3  -1  -3    2.19    0.23 
  -3  -1  -3    1.96    0.16 
  -3  -1  -3    2.24    0.16 
  -3  -1  -3    1.90    0.15 
   3   1   3    1.87    0.17 
   3   1   3    2.29    0.17 
   3   1   3    1.96    0.15 
   3   1   3    2.06    0.15 
   3   1   3    1.96    0.15 
  -4  -1  -3    1.19    0.15 
  -4  -1  -3    1.11    0.14 
   4   1   3    0.82    0.15 
   4   1   3    0.99    0.16 
   4   1   3    1.05    0.14 
   4   1   3    0.71    0.12 
   4   1   3    0.91    0.13 
  -5  -1  -3    0.63    0.14 
  -5  -1  -3    0.62    0.14 
   5   1   3    0.47    0.13 
   5   1   3    0.32    0.16 
   5   1   3    0.22    0.14 
   5   1   3    0.45    0.12 
   5   1   3    0.48    0.14 
  -6  -1  -3    6.55    0.38 
  -6  -1  -3    6.62    0.37 
   6   1   3    7.30    0.38 
   6   1   3    7.59    0.40 
   6   1   3    6.80    0.44 
   6   1   3    7.33    0.49 
   6   1   3    7.18    0.39 
  -7  -1  -3    0.07    0.11 
   7   1   3    0.07    0.16 
   7   1   3   -0.08    0.12 
   7   1   3    0.05    0.13 
   7   1   3   -0.01    0.15 
   8   1   3   -0.05    0.18 
   8   1   3   -0.09    0.17 
   8   1   3   -0.11    0.13 
   8   1   3    0.13    0.15 
   9  -2  -3   -0.05    0.18 
   9  -2  -3   -0.01    0.17 
   8  -2  -3    0.45    0.20 
   8  -2  -3    0.42    0.18 
  -8   2   3    0.45    0.20 
   7  -2  -3    8.96    0.46 
   7  -2  -3    8.19    0.50 
  -7   2   3    8.21    0.49 
   6  -2  -3    0.34    0.16 
   6  -2  -3    0.33    0.14 
  -6   2   3    0.39    0.16 
   5  -2  -3    0.41    0.15 
   5  -2  -3    0.13    0.12 
  -5   2   3    0.21    0.13 
   4  -2  -3    2.90    0.23 
   4  -2  -3    3.40    0.25 
   4  -2  -3    2.90    0.20 
  -4   2   3    2.61    0.23 
   3  -2  -3    3.68    0.18 
   3  -2  -3    4.03    0.23 
   3  -2  -3    3.83    0.24 
  -3   2   3    4.37    0.24 
  -3   2   3    4.16    0.24 
  -3   2   3    3.81    0.19 
   2  -2  -3    1.25    0.13 
   2  -2  -3    1.11    0.09 
   2  -2  -3    1.24    0.13 
  -2   2   3    0.98    0.12 
  -2   2   3    1.03    0.11 
  -2   2   3    1.11    0.09 
   1  -2  -3    0.90    0.10 
   1  -2  -3    1.14    0.04 
   1  -2  -3    1.14    0.11 
   1  -2  -3    1.14    0.09 
  -1   2   3    1.16    0.11 
  -1   2   3    1.14    0.11 
   0  -2  -3  153.37    3.17 
   0  -2  -3  152.11    3.17 
   0  -2  -3  153.09    3.17 
   0  -2  -3  161.66    3.19 
   0  -2  -3  153.29    3.15 
   0   2   3  159.99    3.17 
   0   2   3  156.73    3.18 
   0   2   3  158.90    3.08 
   0   2   3  155.92    3.17 
   0   2   3  147.85    3.17 
  -1  -2  -3   27.84    0.70 
  -1  -2  -3   29.14    0.65 
  -1  -2  -3   24.23    0.64 
  -1  -2  -3   28.28    0.70 
  -1  -2  -3   28.79    0.66 
  -1  -2  -3   28.77    0.65 
  -1  -2  -3   28.73    0.66 
   1   2   3   28.68    0.65 
   1   2   3   28.82    0.68 
   1   2   3   28.50    0.64 
   1   2   3   28.49    0.65 
   1   2   3   28.71    0.67 
   1   2   3   28.94    0.68 
   1   2   3   30.33    0.67 
  -2  -2  -3   52.83    1.25 
  -2  -2  -3   57.74    1.26 
  -2  -2  -3   57.07    1.25 
  -2  -2  -3   56.27    1.25 
  -2  -2  -3   58.48    1.29 
  -2  -2  -3   58.55    1.26 
   2   2   3   59.25    1.29 
   2   2   3   56.36    1.26 
   2   2   3   58.48    1.26 
   2   2   3   58.49    1.30 
   2   2   3   58.72    1.27 
   2   2   3   58.51    1.30 
   2   2   3   57.15    1.28 
  -3  -2  -3    5.36    0.23 
  -3  -2  -3    5.06    0.32 
   3   2   3    4.92    0.23 
   3   2   3    5.25    0.26 
   3   2   3    5.50    0.23 
   3   2   3    5.38    0.26 
   3   2   3    5.27    0.25 
   3   2   3    5.61    0.26 
  -4  -2  -3    1.16    0.14 
   4   2   3    1.17    0.15 
   4   2   3    1.22    0.14 
   4   2   3    1.27    0.17 
   4   2   3    1.11    0.17 
   4   2   3    1.13    0.17 
  -5  -2  -3    0.01    0.06 
  -5  -2  -3    0.24    0.09 
   5   2   3    0.13    0.10 
   5   2   3    0.22    0.10 
   5   2   3    0.36    0.16 
   5   2   3    0.28    0.13 
   5   2   3    0.25    0.14 
  -6  -2  -3   -0.03    0.09 
   6   2   3    0.20    0.16 
   6   2   3    0.07    0.11 
   6   2   3    0.07    0.13 
   6   2   3    0.14    0.14 
  -7  -2  -3    0.54    0.15 
   7   2   3    0.71    0.21 
   7   2   3    0.18    0.16 
   7   2   3    0.29    0.17 
   7   2   3    0.27    0.14 
   8   2   3   -0.11    0.18 
   8   2   3   -0.12    0.17 
   8   2   3    0.17    0.16 
   8  -3  -3    0.43    0.19 
   8  -3  -3    0.33    0.17 
  -8   3   3    0.20    0.19 
   7  -3  -3    1.02    0.20 
   7  -3  -3    1.10    0.24 
  -7   3   3    0.81    0.21 
   6  -3  -3    7.63    0.45 
   6  -3  -3    8.11    0.39 
  -6   3   3    7.36    0.45 
   5  -3  -3    1.00    0.18 
   5  -3  -3    1.00    0.16 
  -5   3   3    1.02    0.20 
   4  -3  -3    8.56    0.40 
   4  -3  -3    8.08    0.31 
  -4   3   3    8.07    0.39 
   3  -3  -3    7.70    0.35 
   3  -3  -3    8.17    0.27 
  -3   3   3    7.96    0.35 
  -3   3   3    8.50    0.29 
  -3   3   3    8.26    0.35 
   2  -3  -3   24.37    0.55 
   2  -3  -3   25.04    0.66 
   2  -3  -3   24.88    0.59 
   2  -3  -3   24.27    0.67 
  -2   3   3   24.73    0.57 
  -2   3   3   25.06    0.67 
  -2   3   3   24.51    0.67 
   1  -3  -3    6.97    0.25 
   1  -3  -3    6.86    0.25 
   1  -3  -3    6.91    0.23 
   1  -3  -3    6.96    0.26 
  -1   3   3    6.73    0.23 
  -1   3   3    6.76    0.25 
  -1   3   3    6.87    0.26 
  -1   3   3    6.73    0.16 
   0  -3  -3   -0.03    0.04 
   0  -3  -3    0.04    0.03 
   0  -3  -3    0.02    0.04 
   0  -3  -3    0.04    0.03 
   0  -3  -3    0.03    0.04 
   0  -3  -3    0.05    0.05 
   0   3   3    0.00    0.03 
   0   3   3    0.00    0.04 
   0   3   3    0.04    0.05 
   0   3   3    0.03    0.03 
   0   3   3    0.01    0.04 
  -1  -3  -3   35.43    0.76 
  -1  -3  -3   34.56    0.77 
  -1  -3  -3   34.36    0.76 
  -1  -3  -3   34.45    0.86 
  -1  -3  -3   34.43    0.85 
   1   3   3   33.94    0.78 
   1   3   3   34.65    0.78 
   1   3   3   35.17    0.83 
   1   3   3   34.23    0.79 
   1   3   3   34.33    0.78 
   1   3   3   34.91    0.80 
   1   3   3   35.00    0.84 
   1   3   3   34.17    0.79 
  -2  -3  -3   27.28    0.64 
  -2  -3  -3   27.53    0.63 
  -2  -3  -3   27.40    0.70 
  -2  -3  -3   28.00    0.66 
  -2  -3  -3   26.90    0.64 
   2   3   3   26.66    0.72 
   2   3   3   27.40    0.72 
   2   3   3   26.37    0.65 
   2   3   3   27.19    0.68 
   2   3   3   27.29    0.67 
   2   3   3   27.18    0.65 
   2   3   3   27.85    0.69 
  -3  -3  -3   21.47    0.55 
  -3  -3  -3   20.76    0.54 
  -3  -3  -3   20.67    0.55 
   3   3   3   20.96    0.63 
   3   3   3   20.95    0.56 
   3   3   3   21.36    0.63 
   3   3   3   19.08    0.55 
   3   3   3   19.94    0.58 
   3   3   3   21.48    0.61 
  -4  -3  -3   10.24    0.36 
  -4  -3  -3   10.37    0.33 
  -4  -3  -3    9.70    0.36 
   4   3   3   10.44    0.44 
   4   3   3   10.49    0.38 
   4   3   3   10.46    0.44 
   4   3   3   10.37    0.43 
   4   3   3    9.78    0.41 
   4   3   3    9.32    0.37 
  -5  -3  -3    2.35    0.20 
  -5  -3  -3    1.73    0.17 
   5   3   3    2.36    0.22 
   5   3   3    2.36    0.22 
   5   3   3    2.32    0.25 
   5   3   3    2.29    0.27 
   5   3   3    2.17    0.25 
  -6  -3  -3    0.21    0.10 
   6   3   3    0.10    0.11 
   6   3   3    0.22    0.16 
   6   3   3    0.20    0.15 
   6   3   3    0.19    0.12 
  -7  -3  -3    0.24    0.11 
   7   3   3    0.19    0.16 
   7   3   3    0.05    0.18 
   7   3   3    0.41    0.15 
   7   3   3    0.28    0.16 
   8  -4  -3    0.89    0.24 
   8  -4  -3    1.32    0.23 
  -8   4   3    0.83    0.26 
   7  -4  -3    0.56    0.20 
   7  -4  -3    0.31    0.15 
  -7   4   3    0.39    0.20 
   6  -4  -3    0.24    0.15 
   6  -4  -3    0.13    0.12 
  -6   4   3    0.26    0.16 
   5  -4  -3    3.10    0.30 
   5  -4  -3    2.74    0.21 
  -5   4   3    2.64    0.29 
   4  -4  -3    0.21    0.08 
   4  -4  -3    0.20    0.12 
   4  -4  -3    0.27    0.07 
  -4   4   3    0.14    0.12 
   3  -4  -3   26.53    0.64 
   3  -4  -3   27.94    0.64 
   3  -4  -3   25.45    0.76 
  -3   4   3   27.49    0.79 
  -3   4   3   26.58    0.67 
  -3   4   3   27.23    0.78 
   2  -4  -3   75.73    1.59 
   2  -4  -3   76.52    1.68 
  -2   4   3   76.23    1.57 
  -2   4   3   74.78    1.70 
  -2   4   3   71.62    1.69 
   1  -4  -3   12.19    0.37 
   1  -4  -3   12.39    0.37 
   1  -4  -3   12.57    0.37 
   1  -4  -3   12.81    0.34 
   1  -4  -3   12.64    0.39 
  -1   4   3   12.30    0.36 
  -1   4   3   12.49    0.39 
  -1   4   3   11.73    0.29 
  -1   4   3   12.34    0.39 
   0  -4  -3   50.66    1.01 
   0  -4  -3   42.74    1.02 
   0  -4  -3   49.12    1.02 
   0  -4  -3   47.91    1.12 
   0  -4  -3   46.71    1.12 
   0  -4  -3   49.50    1.04 
   0   4   3   47.45    1.08 
   0   4   3   48.21    1.08 
   0   4   3   49.44    1.11 
   0   4   3   47.13    1.02 
   0   4   3   48.85    1.10 
  -1  -4  -3    0.37    0.04 
  -1  -4  -3    0.35    0.04 
   1   4   3    0.31    0.07 
   1   4   3    0.39    0.09 
   1   4   3    0.32    0.06 
   1   4   3    0.19    0.07 
   1   4   3    0.39    0.07 
   1   4   3    0.29    0.05 
   1   4   3    0.38    0.06 
   1   4   3    0.31    0.06 
  -2  -4  -3    8.74    0.21 
  -2  -4  -3    8.76    0.21 
   2   4   3    8.80    0.36 
   2   4   3    9.50    0.36 
   2   4   3    8.99    0.30 
   2   4   3    8.56    0.28 
   2   4   3    8.96    0.28 
   2   4   3    8.80    0.33 
   2   4   3    8.74    0.29 
  -3  -4  -3    0.05    0.05 
  -3  -4  -3    0.06    0.04 
   3   4   3   -0.05    0.06 
   3   4   3    0.03    0.06 
   3   4   3   -0.05    0.11 
   3   4   3   -0.03    0.08 
   3   4   3   -0.08    0.10 
   3   4   3    0.00    0.05 
  -4  -4  -3   27.08    0.70 
  -4  -4  -3   26.61    0.64 
  -4  -4  -3   27.07    0.59 
  -4  -4  -3   26.66    0.67 
   4   4   3   27.10    0.78 
   4   4   3   27.72    0.84 
   4   4   3   27.32    0.73 
   4   4   3   27.46    0.83 
   4   4   3   26.94    0.81 
   4   4   3   26.22    0.73 
  -5  -4  -3    0.02    0.07 
   5   4   3    0.04    0.09 
   5   4   3   -0.02    0.14 
   5   4   3    0.17    0.11 
   5   4   3    0.02    0.12 
  -6  -4  -3    0.23    0.10 
   6   4   3    0.36    0.13 
   6   4   3    0.24    0.14 
   6   4   3    0.09    0.15 
   6   4   3    0.46    0.19 
  -7  -4  -3    0.13    0.11 
   7   4   3    0.03    0.15 
   7   4   3    0.09    0.13 
   7   4   3   -0.04    0.19 
   8  -5  -3    0.49    0.19 
   8  -5  -3    0.47    0.18 
  -8   5   3    0.40    0.24 
   7  -5  -3    0.04    0.14 
   7  -5  -3    0.09    0.13 
  -7   5   3   -0.08    0.16 
   6  -5  -3    0.44    0.13 
   6  -5  -3    0.28    0.14 
   6  -5  -3    0.30    0.08 
  -6   5   3    0.18    0.16 
   5  -5  -3    0.19    0.12 
   5  -5  -3    0.26    0.09 
   5  -5  -3    0.23    0.07 
  -5   5   3    0.18    0.15 
   4  -5  -3   -0.13    0.08 
   4  -5  -3    0.06    0.07 
   4  -5  -3    0.06    0.05 
  -4   5   3   -0.11    0.11 
   3  -5  -3    0.02    0.05 
   3  -5  -3   -0.08    0.07 
  -3   5   3    0.12    0.08 
  -3   5   3   -0.03    0.06 
  -3   5   3    0.08    0.11 
   2  -5  -3    3.04    0.19 
   2  -5  -3    3.00    0.18 
   2  -5  -3    3.01    0.17 
  -2   5   3    3.00    0.21 
  -2   5   3    2.98    0.14 
  -2   5   3    3.27    0.21 
   1  -5  -3    5.93    0.19 
   1  -5  -3    5.67    0.25 
   1  -5  -3    5.43    0.25 
  -1   5   3    5.81    0.24 
  -1   5   3    5.88    0.25 
  -1   5   3    5.74    0.17 
  -1   5   3    6.06    0.26 
   0  -5  -3    4.45    0.24 
   0   5   3    4.10    0.19 
   0   5   3    4.40    0.23 
   0   5   3    4.21    0.21 
   0   5   3    3.84    0.19 
   0   5   3    4.16    0.17 
   1   5   3    2.30    0.13 
   1   5   3    1.85    0.17 
   1   5   3    2.13    0.12 
   1   5   3    2.25    0.14 
   1   5   3    2.37    0.12 
   1   5   3    2.35    0.16 
   1   5   3    2.53    0.18 
   2   5   3    7.64    0.35 
   2   5   3    7.61    0.33 
   2   5   3    7.67    0.26 
   2   5   3    7.81    0.26 
   2   5   3    7.76    0.28 
   2   5   3    8.29    0.35 
   2   5   3    7.88    0.26 
   3   5   3    4.82    0.22 
   3   5   3    4.96    0.30 
   3   5   3    5.75    0.31 
   3   5   3    4.62    0.21 
   3   5   3    5.20    0.32 
   3   5   3    4.40    0.23 
  -4  -5  -3   10.25    0.34 
   4   5   3    9.95    0.48 
   4   5   3    9.72    0.41 
   4   5   3   10.56    0.47 
   4   5   3   10.43    0.38 
   4   5   3    9.75    0.37 
   4   5   3   10.82    0.48 
  -5  -5  -3    0.12    0.07 
   5   5   3    0.24    0.14 
   5   5   3   -0.26    0.13 
   5   5   3    0.04    0.10 
   5   5   3    0.15    0.09 
  -6  -5  -3    1.36    0.16 
   6   5   3    1.46    0.20 
   6   5   3    1.14    0.22 
   6   5   3    1.43    0.27 
   7   5   3   -0.01    0.20 
   7   5   3    0.08    0.14 
   8  -6  -3   -0.10    0.12 
   8  -6  -3   -0.11    0.14 
  -8   6   3    0.12    0.21 
   7  -6  -3   -0.07    0.10 
   7  -6  -3    0.08    0.14 
  -7   6   3    0.14    0.18 
   6  -6  -3    0.42    0.16 
   6  -6  -3    0.26    0.11 
  -6   6   3    0.43    0.18 
   5  -6  -3    1.02    0.10 
   5  -6  -3    0.67    0.16 
   5  -6  -3    0.90    0.13 
  -5   6   3    0.74    0.19 
   4  -6  -3    8.99    0.41 
   4  -6  -3    9.53    0.30 
  -4   6   3    9.87    0.47 
   3  -6  -3    2.29    0.18 
   3  -6  -3    2.06    0.15 
   3  -6  -3    2.43    0.20 
  -3   6   3    2.50    0.16 
  -3   6   3    2.79    0.26 
  -3   6   3    2.32    0.24 
   2  -6  -3   19.45    0.53 
   2  -6  -3   19.45    0.56 
   2  -6  -3   19.22    0.58 
  -2   6   3   19.11    0.49 
  -2   6   3   20.49    0.62 
  -2   6   3   19.52    0.52 
  -2   6   3   19.34    0.61 
   1  -6  -3    0.07    0.03 
   1  -6  -3    0.14    0.03 
   1  -6  -3    0.12    0.08 
   1  -6  -3    0.10    0.03 
  -1   6   3    0.10    0.07 
  -1   6   3    0.21    0.07 
  -1   6   3    0.19    0.08 
  -1   6   3    0.13    0.05 
   0  -6  -3    4.25    0.26 
   0   6   3    3.91    0.20 
   0   6   3    3.52    0.22 
   0   6   3    4.18    0.17 
   0   6   3    3.70    0.22 
   0   6   3    4.03    0.19 
   1   6   3    1.84    0.12 
   1   6   3    1.87    0.19 
   1   6   3    1.76    0.17 
   1   6   3    2.03    0.20 
   1   6   3    1.87    0.14 
   2   6   3    0.50    0.09 
   2   6   3    0.20    0.13 
   2   6   3    0.40    0.07 
   2   6   3    0.33    0.13 
   2   6   3    0.51    0.14 
   2   6   3    0.51    0.08 
   3   6   3    1.23    0.19 
   3   6   3    1.48    0.22 
   3   6   3    1.27    0.14 
   3   6   3    1.36    0.13 
   3   6   3    1.21    0.13 
   3   6   3    1.08    0.17 
   4   6   3    1.13    0.21 
   4   6   3    0.77    0.12 
   4   6   3    0.89    0.19 
   4   6   3    0.92    0.15 
   5   6   3    0.02    0.09 
   5   6   3    0.04    0.14 
   5   6   3    0.20    0.10 
   5   6   3    0.01    0.16 
   6   6   3    0.35    0.21 
   6   6   3   -0.05    0.11 
   6   6   3   -0.02    0.11 
  -7   7   3    1.58    0.31 
   6  -7  -3    2.78    0.30 
  -6   7   3    2.66    0.33 
   5  -7  -3    0.59    0.15 
  -5   7   3    0.49    0.18 
   4  -7  -3    2.42    0.22 
   4  -7  -3    2.64    0.16 
   4  -7  -3    2.84    0.21 
  -4   7   3    2.45    0.28 
   3  -7  -3    1.86    0.19 
   3  -7  -3    1.42    0.15 
  -3   7   3    1.03    0.18 
   2  -7  -3   33.11    0.91 
   2  -7  -3   34.19    0.76 
  -2   7   3   34.73    0.84 
  -2   7   3   33.98    0.93 
  -2   7   3   34.99    0.94 
  -2   7   3   33.06    0.80 
   1  -7  -3    0.15    0.10 
  -1   7   3    0.27    0.09 
  -1   7   3    0.20    0.08 
  -1   7   3    0.15    0.08 
  -1   7   3    0.15    0.06 
   0   7   3    5.20    0.28 
   0   7   3    5.82    0.26 
   0   7   3    5.33    0.24 
   0   7   3    5.56    0.24 
   1   7   3    0.12    0.11 
   1   7   3    0.21    0.06 
   1   7   3    0.19    0.10 
   1   7   3    0.26    0.10 
   1   7   3    0.28    0.07 
   2   7   3    8.45    0.40 
   2   7   3    9.68    0.44 
   2   7   3    8.57    0.31 
   2   7   3    9.31    0.40 
   2   7   3    9.24    0.30 
   3   7   3    0.36    0.14 
   3   7   3    0.27    0.15 
   4   7   3    0.39    0.11 
   4   7   3    0.65    0.11 
   4   7   3    0.42    0.18 
   4   7   3    0.67    0.19 
   5   7   3    0.22    0.10 
   5   7   3    0.31    0.18 
   5   7   3    0.05    0.11 
   6  -8  -3    0.49    0.15 
  -6   8   3    0.27    0.20 
   5  -8  -3    0.13    0.10 
  -5   8   3    0.05    0.14 
   4  -8  -3    0.81    0.15 
  -4   8   3    0.88    0.20 
   3  -8  -3    4.52    0.27 
  -3   8   3    4.07    0.31 
   2  -8  -3    5.40    0.31 
  -2   8   3    5.60    0.26 
  -2   8   3    5.71    0.32 
   1  -8  -3    1.41    0.19 
  -1   8   3    0.83    0.13 
  -1   8   3    0.67    0.12 
   0   8   3    5.44    0.30 
   0   8   3    5.28    0.25 
   0   8   3    5.52    0.28 
   1   8   3    0.49    0.14 
   1   8   3    0.46    0.15 
   1   8   3    0.49    0.09 
   1   8   3    0.37    0.12 
   2   8   3    0.42    0.15 
   2   8   3    0.60    0.10 
   2   8   3    0.46    0.15 
   3   8   3    0.00    0.06 
   3   8   3   -0.07    0.13 
   3   8   3    0.11    0.14 
   3   8   3    0.01    0.06 
   4   8   3    0.38    0.18 
   4   8   3    0.12    0.08 
   4   8   3    0.12    0.09 
  -5   9   3    0.07    0.15 
   4  -9  -3    0.55    0.14 
  -4   9   3    0.34    0.14 
   3  -9  -3    0.96    0.17 
  -3   9   3    0.74    0.17 
   2  -9  -3    0.05    0.10 
  -2   9   3   -0.02    0.08 
  -2   9   3    0.03    0.09 
  -1   9   3    0.04    0.07 
  -1   9   3    0.07    0.09 
   0   9   3    0.11    0.07 
   0   9   3    0.08    0.11 
   1   9   3   -0.04    0.11 
   1   9   3   -0.04    0.05 
   2   9   3    0.28    0.15 
   2   9   3    0.04    0.06 
   3   9   3    0.01    0.07 
  -4  10   3    0.12    0.13 
  -3  10   3    1.05    0.19 
  -2  10   3    0.19    0.11 
  -1  10   3    0.53    0.12 
   0  10   3    0.56    0.16 
   0  10   3    0.52    0.11 
   1  10   3    0.37    0.08 
   1  10   3    0.44    0.16 
   1  10  -4    0.22    0.06 
   1  10  -4    0.14    0.18 
   0  10  -4   -0.09    0.07 
  -1  10  -4   -0.02    0.08 
  -2  10  -4    0.25    0.12 
  -3  10  -4    0.31    0.14 
  -4  10  -4    0.16    0.15 
   3   9  -4    0.25    0.22 
   2   9  -4    1.00    0.09 
   2   9  -4    0.90    0.08 
   1   9  -4    0.03    0.05 
   0   9  -4   -0.02    0.07 
   0   9  -4   -0.09    0.11 
  -1   9  -4    0.00    0.08 
  -1   9  -4    0.15    0.17 
  -2   9  -4    5.03    0.31 
  -3   9  -4    0.79    0.18 
  -4   9  -4    1.52    0.25 
  -5   9  -4    0.20    0.17 
   4   8  -4    0.05    0.08 
   4   8  -4   -0.04    0.17 
   3   8  -4    0.01    0.05 
   3   8  -4    0.00    0.12 
   2   8  -4   -0.02    0.04 
   2   8  -4    0.00    0.04 
   2   8  -4   -0.02    0.04 
   2   8  -4    0.09    0.09 
   1   8  -4    1.58    0.12 
   1   8  -4    1.54    0.16 
   1   8  -4    1.62    0.11 
   0   8  -4    1.99    0.15 
   0   8  -4    2.04    0.15 
   0   8  -4    2.20    0.16 
  -1   8  -4    0.07    0.08 
  -2   8  -4    1.10    0.11 
  -2   8  -4    0.87    0.15 
  -3   8  -4    4.93    0.33 
  -4   8  -4    1.43    0.23 
  -5   8  -4    0.02    0.14 
  -6   8  -4   -0.02    0.18 
   5   7  -4    0.08    0.10 
   5   7  -4   -0.14    0.17 
   4   7  -4    0.36    0.09 
   4   7  -4    0.41    0.20 
   3   7  -4    0.54    0.09 
   3   7  -4    0.39    0.08 
   2   7  -4    0.03    0.04 
   2   7  -4   -0.05    0.04 
   2   7  -4    0.04    0.09 
   1   7  -4    0.27    0.05 
   1   7  -4    0.12    0.08 
   1   7  -4    0.18    0.05 
   1   7  -4    0.30    0.07 
   0   7  -4    0.09    0.06 
   0   7  -4    0.02    0.05 
   0   7  -4    0.10    0.06 
   0   7  -4    0.19    0.06 
  -1   7  -4   -0.04    0.07 
  -1   7  -4   -0.02    0.05 
  -1   7  -4    0.01    0.07 
  -2   7  -4    0.20    0.06 
  -2   7  -4    0.18    0.09 
  -2   7  -4    0.09    0.09 
  -2   7  -4    0.19    0.09 
  -3   7  -4    0.78    0.16 
  -3   7  -4    0.89    0.14 
   3  -7   4    1.19    0.12 
  -4   7  -4    2.90    0.26 
  -4   7  -4    2.69    0.30 
   4  -7   4    2.79    0.20 
  -5   7  -4    1.36    0.26 
   5  -7   4    1.39    0.18 
  -6   7  -4    0.95    0.24 
  -7   7  -4    1.59    0.33 
   6   6  -4    0.18    0.21 
   6   6  -4    0.13    0.11 
   5   6  -4   -0.04    0.08 
   5   6  -4    0.43    0.21 
   4   6  -4    0.05    0.07 
   4   6  -4   -0.06    0.15 
  -4  -6   4    0.00    0.04 
   3   6  -4    3.45    0.19 
   3   6  -4    3.86    0.20 
   2   6  -4    2.16    0.14 
   2   6  -4    2.26    0.13 
   1   6  -4    2.36    0.12 
   1   6  -4    2.44    0.14 
   1   6  -4    2.26    0.12 
   0   6  -4    0.38    0.07 
   0   6  -4    0.28    0.07 
   0   6  -4    0.26    0.06 
   0   6  -4    0.28    0.06 
  -1   6  -4   26.79    0.67 
  -1   6  -4   25.08    0.69 
  -1   6  -4   25.17    0.64 
  -1   6  -4   25.82    0.67 
  -2   6  -4    0.35    0.11 
  -2   6  -4    0.49    0.11 
  -2   6  -4    0.38    0.09 
  -2   6  -4    0.46    0.11 
   2  -6   4    0.35    0.06 
  -3   6  -4    1.14    0.16 
  -3   6  -4    1.36    0.18 
  -3   6  -4    1.20    0.18 
  -3   6  -4    1.19    0.15 
   3  -6   4    1.24    0.13 
  -4   6  -4    0.08    0.12 
  -4   6  -4    0.03    0.09 
  -4   6  -4   -0.04    0.12 
   4  -6   4   -0.03    0.07 
  -5   6  -4    9.95    0.53 
   5  -6   4   10.53    0.43 
   5  -6   4   10.28    0.26 
  -6   6  -4    1.36    0.27 
   6  -6   4    1.35    0.20 
  -7   6  -4   -0.16    0.15 
   7  -6   4   -0.18    0.11 
   7   5  -4    0.06    0.21 
   7   5  -4    0.23    0.14 
   6   5  -4   -0.15    0.18 
   6   5  -4    0.08    0.11 
   5   5  -4    0.30    0.18 
   5   5  -4    0.23    0.12 
   4   5  -4    0.13    0.08 
   4   5  -4   -0.01    0.07 
   4   5  -4   -0.19    0.11 
   3   5  -4    1.35    0.13 
   3   5  -4    1.51    0.14 
  -3  -5   4    1.54    0.10 
   2   5  -4    0.58    0.08 
   2   5  -4    0.59    0.09 
  -2  -5   4    0.58    0.06 
   1   5  -4   -0.02    0.03 
   1   5  -4    0.06    0.05 
  -1  -5   4    0.00    0.04 
   0   5  -4    0.05    0.04 
   0   5  -4    0.02    0.05 
   0   5  -4    0.00    0.04 
   0   5  -4   -0.03    0.04 
  -1   5  -4    6.43    0.26 
  -1   5  -4    5.77    0.23 
  -1   5  -4    6.29    0.24 
  -1   5  -4    5.91    0.16 
  -1   5  -4    5.64    0.24 
  -2   5  -4    1.92    0.15 
  -2   5  -4    2.03    0.18 
  -2   5  -4    2.04    0.17 
  -2   5  -4    2.07    0.16 
   2  -5   4    1.97    0.17 
   2  -5   4    2.10    0.13 
  -3   5  -4    0.44    0.13 
  -3   5  -4    0.47    0.11 
  -3   5  -4    0.47    0.11 
  -3   5  -4    0.45    0.12 
   3  -5   4    0.55    0.12 
   3  -5   4    0.50    0.10 
  -4   5  -4    2.49    0.25 
  -4   5  -4    2.17    0.22 
  -4   5  -4    1.86    0.23 
   4  -5   4    1.87    0.23 
   4  -5   4    2.28    0.20 
  -5   5  -4    1.51    0.21 
  -5   5  -4    1.15    0.22 
   5  -5   4    0.85    0.16 
  -6   5  -4   10.29    0.56 
   6  -5   4    9.50    0.46 
   6  -5   4    9.60    0.44 
  -7   5  -4    2.86    0.37 
   7  -5   4    3.06    0.31 
   7  -5   4    3.72    0.34 
  -8   5  -4    0.18    0.21 
   8  -5   4    0.39    0.19 
   8  -5   4    0.06    0.15 
   7   4  -4    0.09    0.13 
   7   4  -4    0.20    0.20 
   6   4  -4    0.32    0.21 
   6   4  -4    0.35    0.14 
   5   4  -4    5.06    0.32 
   5   4  -4    5.70    0.43 
   4   4  -4    2.18    0.28 
   4   4  -4    2.36    0.20 
   4   4  -4    2.13    0.20 
   3   4  -4    4.73    0.23 
   3   4  -4    4.57    0.23 
   2   4  -4    3.48    0.17 
   2   4  -4    4.37    0.19 
  -2  -4   4    3.59    0.15 
   1   4  -4   15.39    0.41 
   1   4  -4   14.95    0.40 
  -1  -4   4   15.19    0.39 
   0   4  -4   13.99    0.37 
   0   4  -4   13.69    0.39 
   0   4  -4   14.15    0.38 
   0   4  -4   13.65    0.37 
   0  -4   4   13.62    0.36 
   0  -4   4   13.97    0.39 
  -1   4  -4   28.50    0.73 
  -1   4  -4   30.81    0.71 
  -1   4  -4   28.75    0.71 
  -1   4  -4   28.47    0.71 
   1  -4   4   29.52    0.68 
   1  -4   4   28.99    0.72 
  -2   4  -4    2.94    0.19 
  -2   4  -4    2.77    0.17 
  -2   4  -4    2.87    0.19 
  -2   4  -4    2.80    0.18 
  -2   4  -4    2.91    0.12 
   2  -4   4    2.92    0.20 
   2  -4   4    3.13    0.16 
  -3   4  -4    5.76    0.28 
  -3   4  -4    6.12    0.29 
  -3   4  -4    5.53    0.30 
  -3   4  -4    5.50    0.29 
  -3   4  -4    5.36    0.16 
   3  -4   4    5.38    0.30 
   3  -4   4    5.70    0.25 
  -4   4  -4   26.20    0.82 
  -4   4  -4   27.23    0.79 
  -4   4  -4   24.74    0.79 
   4  -4   4   26.32    0.75 
   4  -4   4   26.39    0.83 
  -5   4  -4    0.00    0.11 
  -5   4  -4   -0.05    0.13 
   5  -4   4   -0.01    0.13 
   5  -4   4    0.01    0.11 
   5  -4   4   -0.05    0.10 
  -6   4  -4    1.34    0.25 
   6  -4   4    1.16    0.20 
   6  -4   4    1.32    0.20 
   6  -4   4    1.29    0.24 
   6  -4   4    1.01    0.09 
  -7   4  -4    3.46    0.39 
   7  -4   4    2.82    0.30 
   7  -4   4    2.77    0.29 
  -8   4  -4    5.74    0.50 
   8  -4   4    5.79    0.42 
   8  -4   4    5.81    0.43 
   8   3  -4    0.79    0.25 
   8   3  -4    0.37    0.18 
   7   3  -4    0.06    0.20 
   7   3  -4    0.21    0.14 
   6   3  -4    0.95    0.24 
   6   3  -4    1.04    0.20 
   5   3  -4    5.43    0.33 
   5   3  -4    5.23    0.32 
   5   3  -4    4.55    0.38 
  -5  -3   4    5.41    0.25 
   4   3  -4   -0.05    0.07 
   4   3  -4   -0.01    0.11 
   4   3  -4    0.12    0.09 
  -4  -3   4   -0.05    0.05 
   3   3  -4    0.17    0.07 
   3   3  -4    0.06    0.06 
  -3  -3   4    0.23    0.06 
   2   3  -4   -0.01    0.04 
   2   3  -4   -0.06    0.04 
  -2  -3   4    0.03    0.03 
   1   3  -4  128.35    2.64 
   1   3  -4  126.59    2.64 
  -1  -3   4  126.30    2.63 
  -1  -3   4  129.35    2.61 
   0   3  -4   12.22    0.34 
   0   3  -4   11.70    0.34 
   0   3  -4   11.46    0.32 
   0   3  -4   11.43    0.33 
   0  -3   4   11.56    0.33 
   0  -3   4   11.83    0.34 
  -1   3  -4    0.14    0.05 
  -1   3  -4    0.17    0.06 
  -1   3  -4    0.12    0.05 
  -1   3  -4    0.20    0.06 
   1  -3   4    0.08    0.04 
   1  -3   4    0.13    0.06 
   1  -3   4   -0.02    0.04 
   1  -3   4    0.19    0.05 
  -2   3  -4  106.28    2.33 
  -2   3  -4  109.16    2.32 
  -2   3  -4  109.03    2.31 
  -2   3  -4  107.46    2.32 
  -2   3  -4  106.40    2.20 
   2  -3   4  107.30    2.35 
   2  -3   4  109.22    2.29 
   2  -3   4  109.68    2.28 
  -3   3  -4   22.30    0.64 
  -3   3  -4   21.52    0.64 
  -3   3  -4   21.29    0.64 
  -3   3  -4   21.81    0.63 
  -3   3  -4   21.08    0.51 
   3  -3   4   20.52    0.60 
   3  -3   4   22.28    0.67 
  -4   3  -4   12.22    0.47 
  -4   3  -4   11.77    0.48 
  -4   3  -4   12.28    0.49 
   4  -3   4   11.68    0.32 
   4  -3   4   12.37    0.43 
   4  -3   4   12.34    0.51 
   4  -3   4   11.32    0.43 
  -5   3  -4    0.74    0.19 
  -5   3  -4    0.73    0.16 
   5  -3   4    0.63    0.09 
   5  -3   4    0.86    0.17 
   5  -3   4    0.59    0.18 
   5  -3   4    0.67    0.14 
  -6   3  -4    5.94    0.42 
  -6   3  -4    6.27    0.38 
   6  -3   4    5.83    0.34 
   6  -3   4    5.72    0.43 
   6  -3   4    5.75    0.24 
   6  -3   4    6.47    0.37 
  -7   3  -4    4.04    0.41 
   7  -3   4    4.70    0.23 
   7  -3   4    5.99    0.38 
   7  -3   4    4.77    0.35 
   7  -3   4    4.47    0.44 
  -8   3  -4    2.15    0.35 
   8  -3   4    2.78    0.31 
   8  -3   4    2.08    0.30 
   8   2  -4    0.54    0.26 
   8   2  -4    0.46    0.19 
   7   2  -4    0.26    0.20 
   7   2  -4    0.29    0.16 
   6   2  -4    0.18    0.13 
   6   2  -4    0.23    0.17 
   5   2  -4    4.22    0.31 
   5   2  -4    4.34    0.38 
   5   2  -4    4.16    0.29 
   4   2  -4    4.83    0.33 
   4   2  -4    5.25    0.28 
   4   2  -4    5.03    0.29 
  -4  -2   4    4.70    0.23 
   3   2  -4    0.02    0.07 
   3   2  -4    0.08    0.09 
   3   2  -4    0.07    0.06 
  -3  -2   4    0.10    0.06 
  -3  -2   4    0.07    0.06 
   2   2  -4   31.74    0.77 
   2   2  -4   32.00    0.77 
  -2  -2   4   31.12    0.73 
  -2  -2   4   30.79    0.74 
   1   2  -4    0.47    0.08 
   1   2  -4    0.56    0.08 
  -1  -2   4    0.33    0.06 
   0   2  -4    2.59    0.14 
   0   2  -4    2.91    0.14 
   0   2  -4    2.81    0.13 
   0  -2   4    2.78    0.14 
   0  -2   4    1.91    0.12 
  -1   2  -4   17.11    0.37 
  -1   2  -4   17.38    0.46 
  -1   2  -4   17.41    0.48 
  -1   2  -4   18.22    0.46 
  -1   2  -4   17.31    0.46 
   1  -2   4   17.68    0.48 
   1  -2   4   16.80    0.48 
   1  -2   4   17.17    0.45 
   1  -2   4   17.28    0.45 
  -2   2  -4    4.72    0.20 
  -2   2  -4    4.42    0.22 
  -2   2  -4    4.57    0.21 
  -2   2  -4    4.22    0.15 
  -2   2  -4    4.01    0.20 
  -2   2  -4    4.22    0.21 
   2  -2   4    4.35    0.22 
   2  -2   4    4.32    0.23 
   2  -2   4    3.89    0.19 
   2  -2   4    4.26    0.13 
   2  -2   4    4.37    0.20 
  -3   2  -4    0.13    0.07 
  -3   2  -4    0.25    0.08 
  -3   2  -4    0.23    0.08 
  -3   2  -4    0.17    0.05 
  -3   2  -4    0.14    0.09 
   3  -2   4    0.21    0.05 
   3  -2   4    0.03    0.08 
   3  -2   4    0.16    0.07 
   3  -2   4    0.09    0.06 
   3  -2   4    0.14    0.07 
  -4   2  -4    1.18    0.17 
  -4   2  -4    0.99    0.14 
   4  -2   4    0.97    0.18 
   4  -2   4    0.95    0.14 
   4  -2   4    1.07    0.10 
   4  -2   4    0.94    0.14 
  -5   2  -4   12.88    0.50 
  -5   2  -4   12.09    0.52 
   5  -2   4   11.87    0.37 
   5  -2   4   11.71    0.55 
   5  -2   4   12.12    0.47 
   5  -2   4   12.76    0.49 
  -6   2  -4    6.71    0.39 
  -6   2  -4    7.01    0.44 
   6  -2   4    7.50    0.30 
   6  -2   4    8.16    0.41 
   6  -2   4    7.17    0.47 
   6  -2   4    8.04    0.41 
  -7   2  -4    2.70    0.33 
   7  -2   4    2.67    0.21 
   7  -2   4    2.00    0.26 
   7  -2   4    2.56    0.37 
   7  -2   4    2.35    0.29 
   8  -2   4    0.63    0.19 
   8  -2   4    0.51    0.20 
   8   1  -4    0.06    0.19 
   8   1  -4   -0.05    0.14 
   7   1  -4    5.61    0.44 
   7   1  -4    5.79    0.42 
   6   1  -4    1.50    0.26 
   6   1  -4    1.06    0.20 
   6   1  -4    1.07    0.23 
  -6  -1   4    1.51    0.20 
   5   1  -4    0.06    0.13 
   5   1  -4   -0.09    0.09 
   5   1  -4    0.09    0.11 
  -5  -1   4    0.11    0.09 
   4   1  -4    0.07    0.08 
   4   1  -4    0.13    0.11 
   4   1  -4   -0.02    0.08 
  -4  -1   4   -0.02    0.07 
   3   1  -4    6.98    0.29 
   3   1  -4    6.84    0.31 
   3   1  -4    6.67    0.30 
  -3  -1   4    6.35    0.27 
   2   1  -4    2.82    0.17 
   2   1  -4    2.47    0.16 
  -2  -1   4    2.56    0.15 
  -2  -1   4    2.76    0.15 
   1   1  -4  181.90    3.69 
   1   1  -4  179.16    3.69 
  -1  -1   4  181.09    3.67 
  -1  -1   4  178.18    3.68 
   0   1  -4    0.83    0.08 
   0   1  -4    0.91    0.10 
   0   1  -4    1.11    0.10 
   0   1  -4    1.10    0.09 
   0  -1   4    1.06    0.10 
   0  -1   4    1.04    0.09 
  -1   1  -4   81.58    1.72 
  -1   1  -4   81.55    1.72 
  -1   1  -4   80.12    1.66 
  -1   1  -4   81.33    1.73 
  -1   1  -4   80.14    1.69 
  -1   1  -4   78.83    1.70 
  -1   1  -4   80.52    1.74 
   1  -1   4   80.28    1.71 
   1  -1   4   81.53    1.74 
   1  -1   4   83.50    1.72 
   1  -1   4   80.94    1.74 
  -2   1  -4   30.17    0.74 
  -2   1  -4   28.81    0.74 
  -2   1  -4   31.05    0.74 
  -2   1  -4   29.15    0.68 
  -2   1  -4   30.02    0.72 
  -2   1  -4   29.16    0.74 
   2  -1   4   29.08    0.71 
   2  -1   4   29.34    0.68 
   2  -1   4   29.36    0.72 
   2  -1   4   29.44    0.66 
   2  -1   4   29.63    0.76 
   2  -1   4   29.53    0.72 
  -3   1  -4   10.07    0.38 
  -3   1  -4   10.12    0.37 
  -3   1  -4   10.22    0.37 
  -3   1  -4   10.45    0.39 
  -3   1  -4    9.68    0.32 
   3  -1   4    9.71    0.36 
   3  -1   4   10.03    0.36 
   3  -1   4   10.28    0.31 
   3  -1   4   10.12    0.40 
   3  -1   4   10.37    0.31 
   3  -1   4   10.14    0.35 
  -4   1  -4    0.50    0.11 
  -4   1  -4    0.50    0.13 
   4  -1   4    0.45    0.12 
   4  -1   4    0.60    0.12 
   4  -1   4    0.49    0.13 
   4  -1   4    0.60    0.12 
   4  -1   4    0.34    0.08 
  -5   1  -4    2.66    0.25 
  -5   1  -4    3.06    0.29 
   5  -1   4    3.25    0.31 
   5  -1   4    2.90    0.24 
   5  -1   4    3.53    0.21 
   5  -1   4    3.32    0.25 
  -6   1  -4    8.56    0.43 
  -6   1  -4    7.63    0.44 
   6  -1   4    8.45    0.42 
   6  -1   4    8.02    0.49 
   6  -1   4    8.70    0.43 
   6  -1   4    8.78    0.36 
  -7   1  -4    0.15    0.16 
   7  -1   4    0.10    0.15 
   7  -1   4   -0.05    0.12 
   7  -1   4   -0.27    0.14 
   7  -1   4    0.07    0.10 
   8  -1   4    0.17    0.12 
   8  -1   4   -0.06    0.13 
   8  -1   4    0.12    0.18 
   8  -1   4    0.01    0.20 
   8   0  -4   -0.01    0.17 
   8   0  -4   -0.01    0.14 
   7   0  -4    0.35    0.17 
   7   0  -4    0.53    0.21 
  -7   0   4    0.52    0.19 
   6   0  -4    0.46    0.17 
   6   0  -4    0.20    0.15 
  -6   0   4    0.55    0.15 
   5   0  -4   -0.17    0.09 
   5   0  -4    0.01    0.10 
   5   0  -4   -0.05    0.12 
  -5   0   4   -0.04    0.09 
   4   0  -4    7.16    0.36 
   4   0  -4    7.54    0.35 
   4   0  -4    7.88    0.36 
  -4   0   4    7.52    0.34 
   3   0  -4   12.83    0.44 
   3   0  -4   12.94    0.44 
   3   0  -4   13.40    0.46 
  -3   0   4   13.36    0.45 
  -3   0   4   13.34    0.43 
   2   0  -4   26.08    0.67 
   2   0  -4   25.19    0.65 
   2   0  -4   25.49    0.67 
  -2   0   4   24.40    0.65 
  -2   0   4   26.18    0.65 
   1   0  -4   18.99    0.51 
   1   0  -4   19.31    0.51 
  -1   0   4   18.59    0.50 
  -1   0   4   19.03    0.50 
   0   0  -4    4.19    0.18 
   0   0  -4    4.19    0.17 
   0   0  -4    4.77    0.18 
   0   0  -4    4.30    0.17 
   0   0  -4    4.30    0.18 
   0   0   4    4.07    0.17 
   0   0   4    3.58    0.16 
   0   0   4    4.04    0.18 
  -1   0  -4    6.45    0.22 
  -1   0  -4    6.63    0.24 
  -1   0  -4    6.88    0.25 
  -1   0  -4    7.22    0.23 
  -1   0  -4    6.76    0.23 
  -1   0  -4    6.76    0.21 
  -1   0  -4    6.63    0.21 
   1   0   4    6.45    0.22 
   1   0   4    6.70    0.23 
   1   0   4    6.51    0.23 
   1   0   4    6.93    0.25 
   1   0   4    6.92    0.21 
  -2   0  -4   43.02    0.99 
  -2   0  -4   43.95    1.01 
  -2   0  -4   43.64    1.01 
  -2   0  -4   43.62    1.01 
  -2   0  -4   43.46    1.00 
  -2   0  -4   43.83    0.99 
   2   0   4   43.67    1.04 
   2   0   4   43.66    0.98 
   2   0   4   41.47    0.99 
   2   0   4   42.47    1.00 
   2   0   4   43.61    1.03 
   2   0   4   43.26    0.97 
   2   0   4   43.56    0.98 
  -3   0  -4    9.79    0.35 
  -3   0  -4    9.54    0.34 
  -3   0  -4    9.92    0.41 
  -3   0  -4    9.85    0.36 
   3   0   4   10.11    0.35 
   3   0   4    9.30    0.38 
   3   0   4    9.94    0.33 
   3   0   4    9.89    0.35 
   3   0   4    9.16    0.33 
   3   0   4   10.52    0.33 
  -4   0  -4    6.05    0.29 
  -4   0  -4    5.99    0.31 
   4   0   4    5.68    0.32 
   4   0   4    6.09    0.29 
   4   0   4    5.90    0.29 
   4   0   4    6.07    0.29 
   4   0   4    5.76    0.26 
  -5   0  -4   17.50    0.59 
  -5   0  -4   16.52    0.61 
   5   0   4   16.77    0.58 
   5   0   4   16.59    0.57 
   5   0   4   15.97    0.58 
   5   0   4   16.07    0.64 
   5   0   4   16.72    0.53 
  -6   0  -4    1.05    0.20 
  -6   0  -4    1.01    0.18 
   6   0   4    1.09    0.16 
   6   0   4    0.93    0.18 
   6   0   4    0.95    0.21 
   6   0   4    1.07    0.20 
  -7   0  -4   -0.13    0.10 
   7   0   4   -0.02    0.11 
   7   0   4    0.00    0.11 
   7   0   4   -0.12    0.14 
   7   0   4   -0.11    0.14 
   8   0   4    1.08    0.25 
   8   0   4    0.67    0.17 
   8   0   4    0.94    0.21 
   8   0   4    0.74    0.25 
   8  -1  -4    0.06    0.18 
   8  -1  -4   -0.10    0.14 
   7  -1  -4    0.21    0.16 
   7  -1  -4    0.06    0.16 
  -7   1   4    0.28    0.15 
   6  -1  -4    0.07    0.14 
   6  -1  -4    0.23    0.14 
  -6   1   4   -0.08    0.11 
   5  -1  -4    0.02    0.12 
   5  -1  -4    0.08    0.10 
  -5   1   4   -0.06    0.10 
   4  -1  -4    0.69    0.14 
   4  -1  -4    0.97    0.15 
   4  -1  -4    1.03    0.16 
  -4   1   4    1.13    0.15 
   3  -1  -4    1.47    0.14 
   3  -1  -4    1.64    0.18 
   3  -1  -4    1.16    0.15 
  -3   1   4    1.22    0.14 
  -3   1   4    1.25    0.14 
   2  -1  -4    4.86    0.20 
   2  -1  -4    4.89    0.24 
   2  -1  -4    4.87    0.23 
  -2   1   4    4.89    0.23 
  -2   1   4    4.65    0.22 
   1  -1  -4   15.53    0.44 
   1  -1  -4   15.18    0.43 
  -1   1   4   15.14    0.43 
  -1   1   4   14.75    0.43 
   0  -1  -4   61.59    1.35 
   0  -1  -4   62.12    1.33 
   0  -1  -4   62.30    1.32 
   0  -1  -4   61.06    1.26 
   0  -1  -4   60.29    1.34 
   0  -1  -4   62.04    1.33 
   0  -1  -4   58.31    1.32 
   0   1   4   62.24    1.35 
   0   1   4   63.10    1.36 
  -1  -1  -4    6.89    0.24 
  -1  -1  -4    7.06    0.24 
  -1  -1  -4    6.60    0.24 
  -1  -1  -4    6.85    0.21 
  -1  -1  -4    7.12    0.23 
  -1  -1  -4    6.59    0.24 
  -1  -1  -4    6.80    0.24 
  -1  -1  -4    7.29    0.25 
   1   1   4    6.89    0.23 
   1   1   4    6.88    0.20 
   1   1   4    7.05    0.25 
   1   1   4    6.96    0.23 
   1   1   4    7.00    0.23 
   1   1   4    6.53    0.25 
   1   1   4    6.83    0.24 
  -2  -1  -4   12.79    0.37 
  -2  -1  -4   12.02    0.37 
  -2  -1  -4   11.92    0.38 
  -2  -1  -4   12.18    0.37 
  -2  -1  -4   11.88    0.36 
  -2  -1  -4   11.78    0.37 
   2   1   4   11.67    0.36 
   2   1   4   12.52    0.38 
   2   1   4   11.30    0.36 
   2   1   4   11.44    0.36 
   2   1   4   11.77    0.35 
   2   1   4   11.74    0.36 
   2   1   4   12.01    0.39 
  -3  -1  -4    4.47    0.22 
  -3  -1  -4    4.75    0.24 
   3   1   4    4.37    0.22 
   3   1   4    4.47    0.23 
   3   1   4    4.25    0.22 
   3   1   4    4.51    0.25 
   3   1   4    4.40    0.22 
   3   1   4    4.11    0.22 
  -4  -1  -4    0.03    0.08 
  -4  -1  -4    0.03    0.07 
   4   1   4    0.00    0.07 
   4   1   4   -0.05    0.06 
   4   1   4    0.12    0.09 
   4   1   4   -0.01    0.10 
   4   1   4    0.11    0.08 
   4   1   4    0.10    0.10 
  -5  -1  -4    0.03    0.09 
  -5  -1  -4    0.01    0.10 
   5   1   4    0.12    0.11 
   5   1   4    0.04    0.09 
   5   1   4    0.03    0.11 
   5   1   4   -0.01    0.10 
   5   1   4   -0.07    0.11 
  -6  -1  -4    0.33    0.14 
  -6  -1  -4    0.50    0.14 
   6   1   4    0.53    0.16 
   6   1   4    0.34    0.16 
   6   1   4    0.33    0.14 
   6   1   4    0.30    0.13 
  -7  -1  -4    0.31    0.14 
   7   1   4    0.31    0.16 
   7   1   4    0.25    0.18 
   7   1   4    0.35    0.15 
   7   1   4    0.35    0.17 
   8   1   4    0.06    0.20 
   8   1   4    0.60    0.19 
   8   1   4    0.07    0.16 
   8   1   4    0.30    0.16 
   8  -2  -4    0.00    0.16 
   8  -2  -4   -0.17    0.15 
   7  -2  -4    3.79    0.38 
   7  -2  -4    4.74    0.36 
  -7   2   4    4.22    0.40 
   6  -2  -4    2.40    0.30 
   6  -2  -4    2.61    0.28 
  -6   2   4    2.95    0.31 
   5  -2  -4    1.94    0.21 
   5  -2  -4    1.77    0.24 
  -5   2   4    1.93    0.24 
   4  -2  -4    6.42    0.36 
   4  -2  -4    6.89    0.30 
  -4   2   4    6.37    0.33 
   3  -2  -4   27.56    0.79 
   3  -2  -4   27.72    0.77 
   3  -2  -4   27.32    0.69 
  -3   2   4   27.97    0.70 
  -3   2   4   27.52    0.77 
  -3   2   4   28.04    0.77 
   2  -2  -4   11.05    0.39 
   2  -2  -4   10.47    0.30 
  -2   2   4   10.60    0.38 
  -2   2   4   11.50    0.38 
   1  -2  -4   26.17    0.64 
   1  -2  -4   26.33    0.55 
   1  -2  -4   25.49    0.66 
   1  -2  -4   26.73    0.68 
  -1   2   4   26.45    0.67 
  -1   2   4   27.10    0.68 
   0  -2  -4   85.79    1.79 
   0  -2  -4   83.22    1.76 
   0  -2  -4   82.24    1.77 
   0  -2  -4   85.15    1.75 
   0  -2  -4   84.10    1.78 
   0  -2  -4   78.03    1.67 
   0  -2  -4   81.76    1.78 
   0   2   4   84.81    1.79 
   0   2   4   84.14    1.78 
   0   2   4   83.61    1.77 
  -1  -2  -4    0.36    0.06 
  -1  -2  -4    0.33    0.06 
  -1  -2  -4    0.38    0.06 
  -1  -2  -4    0.21    0.05 
  -1  -2  -4    0.33    0.07 
  -1  -2  -4    0.37    0.07 
  -1  -2  -4    0.35    0.07 
   1   2   4    0.33    0.05 
   1   2   4    0.24    0.07 
   1   2   4    0.25    0.06 
   1   2   4    0.27    0.06 
   1   2   4    0.28    0.06 
   1   2   4    0.31    0.08 
   1   2   4    0.34    0.06 
  -2  -2  -4   24.26    0.62 
  -2  -2  -4   24.77    0.65 
  -2  -2  -4   23.01    0.66 
  -2  -2  -4   24.59    0.61 
  -2  -2  -4   23.89    0.61 
  -2  -2  -4   23.96    0.62 
   2   2   4   23.68    0.64 
   2   2   4   23.53    0.63 
   2   2   4   24.22    0.64 
   2   2   4   22.52    0.60 
   2   2   4   24.60    0.64 
   2   2   4   24.48    0.61 
   2   2   4   24.12    0.60 
  -3  -2  -4    7.37    0.27 
  -3  -2  -4    6.43    0.27 
   3   2   4    7.16    0.29 
   3   2   4    7.12    0.28 
   3   2   4    6.84    0.31 
   3   2   4    7.20    0.31 
   3   2   4    6.64    0.28 
   3   2   4    7.01    0.31 
  -4  -2  -4   32.16    0.92 
  -4  -2  -4   36.49    0.93 
   4   2   4   36.94    0.94 
   4   2   4   37.31    0.98 
   4   2   4   36.66    1.00 
   4   2   4   36.19    0.94 
   4   2   4   36.52    0.95 
   4   2   4   37.44    0.97 
  -5  -2  -4   14.09    0.51 
  -5  -2  -4   13.90    0.50 
   5   2   4   14.57    0.58 
   5   2   4   13.09    0.52 
   5   2   4   13.04    0.51 
   5   2   4   13.12    0.52 
   5   2   4   12.85    0.50 
   5   2   4   13.18    0.50 
  -6  -2  -4    3.56    0.27 
   6   2   4    3.86    0.30 
   6   2   4    4.50    0.37 
   6   2   4    3.92    0.33 
   6   2   4    3.31    0.28 
   6   2   4    3.55    0.30 
  -7  -2  -4    2.13    0.25 
   7   2   4    1.83    0.30 
   7   2   4    2.11    0.26 
   7   2   4    2.51    0.29 
   7   2   4    2.02    0.27 
   8   2   4    0.64    0.20 
   8   2   4    0.97    0.25 
   8   2   4    0.94    0.30 
   8  -3  -4    0.11    0.16 
   8  -3  -4   -0.15    0.15 
  -8   3   4    0.08    0.19 
   7  -3  -4    2.21    0.25 
   7  -3  -4    2.37    0.32 
  -7   3   4    2.03    0.29 
   6  -3  -4    9.21    0.50 
   6  -3  -4    8.24    0.40 
  -6   3   4    8.93    0.48 
   5  -3  -4    1.01    0.16 
   5  -3  -4    0.89    0.18 
  -5   3   4    0.76    0.18 
   4  -3  -4   -0.11    0.07 
   4  -3  -4   -0.05    0.09 
  -4   3   4    0.05    0.11 
  -4   3   4    0.09    0.09 
   3  -3  -4   10.03    0.42 
   3  -3  -4   10.63    0.31 
  -3   3   4   10.64    0.42 
  -3   3   4   10.19    0.33 
  -3   3   4   11.34    0.42 
   2  -3  -4    0.26    0.08 
   2  -3  -4    0.28    0.07 
   2  -3  -4    0.19    0.04 
   2  -3  -4    0.53    0.11 
  -2   3   4    0.30    0.05 
  -2   3   4    0.23    0.09 
  -2   3   4    0.25    0.08 
   1  -3  -4   75.64    1.69 
   1  -3  -4   76.27    1.71 
   1  -3  -4   79.16    1.70 
   1  -3  -4   78.81    1.66 
  -1   3   4   79.96    1.71 
  -1   3   4   75.47    1.70 
   0  -3  -4   15.02    0.44 
   0  -3  -4   16.17    0.45 
   0  -3  -4   15.65    0.46 
   0  -3  -4   16.07    0.44 
   0  -3  -4   16.35    0.41 
   0   3   4   15.78    0.45 
   0   3   4   16.08    0.45 
   0   3   4   15.95    0.45 
  -1  -3  -4   44.46    1.08 
  -1  -3  -4   45.78    1.09 
  -1  -3  -4   45.55    1.02 
  -1  -3  -4   45.06    1.00 
  -1  -3  -4   44.47    1.01 
  -1  -3  -4   46.14    1.00 
   1   3   4   46.29    1.02 
   1   3   4   43.64    0.98 
   1   3   4   47.12    1.06 
   1   3   4   45.47    1.05 
   1   3   4   44.89    1.02 
   1   3   4   44.93    1.04 
   1   3   4   45.03    1.03 
   1   3   4   44.95    1.06 
  -2  -3  -4    4.63    0.20 
  -2  -3  -4    4.62    0.19 
  -2  -3  -4    4.65    0.20 
  -2  -3  -4    4.55    0.21 
  -2  -3  -4    4.76    0.20 
  -2  -3  -4    4.60    0.26 
   2   3   4    4.56    0.21 
   2   3   4    4.61    0.20 
   2   3   4    4.21    0.23 
   2   3   4    4.41    0.20 
   2   3   4    4.60    0.21 
   2   3   4    4.67    0.22 
  -3  -3  -4    0.07    0.05 
  -3  -3  -4    0.10    0.06 
  -3  -3  -4   -0.04    0.06 
   3   3   4   -0.05    0.06 
   3   3   4   -0.02    0.09 
   3   3   4   -0.03    0.09 
   3   3   4    0.11    0.06 
   3   3   4    0.06    0.09 
   3   3   4   -0.05    0.05 
  -4  -3  -4    2.39    0.18 
  -4  -3  -4    2.25    0.16 
  -4  -3  -4    2.42    0.19 
   4   3   4    2.14    0.19 
   4   3   4    2.42    0.24 
   4   3   4    2.22    0.19 
   4   3   4    2.55    0.24 
   4   3   4    2.26    0.22 
   4   3   4    2.15    0.23 
  -5  -3  -4    8.79    0.38 
  -5  -3  -4    8.92    0.38 
  -5  -3  -4    9.29    0.34 
   5   3   4    8.33    0.39 
   5   3   4    9.52    0.45 
   5   3   4    9.10    0.45 
   5   3   4    8.83    0.44 
   5   3   4    8.84    0.43 
  -6  -3  -4    1.16    0.17 
   6   3   4    1.24    0.23 
   6   3   4    1.01    0.21 
   6   3   4    1.04    0.18 
   6   3   4    1.43    0.23 
  -7  -3  -4    0.60    0.15 
   7   3   4    0.62    0.17 
   7   3   4    0.82    0.23 
   7   3   4    0.78    0.23 
   7   3   4    1.16    0.26 
   8  -4  -4   -0.14    0.15 
   8  -4  -4   -0.16    0.13 
  -8   4   4    0.05    0.19 
   7  -4  -4    1.08    0.19 
   7  -4  -4    0.79    0.23 
  -7   4   4    0.70    0.20 
   6  -4  -4    1.70    0.26 
   6  -4  -4    1.38    0.19 
  -6   4   4    0.86    0.21 
   5  -4  -4    0.12    0.09 
   5  -4  -4   -0.02    0.12 
  -5   4   4    0.13    0.13 
   4  -4  -4    2.32    0.24 
   4  -4  -4    2.93    0.17 
   4  -4  -4    2.71    0.16 
  -4   4   4    3.16    0.20 
  -4   4   4    2.11    0.23 
   3  -4  -4    6.07    0.21 
   3  -4  -4    6.57    0.33 
   3  -4  -4    6.47    0.24 
  -3   4   4    6.56    0.34 
  -3   4   4    6.14    0.31 
  -3   4   4    6.18    0.24 
   2  -4  -4   14.36    0.48 
   2  -4  -4   14.54    0.41 
  -2   4   4   14.73    0.36 
  -2   4   4   14.93    0.49 
  -2   4   4   14.80    0.49 
   1  -4  -4    0.54    0.09 
   1  -4  -4    0.75    0.11 
   1  -4  -4    0.60    0.09 
   1  -4  -4    1.04    0.10 
  -1   4   4    0.70    0.10 
  -1   4   4    0.52    0.10 
  -1   4   4    0.81    0.10 
   0  -4  -4   48.52    1.15 
   0  -4  -4   46.75    1.14 
   0  -4  -4   49.75    1.06 
   0  -4  -4   49.93    1.05 
   0  -4  -4   46.05    1.08 
   0   4   4   49.93    1.12 
   0   4   4   47.97    1.00 
   0   4   4   47.77    1.12 
   0   4   4   48.50    1.11 
  -1  -4  -4    1.51    0.16 
  -1  -4  -4    1.15    0.09 
  -1  -4  -4    1.32    0.09 
  -1  -4  -4    1.52    0.09 
  -1  -4  -4    1.44    0.16 
   1   4   4    1.45    0.12 
   1   4   4    1.46    0.13 
   1   4   4    1.52    0.16 
   1   4   4    1.49    0.11 
   1   4   4    1.35    0.14 
   1   4   4    1.48    0.11 
   1   4   4    1.57    0.11 
  -2  -4  -4    0.40    0.07 
  -2  -4  -4    0.46    0.06 
  -2  -4  -4    0.39    0.06 
   2   4   4    0.43    0.10 
   2   4   4    0.51    0.09 
   2   4   4    0.47    0.08 
   2   4   4    0.41    0.07 
   2   4   4    0.43    0.12 
   2   4   4    0.40    0.09 
   2   4   4    0.46    0.08 
  -3  -4  -4   24.52    0.61 
  -3  -4  -4   25.20    0.58 
  -3  -4  -4   24.58    0.65 
   3   4   4   23.23    0.65 
   3   4   4   24.88    0.70 
   3   4   4   25.55    0.75 
   3   4   4   25.25    0.70 
   3   4   4   24.58    0.66 
   3   4   4   26.72    0.76 
  -4  -4  -4    1.50    0.11 
  -4  -4  -4    1.35    0.14 
  -4  -4  -4    1.75    0.15 
   4   4   4    1.41    0.20 
   4   4   4    1.57    0.20 
   4   4   4    0.88    0.18 
   4   4   4    1.37    0.18 
   4   4   4    1.42    0.16 
   4   4   4    1.47    0.16 
  -5  -4  -4    0.08    0.08 
   5   4   4    0.06    0.13 
   5   4   4    0.07    0.14 
   5   4   4   -0.09    0.08 
   5   4   4   -0.03    0.08 
  -6  -4  -4    1.56    0.18 
   6   4   4    1.86    0.27 
   6   4   4    1.61    0.25 
   6   4   4    1.23    0.19 
   6   4   4    1.30    0.23 
  -7  -4  -4    1.86    0.22 
   7   4   4    2.00    0.32 
   7   4   4    2.10    0.32 
   7   4   4    2.01    0.25 
   8  -5  -4    0.06    0.17 
   8  -5  -4   -0.11    0.14 
  -8   5   4    0.25    0.20 
   7  -5  -4    2.47    0.32 
   7  -5  -4    2.48    0.26 
  -7   5   4    2.38    0.31 
   6  -5  -4   10.72    0.43 
   6  -5  -4   11.74    0.58 
   6  -5  -4   10.78    0.39 
  -6   5   4   11.41    0.58 
   5  -5  -4    4.91    0.34 
   5  -5  -4    4.94    0.22 
   5  -5  -4    5.17    0.25 
  -5   5   4    4.68    0.36 
   4  -5  -4    0.88    0.16 
   4  -5  -4    0.85    0.10 
   4  -5  -4    0.89    0.11 
  -4   5   4    1.10    0.20 
  -4   5   4    0.72    0.12 
   3  -5  -4    3.48    0.18 
   3  -5  -4    3.11    0.24 
  -3   5   4    3.34    0.27 
  -3   5   4    3.19    0.24 
  -3   5   4    3.40    0.17 
   2  -5  -4   31.92    0.85 
   2  -5  -4   32.65    0.81 
   2  -5  -4   32.54    0.86 
  -2   5   4   34.08    0.89 
  -2   5   4   33.12    0.72 
  -2   5   4   33.49    0.89 
   1  -5  -4    0.36    0.07 
   1  -5  -4    0.29    0.07 
   1  -5  -4    0.15    0.08 
   1  -5  -4    0.25    0.08 
  -1   5   4    0.36    0.09 
  -1   5   4    0.30    0.08 
  -1   5   4    0.31    0.03 
  -1   5   4    0.24    0.07 
   0  -5  -4    5.38    0.27 
   0  -5  -4    5.62    0.18 
   0  -5  -4    4.91    0.27 
   0  -5  -4    5.51    0.17 
   0  -5  -4    4.94    0.18 
   0   5   4    5.41    0.18 
   0   5   4    5.34    0.23 
   0   5   4    5.41    0.26 
   0   5   4    5.28    0.24 
  -1  -5  -4    1.11    0.06 
   1   5   4    0.81    0.12 
   1   5   4    1.15    0.13 
   1   5   4    1.27    0.12 
   1   5   4    1.13    0.11 
   1   5   4    1.11    0.15 
   1   5   4    1.38    0.12 
   1   5   4    0.98    0.11 
   2   5   4    6.80    0.26 
   2   5   4    7.09    0.29 
   2   5   4    7.25    0.30 
   2   5   4    7.22    0.27 
   2   5   4    7.00    0.27 
   2   5   4    7.51    0.34 
   2   5   4    7.42    0.35 
   3   5   4    0.43    0.14 
   3   5   4    0.51    0.15 
   3   5   4    0.70    0.11 
   3   5   4    0.47    0.13 
   3   5   4    0.75    0.13 
   3   5   4    0.54    0.10 
  -4  -5  -4    5.51    0.25 
   4   5   4    5.43    0.35 
   4   5   4    4.79    0.26 
   4   5   4    5.14    0.30 
   4   5   4    4.70    0.31 
  -5  -5  -4    1.68    0.17 
   5   5   4    1.36    0.17 
   5   5   4    1.79    0.25 
   5   5   4    1.74    0.24 
   5   5   4    1.60    0.21 
  -6  -5  -4    0.45    0.11 
   6   5   4    0.61    0.21 
   6   5   4    0.43    0.14 
   6   5   4    0.44    0.16 
   8  -6  -4    0.08    0.15 
   8  -6  -4    0.03    0.16 
   7  -6  -4   -0.04    0.10 
   7  -6  -4    0.01    0.15 
  -7   6   4    0.16    0.17 
   6  -6  -4    1.36    0.17 
   6  -6  -4    1.13    0.22 
  -6   6   4    1.26    0.25 
   5  -6  -4    0.50    0.16 
   5  -6  -4    0.80    0.10 
   5  -6  -4    0.77    0.12 
  -5   6   4    0.57    0.18 
   4  -6  -4    0.32    0.07 
   4  -6  -4    0.00    0.10 
  -4   6   4    0.08    0.13 
   3  -6  -4    1.00    0.16 
   3  -6  -4    0.88    0.11 
   3  -6  -4    0.76    0.13 
  -3   6   4    0.67    0.16 
  -3   6   4    0.63    0.14 
  -3   6   4    0.98    0.11 
   2  -6  -4    1.85    0.18 
   2  -6  -4    1.94    0.19 
   2  -6  -4    1.60    0.15 
  -2   6   4    1.82    0.11 
  -2   6   4    1.55    0.17 
  -2   6   4    1.73    0.19 
   1  -6  -4   12.67    0.35 
   1  -6  -4   12.52    0.34 
   1  -6  -4   12.90    0.46 
   1  -6  -4   13.37    0.47 
  -1   6   4   12.78    0.31 
  -1   6   4   12.72    0.42 
  -1   6   4   12.56    0.44 
  -1   6   4   13.01    0.44 
   0  -6  -4   12.39    0.47 
   0   6   4   12.65    0.43 
   0   6   4   11.93    0.40 
   0   6   4   11.92    0.37 
   0   6   4   12.34    0.35 
   0   6   4   11.96    0.40 
   1   6   4   10.85    0.36 
   1   6   4   10.80    0.36 
   1   6   4   10.56    0.42 
   1   6   4   11.12    0.38 
   1   6   4   11.58    0.44 
   2   6   4    0.18    0.06 
   2   6   4    0.14    0.10 
   2   6   4    0.11    0.12 
   2   6   4    0.04    0.09 
   2   6   4    0.18    0.07 
   3   6   4    2.62    0.21 
   3   6   4    2.37    0.17 
   3   6   4    2.99    0.29 
   3   6   4    2.32    0.19 
   3   6   4    3.01    0.25 
   4   6   4    1.53    0.19 
   4   6   4    1.80    0.18 
   4   6   4    1.58    0.23 
   4   6   4    1.62    0.24 
   5   6   4    0.68    0.13 
   5   6   4    0.64    0.16 
   5   6   4    0.98    0.21 
   6   6   4    0.19    0.14 
   6   6   4    0.20    0.19 
   6   6   4    0.24    0.13 
  -7   7   4    0.47    0.21 
   6  -7  -4    0.30    0.17 
  -6   7   4    0.28    0.17 
   5  -7  -4    0.87    0.17 
  -5   7   4    1.05    0.22 
   4  -7  -4    4.37    0.27 
   4  -7  -4    4.42    0.22 
   4  -7  -4    4.18    0.29 
  -4   7   4    4.66    0.35 
   3  -7  -4    2.28    0.19 
   3  -7  -4    2.52    0.21 
   3  -7  -4    2.16    0.19 
  -3   7   4    1.96    0.22 
   2  -7  -4   20.97    0.65 
   2  -7  -4   21.78    0.56 
   2  -7  -4   21.91    0.56 
   2  -7  -4   22.07    0.67 
  -2   7   4   21.16    0.69 
   1  -7  -4    0.65    0.13 
  -1   7   4    0.67    0.12 
  -1   7   4    0.48    0.11 
  -1   7   4    0.72    0.15 
   0  -7  -4    0.32    0.11 
   0   7   4    0.27    0.08 
   0   7   4    0.16    0.10 
   0   7   4    0.13    0.08 
   1   7   4    0.03    0.08 
   1   7   4   -0.01    0.05 
   1   7   4    0.04    0.09 
   1   7   4    0.02    0.09 
   2   7   4    2.37    0.21 
   2   7   4    2.09    0.15 
   2   7   4    2.22    0.25 
   2   7   4    2.04    0.17 
   3   7   4    1.90    0.22 
   3   7   4    2.40    0.27 
   3   7   4    1.94    0.20 
   3   7   4    2.18    0.16 
   4   7   4    0.24    0.09 
   4   7   4    0.30    0.11 
   4   7   4    0.27    0.16 
   4   7   4    0.54    0.22 
   5   7   4    0.46    0.13 
   5   7   4    0.70    0.21 
   5   7   4    0.71    0.16 
  -6   8   4    0.43    0.20 
   5  -8  -4   -0.06    0.09 
  -5   8   4    0.01    0.14 
   4  -8  -4    2.27    0.23 
  -4   8   4    1.83    0.27 
   3  -8  -4    0.01    0.09 
  -3   8   4    0.03    0.10 
   2  -8  -4    2.15    0.23 
  -2   8   4    3.01    0.25 
   1  -8  -4    0.02    0.09 
  -1   8   4    0.04    0.09 
  -1   8   4   -0.01    0.07 
   0   8   4    1.91    0.18 
   0   8   4    2.16    0.20 
   0   8   4    1.90    0.20 
   1   8   4    1.39    0.15 
   1   8   4    1.07    0.17 
   1   8   4    1.44    0.17 
   2   8   4    0.07    0.06 
   2   8   4    0.30    0.14 
   2   8   4    0.03    0.10 
   3   8   4    0.77    0.13 
   3   8   4    0.78    0.21 
   3   8   4    0.80    0.18 
   3   8   4    0.80    0.11 
   4   8   4    0.82    0.22 
   4   8   4    0.87    0.16 
   4   8   4    0.90    0.13 
  -5   9   4    0.98    0.24 
  -4   9   4    0.11    0.12 
   3  -9  -4    0.24    0.12 
  -3   9   4    0.25    0.12 
   2  -9  -4    0.26    0.15 
  -2   9   4    0.33    0.12 
  -1   9   4    1.28    0.16 
  -1   9   4    1.61    0.19 
   0   9   4    2.28    0.23 
   0   9   4    2.17    0.19 
   1   9   4    0.21    0.13 
   1   9   4    0.16    0.08 
   2   9   4    2.25    0.31 
   2   9   4    1.76    0.17 
   3   9   4    0.08    0.08 
  -3  10   4    0.06    0.11 
  -2  10   4   -0.07    0.08 
  -1  10   4    0.98    0.16 
   0  10   4    0.11    0.11 
   0  10   4    0.08    0.08 
   1  10  -5    2.13    0.20 
   1  10  -5    1.61    0.14 
   0  10  -5    0.46    0.10 
  -1  10  -5    0.06    0.09 
  -2  10  -5    0.23    0.13 
  -3  10  -5    0.44    0.17 
   3   9  -5    0.18    0.06 
   2   9  -5    0.42    0.08 
   2   9  -5    0.38    0.07 
   1   9  -5    0.15    0.07 
   1   9  -5    0.17    0.07 
   0   9  -5   -0.10    0.06 
  -1   9  -5    0.64    0.13 
  -2   9  -5    0.27    0.12 
  -3   9  -5    0.12    0.11 
  -4   9  -5    0.02    0.13 
  -5   9  -5    0.03    0.16 
   4   8  -5    0.03    0.08 
   4   8  -5    0.07    0.18 
   3   8  -5    1.28    0.21 
   3   8  -5    1.44    0.15 
   2   8  -5    0.37    0.07 
   2   8  -5    0.51    0.09 
   2   8  -5    0.68    0.14 
   1   8  -5    0.21    0.09 
   1   8  -5    0.21    0.07 
   1   8  -5    0.07    0.06 
   0   8  -5    0.11    0.06 
   0   8  -5    0.07    0.07 
  -1   8  -5   -0.03    0.07 
  -2   8  -5    0.08    0.10 
  -3   8  -5    9.60    0.47 
  -4   8  -5    0.68    0.19 
  -5   8  -5    0.22    0.17 
  -6   8  -5    1.11    0.27 
   5   7  -5   -0.09    0.09 
   5   7  -5    0.19    0.21 
   4   7  -5    0.15    0.19 
   4   7  -5    0.01    0.08 
   3   7  -5    0.05    0.07 
   2   7  -5    0.46    0.08 
   2   7  -5    0.33    0.07 
   2   7  -5    0.46    0.09 
   1   7  -5    0.66    0.10 
   1   7  -5    0.59    0.09 
   1   7  -5    0.50    0.10 
   1   7  -5    0.64    0.09 
   0   7  -5    2.12    0.14 
   0   7  -5    2.17    0.14 
   0   7  -5    1.89    0.16 
   0   7  -5    2.15    0.15 
  -1   7  -5    0.33    0.10 
  -1   7  -5    0.17    0.07 
  -1   7  -5    0.17    0.09 
  -2   7  -5    3.84    0.26 
  -2   7  -5    3.87    0.22 
  -2   7  -5    3.82    0.26 
  -3   7  -5    0.31    0.12 
  -3   7  -5    0.21    0.09 
   3  -7   5    0.27    0.08 
  -4   7  -5    0.87    0.19 
  -4   7  -5    1.19    0.19 
   4  -7   5    1.30    0.16 
  -5   7  -5    0.07    0.16 
   5  -7   5    0.18    0.16 
  -6   7  -5    0.23    0.19 
  -7   7  -5    0.51    0.23 
   6   6  -5    0.40    0.24 
   6   6  -5    0.18    0.13 
   5   6  -5    0.43    0.13 
   5   6  -5    0.89    0.26 
   4   6  -5    0.73    0.13 
   4   6  -5    1.03    0.25 
  -4  -6   5    0.81    0.09 
   3   6  -5    2.38    0.17 
   3   6  -5    2.08    0.17 
  -3  -6   5    2.25    0.12 
   2   6  -5    0.08    0.06 
   2   6  -5    0.17    0.07 
  -2  -6   5    0.11    0.04 
   1   6  -5    0.38    0.08 
   1   6  -5    0.57    0.09 
   1   6  -5    0.28    0.06 
   1   6  -5    0.35    0.07 
   0   6  -5    0.02    0.05 
   0   6  -5    0.19    0.06 
   0   6  -5    0.04    0.05 
   0   6  -5    0.01    0.06 
  -1   6  -5    0.00    0.05 
  -1   6  -5   -0.04    0.06 
  -1   6  -5   -0.04    0.05 
  -1   6  -5    0.04    0.07 
  -2   6  -5    0.03    0.08 
  -2   6  -5    0.12    0.08 
  -2   6  -5    0.16    0.09 
  -2   6  -5    0.12    0.07 
   2  -6   5    0.07    0.05 
  -3   6  -5    7.51    0.38 
  -3   6  -5    6.98    0.33 
  -3   6  -5    6.87    0.18 
  -3   6  -5    6.98    0.36 
  -3   6  -5    6.86    0.35 
   3  -6   5    7.58    0.29 
  -4   6  -5   23.59    0.80 
  -4   6  -5   23.11    0.74 
   4  -6   5   22.47    0.67 
  -5   6  -5    1.14    0.23 
   5  -6   5    1.67    0.19 
  -6   6  -5    0.15    0.18 
   6  -6   5   -0.11    0.09 
  -7   6  -5    1.85    0.33 
   7  -6   5    1.42    0.23 
   7   5  -5    0.22    0.22 
   7   5  -5    0.07    0.14 
   6   5  -5   -0.12    0.17 
   6   5  -5   -0.04    0.11 
   5   5  -5    0.08    0.18 
   5   5  -5    0.24    0.11 
   4   5  -5   -0.03    0.14 
   4   5  -5    0.25    0.10 
   4   5  -5    0.26    0.09 
   3   5  -5    0.75    0.11 
   3   5  -5    0.67    0.11 
  -3  -5   5    0.61    0.08 
   2   5  -5    2.75    0.17 
   2   5  -5    3.28    0.18 
  -2  -5   5    2.70    0.14 
   1   5  -5    4.08    0.20 
   1   5  -5    4.41    0.18 
   1   5  -5    4.00    0.20 
  -1  -5   5    4.46    0.19 
   0   5  -5    7.80    0.28 
   0   5  -5    8.19    0.29 
   0   5  -5    7.83    0.27 
   0  -5   5    8.00    0.24 
   0  -5   5    8.02    0.29 
  -1   5  -5    0.85    0.10 
  -1   5  -5    1.13    0.12 
  -1   5  -5    0.92    0.12 
  -1   5  -5    0.84    0.11 
   1  -5   5    1.12    0.12 
  -2   5  -5    2.67    0.20 
  -2   5  -5    2.94    0.19 
  -2   5  -5    2.25    0.19 
  -2   5  -5    2.61    0.18 
   2  -5   5    2.57    0.15 
   2  -5   5    1.57    0.17 
  -3   5  -5   12.29    0.46 
  -3   5  -5   11.74    0.47 
  -3   5  -5   11.04    0.46 
  -3   5  -5   10.92    0.29 
  -3   5  -5   11.95    0.44 
   3  -5   5   12.37    0.49 
   3  -5   5   11.43    0.39 
  -4   5  -5   25.10    0.79 
  -4   5  -5   24.30    0.76 
  -4   5  -5   23.88    0.80 
   4  -5   5   24.86    0.71 
   4  -5   5   24.91    0.82 
  -5   5  -5    4.66    0.33 
  -5   5  -5    5.11    0.38 
   5  -5   5    4.78    0.37 
   5  -5   5    5.04    0.30 
   5  -5   5    4.69    0.16 
  -6   5  -5    0.28    0.18 
   6  -5   5    0.10    0.11 
  -7   5  -5    0.04    0.20 
   7  -5   5    0.05    0.13 
  -8   5  -5    1.35    0.34 
   8  -5   5    1.62    0.26 
   8  -5   5    1.29    0.25 
   7   4  -5    0.14    0.14 
   7   4  -5    0.12    0.21 
   6   4  -5   -0.05    0.16 
   6   4  -5    0.30    0.14 
   5   4  -5    0.07    0.17 
   5   4  -5    0.20    0.11 
   4   4  -5    0.62    0.13 
   4   4  -5    0.79    0.13 
   4   4  -5    0.69    0.20 
  -4  -4   5    0.84    0.08 
   3   4  -5    0.17    0.07 
   3   4  -5    0.12    0.08 
  -3  -4   5    0.13    0.04 
   2   4  -5   13.71    0.43 
   2   4  -5   13.93    0.43 
  -2  -4   5   14.24    0.40 
  -2  -4   5   13.81    0.34 
   1   4  -5    1.50    0.12 
   1   4  -5    1.47    0.12 
  -1  -4   5    1.19    0.11 
  -1  -4   5    1.45    0.10 
   0   4  -5    1.15    0.11 
   0   4  -5    1.07    0.11 
   0   4  -5    1.12    0.12 
   0  -4   5    0.98    0.10 
   0  -4   5    1.11    0.11 
  -1   4  -5    0.18    0.07 
  -1   4  -5    0.33    0.07 
  -1   4  -5    0.28    0.07 
  -1   4  -5    0.29    0.08 
   1  -4   5    0.21    0.07 
   1  -4   5    0.31    0.06 
   1  -4   5    0.21    0.07 
  -2   4  -5    3.86    0.21 
  -2   4  -5    3.37    0.15 
  -2   4  -5    4.12    0.22 
  -2   4  -5    3.41    0.21 
  -2   4  -5    3.55    0.22 
   2  -4   5    3.54    0.23 
   2  -4   5    3.59    0.18 
  -3   4  -5    0.12    0.04 
  -3   4  -5    0.19    0.10 
  -3   4  -5    0.07    0.09 
  -3   4  -5    0.14    0.09 
  -3   4  -5    0.00    0.07 
   3  -4   5    0.06    0.08 
   3  -4   5    0.36    0.12 
  -4   4  -5    0.88    0.18 
  -4   4  -5    1.33    0.19 
  -4   4  -5    1.31    0.18 
   4  -4   5    1.24    0.07 
   4  -4   5    1.43    0.18 
   4  -4   5    0.89    0.19 
  -5   4  -5    0.12    0.13 
  -5   4  -5    0.19    0.10 
   5  -4   5    0.30    0.15 
   5  -4   5    0.31    0.13 
  -6   4  -5    4.86    0.44 
   6  -4   5    4.06    0.31 
   6  -4   5    4.21    0.31 
   6  -4   5    4.52    0.40 
  -7   4  -5    0.25    0.19 
   7  -4   5    0.25    0.14 
   7  -4   5    0.03    0.17 
   7  -4   5    0.42    0.17 
  -8   4  -5    0.19    0.22 
   8  -4   5   -0.02    0.15 
   8  -4   5    0.23    0.18 
   7   3  -5    0.70    0.25 
   7   3  -5    0.26    0.16 
   6   3  -5   -0.22    0.15 
   6   3  -5   -0.01    0.10 
   5   3  -5    0.85    0.18 
   5   3  -5    0.78    0.22 
   5   3  -5    0.71    0.16 
  -5  -3   5    0.83    0.12 
   4   3  -5    0.54    0.17 
   4   3  -5    0.55    0.12 
   4   3  -5    0.61    0.14 
  -4  -3   5    0.94    0.12 
   3   3  -5    1.24    0.14 
   3   3  -5    0.89    0.13 
  -3  -3   5    1.18    0.11 
   2   3  -5   10.03    0.35 
   2   3  -5    9.96    0.35 
  -2  -3   5   10.22    0.31 
   1   3  -5   64.82    1.42 
   1   3  -5   62.58    1.42 
  -1  -3   5   64.88    1.39 
  -1  -3   5   64.22    1.40 
   0   3  -5    0.09    0.06 
   0   3  -5    0.05    0.04 
   0   3  -5    0.04    0.04 
   0  -3   5    0.04    0.05 
   0  -3   5   -0.01    0.03 
  -1   3  -5    9.91    0.31 
  -1   3  -5    8.57    0.31 
  -1   3  -5    9.08    0.31 
  -1   3  -5    8.99    0.20 
  -1   3  -5    8.77    0.32 
   1  -3   5    9.14    0.33 
   1  -3   5    9.10    0.30 
   1  -3   5    9.05    0.33 
  -2   3  -5    1.30    0.15 
  -2   3  -5    1.32    0.09 
  -2   3  -5    1.58    0.15 
  -2   3  -5    1.13    0.13 
  -2   3  -5    0.91    0.11 
   2  -3   5    1.45    0.12 
   2  -3   5    1.16    0.14 
   2  -3   5    1.50    0.16 
  -3   3  -5    2.14    0.30 
  -3   3  -5    1.34    0.10 
  -3   3  -5    1.41    0.17 
  -3   3  -5    1.36    0.16 
  -3   3  -5    1.20    0.14 
   3  -3   5    1.44    0.07 
   3  -3   5    1.31    0.14 
   3  -3   5    1.91    0.21 
  -4   3  -5    5.67    0.31 
  -4   3  -5    6.04    0.35 
   4  -3   5    6.14    0.30 
   4  -3   5    5.66    0.36 
   4  -3   5    5.24    0.29 
   4  -3   5    5.69    0.21 
  -5   3  -5    2.49    0.24 
  -5   3  -5    2.44    0.27 
   5  -3   5    2.66    0.15 
   5  -3   5    3.13    0.25 
   5  -3   5    2.32    0.28 
   5  -3   5    2.34    0.23 
  -6   3  -5    6.54    0.44 
   6  -3   5    6.83    0.38 
   6  -3   5    7.01    0.27 
   6  -3   5    6.00    0.45 
   6  -3   5    6.98    0.39 
  -7   3  -5    0.98    0.24 
   7  -3   5    1.43    0.29 
   7  -3   5    1.44    0.22 
   7  -3   5    1.37    0.15 
   7  -3   5    1.23    0.22 
  -8   3  -5    1.27    0.30 
   8  -3   5    1.26    0.24 
   8  -3   5    1.39    0.25 
   8   2  -5    0.46    0.21 
   8   2  -5    0.66    0.25 
   7   2  -5   -0.08    0.17 
   7   2  -5    0.02    0.13 
   6   2  -5    0.01    0.15 
   6   2  -5   -0.15    0.10 
   5   2  -5    3.77    0.29 
   5   2  -5    3.94    0.37 
   5   2  -5    3.57    0.29 
   4   2  -5    0.50    0.12 
   4   2  -5    0.42    0.12 
   4   2  -5    0.21    0.14 
   3   2  -5    0.04    0.07 
   3   2  -5   -0.02    0.07 
  -3  -2   5   -0.01    0.03 
   2   2  -5   71.06    1.58 
   2   2  -5   71.65    1.59 
  -2  -2   5   70.18    1.54 
   1   2  -5    7.34    0.27 
   1   2  -5    7.92    0.28 
  -1  -2   5    7.52    0.26 
  -1  -2   5    6.74    0.25 
   0   2  -5    1.24    0.10 
   0   2  -5    1.41    0.13 
   0   2  -5    1.58    0.12 
   0  -2   5    1.43    0.13 
   0  -2   5    1.35    0.12 
  -1   2  -5   10.21    0.25 
  -1   2  -5   10.78    0.33 
  -1   2  -5   10.49    0.34 
  -1   2  -5   10.69    0.34 
  -1   2  -5   10.27    0.35 
   1  -2   5   10.04    0.32 
   1  -2   5   10.21    0.35 
   1  -2   5   10.28    0.35 
   1  -2   5   10.43    0.33 
  -2   2  -5   38.11    0.91 
  -2   2  -5   36.95    0.92 
  -2   2  -5   36.97    0.84 
  -2   2  -5   36.07    0.91 
  -2   2  -5   38.04    0.93 
   2  -2   5   37.43    0.90 
   2  -2   5   36.98    0.94 
   2  -2   5   37.66    0.95 
   2  -2   5   37.09    0.90 
  -3   2  -5   -0.01    0.07 
  -3   2  -5   -0.01    0.04 
  -3   2  -5   -0.03    0.07 
  -3   2  -5   -0.02    0.05 
   3  -2   5   -0.04    0.06 
   3  -2   5    0.07    0.09 
   3  -2   5   -0.06    0.06 
   3  -2   5   -0.03    0.05 
   3  -2   5    0.03    0.04 
  -4   2  -5   -0.05    0.07 
  -4   2  -5   -0.11    0.09 
   4  -2   5    0.07    0.08 
   4  -2   5    0.06    0.06 
   4  -2   5   -0.01    0.05 
   4  -2   5    0.12    0.11 
   4  -2   5    0.06    0.09 
  -5   2  -5    7.28    0.41 
  -5   2  -5    6.88    0.37 
   5  -2   5    7.21    0.43 
   5  -2   5    7.02    0.37 
   5  -2   5    7.63    0.36 
   5  -2   5    6.98    0.28 
  -6   2  -5   -0.07    0.08 
  -6   2  -5   -0.03    0.13 
   6  -2   5    0.04    0.10 
   6  -2   5   -0.02    0.11 
   6  -2   5    0.03    0.07 
   6  -2   5   -0.13    0.13 
  -7   2  -5    1.79    0.29 
   7  -2   5    1.72    0.26 
   7  -2   5    1.57    0.23 
   7  -2   5    1.17    0.26 
   7  -2   5    1.66    0.17 
   8  -2   5    6.83    0.45 
   8  -2   5    6.53    0.56 
   8  -2   5    6.02    0.45 
   8   1  -5    0.40    0.23 
   8   1  -5    0.45    0.20 
   7   1  -5    0.43    0.20 
   7   1  -5    1.05    0.23 
   6   1  -5    0.06    0.13 
   6   1  -5    0.06    0.16 
  -6  -1   5    0.18    0.11 
   5   1  -5    0.05    0.14 
   5   1  -5    0.13    0.13 
   5   1  -5    0.08    0.12 
  -5  -1   5   -0.02    0.09 
   4   1  -5    0.11    0.10 
   4   1  -5    0.19    0.13 
   4   1  -5    0.14    0.09 
  -4  -1   5    0.08    0.08 
   3   1  -5    1.26    0.15 
   3   1  -5    1.30    0.16 
   3   1  -5    1.50    0.17 
  -3  -1   5    1.09    0.13 
   2   1  -5    1.41    0.15 
   2   1  -5    1.45    0.15 
  -2  -1   5    1.74    0.15 
  -2  -1   5    1.60    0.13 
   1   1  -5    2.46    0.16 
   1   1  -5    2.29    0.15 
  -1  -1   5    2.41    0.15 
  -1  -1   5    2.38    0.15 
   0   1  -5   22.99    0.58 
   0   1  -5   23.12    0.60 
   0   1  -5   23.48    0.58 
   0   1  -5   22.53    0.60 
   0  -1   5   22.79    0.59 
   0  -1   5   21.94    0.59 
  -1   1  -5    5.18    0.17 
  -1   1  -5    5.58    0.23 
  -1   1  -5    5.23    0.22 
  -1   1  -5    5.51    0.22 
  -1   1  -5    5.44    0.20 
  -1   1  -5    4.98    0.20 
  -1   1  -5    5.23    0.23 
   1  -1   5    5.38    0.21 
   1  -1   5    5.50    0.23 
   1  -1   5    5.51    0.22 
   1  -1   5    5.10    0.24 
  -2   1  -5  135.73    2.91 
  -2   1  -5  137.95    2.92 
  -2   1  -5  133.00    2.92 
  -2   1  -5  135.13    2.85 
  -2   1  -5  141.67    2.91 
  -2   1  -5  140.58    2.88 
   2  -1   5  140.49    2.90 
   2  -1   5  141.74    2.90 
   2  -1   5  137.77    2.82 
   2  -1   5  137.09    2.85 
   2  -1   5  138.74    2.95 
  -3   1  -5    9.46    0.33 
  -3   1  -5    9.50    0.43 
  -3   1  -5    9.85    0.37 
  -3   1  -5    9.54    0.37 
   3  -1   5    9.30    0.34 
   3  -1   5    9.39    0.35 
   3  -1   5    9.73    0.40 
   3  -1   5    9.67    0.31 
   3  -1   5    9.76    0.36 
   3  -1   5    9.97    0.30 
  -4   1  -5    0.26    0.11 
  -4   1  -5    0.08    0.08 
   4  -1   5    0.04    0.06 
   4  -1   5    0.14    0.07 
   4  -1   5    0.10    0.11 
   4  -1   5    0.19    0.10 
   4  -1   5    0.18    0.10 
  -5   1  -5    3.25    0.30 
  -5   1  -5    2.23    0.24 
   5  -1   5    2.78    0.20 
   5  -1   5    2.52    0.29 
   5  -1   5    2.16    0.23 
   5  -1   5    2.13    0.23 
  -6   1  -5    0.10    0.13 
  -6   1  -5    0.03    0.10 
   6  -1   5    0.09    0.14 
   6  -1   5   -0.05    0.09 
   6  -1   5    0.16    0.14 
   6  -1   5    0.16    0.09 
  -7   1  -5    1.97    0.29 
   7  -1   5    1.78    0.20 
   7  -1   5    1.60    0.24 
   7  -1   5    2.02    0.32 
   7  -1   5    2.60    0.29 
   8  -1   5    1.77    0.35 
   8  -1   5    1.56    0.21 
   8  -1   5    1.75    0.27 
   8  -1   5    1.44    0.27 
   8   0  -5    0.92    0.25 
   8   0  -5    0.73    0.23 
   7   0  -5    6.04    0.44 
   7   0  -5    5.67    0.43 
   6   0  -5    0.23    0.15 
   6   0  -5    0.55    0.18 
  -6   0   5    0.18    0.12 
   5   0  -5    8.37    0.44 
   5   0  -5    7.90    0.41 
   5   0  -5    7.88    0.42 
  -5   0   5    7.62    0.38 
   4   0  -5    1.22    0.17 
   4   0  -5    1.54    0.20 
   4   0  -5    1.45    0.19 
  -4   0   5    1.31    0.16 
   3   0  -5   15.63    0.52 
   3   0  -5   14.42    0.49 
   3   0  -5   15.36    0.50 
  -3   0   5   15.50    0.49 
   2   0  -5   82.27    1.82 
   2   0  -5   81.03    1.82 
  -2   0   5   82.84    1.80 
  -2   0   5   81.08    1.79 
   1   0  -5    6.62    0.27 
   1   0  -5    6.30    0.26 
  -1   0   5    6.33    0.25 
  -1   0   5    6.57    0.26 
   0   0  -5    5.38    0.23 
   0   0  -5    5.51    0.23 
   0   0  -5    5.85    0.21 
   0   0  -5    5.39    0.21 
   0   0  -5    5.84    0.22 
   0   0   5    5.47    0.23 
   0   0   5    4.42    0.21 
  -1   0  -5    0.52    0.08 
  -1   0  -5    0.76    0.09 
  -1   0  -5    0.64    0.10 
  -1   0  -5    0.79    0.08 
  -1   0  -5    0.75    0.08 
  -1   0  -5    0.57    0.08 
  -1   0  -5    0.76    0.10 
  -1   0  -5    0.68    0.10 
   1   0   5    0.69    0.09 
   1   0   5    0.49    0.08 
   1   0   5    0.56    0.08 
   1   0   5    0.70    0.09 
   1   0   5    0.68    0.10 
  -2   0  -5   48.79    1.13 
  -2   0  -5   50.49    1.17 
  -2   0  -5   51.58    1.15 
  -2   0  -5   50.41    1.16 
  -2   0  -5   50.02    1.16 
  -2   0  -5   48.80    1.12 
   2   0   5   50.20    1.18 
   2   0   5   50.01    1.15 
   2   0   5   48.76    1.10 
   2   0   5   48.59    1.14 
   2   0   5   50.19    1.12 
   2   0   5   49.33    1.19 
   2   0   5   48.74    1.11 
  -3   0  -5   23.27    0.66 
  -3   0  -5   23.21    0.65 
  -3   0  -5   22.51    0.63 
   3   0   5   22.35    0.61 
   3   0   5   22.66    0.60 
   3   0   5   22.45    0.64 
   3   0   5   22.55    0.67 
   3   0   5   23.34    0.69 
   3   0   5   22.88    0.61 
   3   0   5   23.56    0.64 
  -4   0  -5    3.73    0.26 
  -4   0  -5    3.81    0.24 
   4   0   5    3.83    0.24 
   4   0   5    3.82    0.28 
   4   0   5    3.23    0.21 
   4   0   5    3.85    0.25 
   4   0   5    3.56    0.21 
   4   0   5    4.10    0.25 
  -5   0  -5    3.83    0.29 
  -5   0  -5    3.42    0.26 
   5   0   5    3.37    0.23 
   5   0   5    3.48    0.33 
   5   0   5    3.35    0.26 
   5   0   5    3.05    0.27 
   5   0   5    2.96    0.24 
  -6   0  -5    3.62    0.32 
  -6   0  -5    3.72    0.29 
   6   0   5    4.38    0.28 
   6   0   5    4.41    0.32 
   6   0   5    4.29    0.37 
   6   0   5    4.12    0.28 
   6   0   5    3.95    0.29 
   7   0   5    7.73    0.39 
   7   0   5    7.87    0.45 
   7   0   5    8.38    0.45 
   7   0   5    7.99    0.55 
   8   0   5    3.79    0.38 
   8   0   5    3.54    0.29 
   8   0   5    3.12    0.42 
   8   0   5    3.43    0.39 
   8  -1  -5    0.00    0.16 
   8  -1  -5   -0.18    0.13 
   7  -1  -5    1.98    0.28 
   7  -1  -5    1.48    0.27 
  -7   1   5    1.67    0.25 
   6  -1  -5    1.52    0.25 
   6  -1  -5    1.13    0.22 
  -6   1   5    0.96    0.20 
   5  -1  -5    0.56    0.15 
   5  -1  -5    0.48    0.15 
  -5   1   5    0.51    0.15 
   4  -1  -5    2.34    0.22 
   4  -1  -5    1.69    0.20 
   4  -1  -5    2.37    0.24 
  -4   1   5    2.04    0.21 
   3  -1  -5   27.26    0.77 
   3  -1  -5   27.23    0.72 
   3  -1  -5   28.17    0.80 
  -3   1   5   27.36    0.76 
   2  -1  -5    3.96    0.23 
   2  -1  -5    4.71    0.24 
   2  -1  -5    4.14    0.19 
  -2   1   5    4.31    0.22 
  -2   1   5    4.51    0.23 
   1  -1  -5    2.58    0.17 
   1  -1  -5    2.60    0.17 
  -1   1   5    2.95    0.18 
  -1   1   5    2.62    0.16 
   0  -1  -5   32.50    0.70 
   0  -1  -5   33.12    0.78 
   0  -1  -5   32.12    0.80 
   0  -1  -5   33.36    0.77 
   0  -1  -5   32.13    0.80 
   0  -1  -5   31.92    0.77 
   0  -1  -5   31.92    0.77 
   0   1   5   33.65    0.80 
   0   1   5   33.18    0.80 
   0   1   5   31.76    0.80 
  -1  -1  -5  156.18    3.27 
  -1  -1  -5  162.60    3.28 
  -1  -1  -5  158.31    3.22 
  -1  -1  -5  158.82    3.28 
  -1  -1  -5  156.72    3.30 
  -1  -1  -5  155.79    3.30 
  -1  -1  -5  165.91    3.28 
   1   1   5  159.96    3.28 
   1   1   5  158.06    3.31 
   1   1   5  156.73    3.27 
   1   1   5  155.82    3.29 
   1   1   5  156.33    3.27 
   1   1   5  159.18    3.26 
  -2  -1  -5   49.11    1.17 
  -2  -1  -5   51.38    1.18 
  -2  -1  -5   50.22    1.15 
  -2  -1  -5   50.91    1.18 
  -2  -1  -5   51.13    1.17 
   2   1   5   50.47    1.13 
   2   1   5   51.34    1.17 
   2   1   5   50.50    1.21 
   2   1   5   51.82    1.17 
   2   1   5   50.85    1.17 
   2   1   5   51.19    1.15 
   2   1   5   50.37    1.19 
  -3  -1  -5    3.88    0.22 
  -3  -1  -5    4.51    0.23 
  -3  -1  -5    3.83    0.23 
   3   1   5    4.37    0.26 
   3   1   5    3.82    0.22 
   3   1   5    3.90    0.21 
   3   1   5    4.08    0.24 
   3   1   5    4.10    0.22 
   3   1   5    4.07    0.22 
   3   1   5    4.16    0.22 
  -4  -1  -5   11.94    0.44 
  -4  -1  -5   12.05    0.46 
   4   1   5   12.22    0.43 
   4   1   5   12.38    0.44 
   4   1   5   11.16    0.44 
   4   1   5   12.06    0.50 
   4   1   5   11.44    0.43 
   4   1   5   12.27    0.44 
  -5  -1  -5   22.23    0.72 
  -5  -1  -5   23.28    0.75 
   5   1   5   23.87    0.73 
   5   1   5   24.11    0.71 
   5   1   5   23.29    0.73 
   5   1   5   23.85    0.81 
   5   1   5   24.41    0.73 
   5   1   5   22.65    0.72 
  -6  -1  -5    0.03    0.09 
  -6  -1  -5    0.02    0.12 
   6   1   5    0.02    0.11 
   6   1   5   -0.03    0.10 
   6   1   5   -0.05    0.12 
   6   1   5    0.01    0.13 
   6   1   5   -0.11    0.10 
  -7  -1  -5    0.71    0.22 
   7   1   5    0.65    0.17 
   7   1   5    0.79    0.18 
   7   1   5    0.48    0.19 
   7   1   5    0.75    0.22 
   8   1   5    0.05    0.15 
   8   1   5    0.17    0.21 
   8   1   5    0.25    0.23 
   8   1   5    0.18    0.15 
   8  -2  -5    0.22    0.18 
   8  -2  -5    0.11    0.17 
   7  -2  -5    1.82    0.30 
   7  -2  -5    2.37    0.29 
  -7   2   5    1.69    0.28 
   6  -2  -5    1.53    0.23 
   6  -2  -5    1.33    0.24 
  -6   2   5    1.39    0.23 
   5  -2  -5    0.82    0.16 
   5  -2  -5    0.48    0.16 
  -5   2   5    0.38    0.14 
   4  -2  -5    9.45    0.37 
   4  -2  -5   10.11    0.46 
  -4   2   5    9.65    0.43 
   3  -2  -5    0.37    0.09 
   3  -2  -5    0.39    0.13 
   3  -2  -5    0.44    0.12 
  -3   2   5    0.41    0.11 
   2  -2  -5    0.45    0.09 
   2  -2  -5    0.37    0.10 
   2  -2  -5    0.50    0.07 
  -2   2   5    0.61    0.12 
  -2   2   5    0.60    0.10 
   1  -2  -5   13.81    0.32 
   1  -2  -5   13.68    0.41 
   1  -2  -5   13.53    0.44 
  -1   2   5   13.98    0.43 
  -1   2   5   14.68    0.45 
   0  -2  -5   33.62    0.83 
   0  -2  -5   33.30    0.82 
   0  -2  -5   35.83    0.82 
   0  -2  -5   34.30    0.80 
   0  -2  -5   33.52    0.71 
   0  -2  -5   33.71    0.81 
   0  -2  -5   32.64    0.83 
   0   2   5   34.34    0.82 
   0   2   5   33.02    0.84 
   0   2   5   34.31    0.83 
   0   2   5   33.71    0.81 
  -1  -2  -5    0.41    0.06 
  -1  -2  -5    0.33    0.07 
  -1  -2  -5    0.34    0.08 
  -1  -2  -5    0.26    0.08 
  -1  -2  -5    0.35    0.07 
  -1  -2  -5    0.27    0.06 
  -1  -2  -5    0.55    0.08 
   1   2   5    0.38    0.05 
   1   2   5    0.31    0.07 
   1   2   5    0.29    0.07 
   1   2   5    0.22    0.08 
   1   2   5    0.28    0.08 
   1   2   5    0.25    0.06 
   1   2   5    0.30    0.07 
  -2  -2  -5   11.73    0.38 
  -2  -2  -5   11.33    0.38 
  -2  -2  -5   11.56    0.37 
  -2  -2  -5   11.92    0.41 
  -2  -2  -5   11.21    0.38 
   2   2   5   11.96    0.35 
   2   2   5   11.98    0.40 
   2   2   5   12.20    0.40 
   2   2   5   11.20    0.40 
   2   2   5   11.63    0.37 
   2   2   5   11.65    0.39 
   2   2   5   11.42    0.37 
  -3  -2  -5   16.06    0.56 
  -3  -2  -5   16.42    0.52 
  -3  -2  -5   16.86    0.51 
  -3  -2  -5   16.58    0.50 
   3   2   5   17.00    0.53 
   3   2   5   17.20    0.51 
   3   2   5   17.53    0.51 
   3   2   5   17.93    0.54 
   3   2   5   16.88    0.55 
   3   2   5   16.74    0.54 
   3   2   5   16.33    0.51 
  -4  -2  -5    8.54    0.36 
  -4  -2  -5    7.88    0.34 
   4   2   5    8.12    0.37 
   4   2   5    7.65    0.34 
   4   2   5    8.01    0.40 
   4   2   5    7.82    0.35 
   4   2   5    7.96    0.35 
   4   2   5    8.22    0.37 
  -5  -2  -5    4.52    0.28 
  -5  -2  -5    4.46    0.30 
   5   2   5    4.87    0.30 
   5   2   5    5.47    0.37 
   5   2   5    4.62    0.30 
   5   2   5    5.33    0.33 
   5   2   5    5.01    0.30 
   5   2   5    4.82    0.31 
  -6  -2  -5    2.36    0.24 
   6   2   5    2.88    0.28 
   6   2   5    3.06    0.35 
   6   2   5    2.41    0.26 
   6   2   5    2.59    0.28 
  -7  -2  -5    1.72    0.22 
   7   2   5    1.78    0.27 
   7   2   5    1.52    0.24 
   7   2   5    2.50    0.29 
   7   2   5    1.84    0.30 
   8  -3  -5    0.19    0.19 
   8  -3  -5   -0.22    0.13 
  -8   3   5   -0.18    0.16 
   7  -3  -5    0.48    0.20 
   7  -3  -5    0.42    0.17 
  -7   3   5    0.55    0.20 
   6  -3  -5   -0.08    0.14 
   6  -3  -5    0.08    0.11 
  -6   3   5    0.03    0.13 
   5  -3  -5    1.58    0.18 
   5  -3  -5    1.91    0.25 
  -5   3   5    1.60    0.23 
   4  -3  -5   10.70    0.37 
   4  -3  -5   10.41    0.48 
  -4   3   5   11.84    0.44 
  -4   3   5   10.52    0.47 
   3  -3  -5   15.11    0.54 
   3  -3  -5   14.90    0.40 
  -3   3   5   14.40    0.53 
   2  -3  -5    0.78    0.10 
   2  -3  -5    0.68    0.12 
   2  -3  -5    0.82    0.06 
  -2   3   5    0.66    0.12 
  -2   3   5    0.91    0.13 
   1  -3  -5   60.49    1.39 
   1  -3  -5   60.02    1.42 
   1  -3  -5   62.71    1.37 
  -1   3   5   62.79    1.41 
  -1   3   5   61.49    1.42 
   0  -3  -5   22.14    0.58 
   0  -3  -5   23.93    0.59 
   0  -3  -5   22.96    0.61 
   0  -3  -5   22.78    0.61 
   0  -3  -5   22.72    0.62 
   0   3   5   23.09    0.61 
   0   3   5   21.62    0.62 
   0   3   5   21.90    0.60 
  -1  -3  -5    0.14    0.05 
  -1  -3  -5    0.16    0.07 
  -1  -3  -5    0.17    0.07 
  -1  -3  -5    0.16    0.06 
   1   3   5    0.13    0.04 
   1   3   5    0.07    0.05 
   1   3   5    0.14    0.06 
   1   3   5    0.12    0.06 
   1   3   5    0.14    0.06 
   1   3   5    0.15    0.08 
   1   3   5    0.16    0.06 
  -2  -3  -5   20.61    0.55 
  -2  -3  -5   20.18    0.56 
  -2  -3  -5   20.19    0.64 
  -2  -3  -5   19.67    0.55 
   2   3   5   20.59    0.59 
   2   3   5   20.64    0.56 
   2   3   5   21.07    0.60 
   2   3   5   20.09    0.55 
   2   3   5   20.57    0.60 
   2   3   5   20.14    0.58 
   2   3   5   20.57    0.53 
  -3  -3  -5   22.20    0.62 
  -3  -3  -5   21.48    0.59 
  -3  -3  -5   21.44    0.61 
   3   3   5   22.91    0.67 
   3   3   5   21.11    0.66 
   3   3   5   21.74    0.66 
   3   3   5   21.68    0.61 
   3   3   5   21.79    0.65 
   3   3   5   21.39    0.61 
   3   3   5   21.36    0.61 
  -4  -3  -5    1.29    0.15 
  -4  -3  -5    1.86    0.17 
  -4  -3  -5    1.69    0.18 
   4   3   5    1.51    0.16 
   4   3   5    1.91    0.19 
   4   3   5    1.69    0.20 
   4   3   5    1.72    0.20 
   4   3   5    1.38    0.19 
   4   3   5    2.21    0.23 
  -5  -3  -5    0.40    0.11 
  -5  -3  -5    0.48    0.11 
   5   3   5    0.57    0.16 
   5   3   5    0.44    0.13 
   5   3   5    0.40    0.15 
   5   3   5    0.57    0.17 
   5   3   5    0.28    0.12 
  -6  -3  -5    0.51    0.13 
   6   3   5    0.57    0.19 
   6   3   5    0.58    0.18 
   6   3   5    0.44    0.14 
   6   3   5    0.74    0.19 
  -7  -3  -5    0.00    0.11 
   7   3   5    0.09    0.16 
   7   3   5    0.05    0.13 
   7   3   5    0.00    0.18 
   8  -4  -5   -0.01    0.14 
   8  -4  -5   -0.09    0.15 
  -8   4   5    0.12    0.18 
   7  -4  -5    1.92    0.23 
   7  -4  -5    2.55    0.34 
  -7   4   5    2.25    0.32 
   6  -4  -5    0.12    0.15 
   6  -4  -5    0.10    0.11 
  -6   4   5    0.39    0.17 
   5  -4  -5    0.05    0.12 
   5  -4  -5    0.03    0.08 
  -5   4   5    0.21    0.14 
   4  -4  -5    0.53    0.10 
   4  -4  -5    0.96    0.17 
   4  -4  -5    0.75    0.10 
  -4   4   5    0.89    0.12 
  -4   4   5    0.55    0.16 
   3  -4  -5    9.70    0.33 
   3  -4  -5    9.66    0.28 
   3  -4  -5   10.18    0.44 
  -3   4   5   10.13    0.31 
  -3   4   5    9.62    0.43 
   2  -4  -5    0.46    0.09 
   2  -4  -5    0.31    0.10 
  -2   4   5    0.35    0.11 
  -2   4   5    0.32    0.09 
   1  -4  -5   10.81    0.36 
   1  -4  -5   10.27    0.37 
   1  -4  -5   10.35    0.38 
  -1   4   5   10.27    0.38 
  -1   4   5   10.37    0.36 
  -1   4   5   10.64    0.38 
   0  -4  -5    0.21    0.06 
   0  -4  -5    0.23    0.07 
   0  -4  -5    0.19    0.07 
   0  -4  -5    0.36    0.10 
   0   4   5    0.28    0.09 
   0   4   5    0.20    0.07 
   0   4   5    0.23    0.08 
  -1  -4  -5   17.80    0.47 
  -1  -4  -5   18.36    0.57 
  -1  -4  -5   17.82    0.57 
  -1  -4  -5   16.78    0.48 
   1   4   5   17.18    0.53 
   1   4   5   17.71    0.50 
   1   4   5   17.44    0.43 
   1   4   5   18.02    0.52 
   1   4   5   16.94    0.52 
   1   4   5   17.08    0.53 
   1   4   5   17.34    0.50 
  -2  -4  -5    1.03    0.17 
  -2  -4  -5    0.95    0.11 
   2   4   5    0.88    0.13 
   2   4   5    0.63    0.12 
   2   4   5    0.80    0.11 
   2   4   5    0.94    0.15 
   2   4   5    0.68    0.11 
   2   4   5    0.85    0.11 
   2   4   5    0.78    0.10 
  -3  -4  -5   -0.05    0.03 
  -3  -4  -5    0.01    0.06 
   3   4   5    0.01    0.08 
   3   4   5    0.01    0.12 
   3   4   5   -0.07    0.08 
   3   4   5    0.05    0.06 
   3   4   5    0.02    0.10 
   3   4   5    0.06    0.07 
   3   4   5   -0.02    0.07 
  -4  -4  -5    0.03    0.07 
  -4  -4  -5    0.04    0.05 
  -4  -4  -5    0.17    0.09 
   4   4   5   -0.03    0.07 
   4   4   5    0.00    0.12 
   4   4   5    0.12    0.08 
   4   4   5    0.04    0.10 
   4   4   5   -0.02    0.09 
   4   4   5    0.01    0.12 
  -5  -4  -5    2.04    0.20 
   5   4   5    2.27    0.27 
   5   4   5    2.08    0.25 
   5   4   5    1.95    0.20 
   5   4   5    2.08    0.25 
  -6  -4  -5    0.00    0.08 
   6   4   5    0.03    0.16 
   6   4   5    0.23    0.15 
   6   4   5   -0.09    0.12 
   6   4   5   -0.03    0.10 
  -7  -4  -5    0.46    0.15 
   7   4   5    0.45    0.16 
   7   4   5    0.20    0.19 
   7   4   5    0.51    0.22 
   8  -5  -5    0.01    0.16 
   8  -5  -5   -0.01    0.13 
  -8   5   5    0.05    0.19 
   7  -5  -5    0.02    0.18 
   7  -5  -5    0.11    0.12 
  -7   5   5    0.21    0.18 
   6  -5  -5    8.97    0.50 
   6  -5  -5    8.47    0.37 
   6  -5  -5    8.60    0.50 
  -6   5   5    8.64    0.51 
   5  -5  -5    0.75    0.19 
   5  -5  -5    0.82    0.12 
   5  -5  -5    0.65    0.11 
  -5   5   5    0.83    0.21 
   4  -5  -5    0.80    0.16 
   4  -5  -5    0.59    0.10 
   4  -5  -5    0.65    0.09 
  -4   5   5    0.71    0.11 
  -4   5   5    0.67    0.17 
   3  -5  -5    4.18    0.21 
   3  -5  -5    3.99    0.27 
  -3   5   5    4.08    0.30 
  -3   5   5    3.84    0.17 
   2  -5  -5    2.54    0.21 
   2  -5  -5    2.27    0.19 
   2  -5  -5    2.24    0.17 
  -2   5   5    2.41    0.20 
  -2   5   5    2.62    0.23 
   1  -5  -5    0.18    0.09 
   1  -5  -5    0.27    0.06 
   1  -5  -5    0.22    0.08 
   1  -5  -5    0.19    0.09 
  -1   5   5    0.24    0.08 
  -1   5   5    0.17    0.08 
  -1   5   5    0.17    0.08 
   0  -5  -5    1.18    0.10 
   0  -5  -5    0.96    0.15 
   0  -5  -5    0.88    0.15 
   0   5   5    0.80    0.13 
   0   5   5    0.98    0.12 
   0   5   5    0.82    0.10 
   0   5   5    1.09    0.14 
  -1  -5  -5    5.36    0.31 
  -1  -5  -5    5.93    0.33 
  -1  -5  -5    5.73    0.20 
  -1  -5  -5    5.80    0.24 
  -1  -5  -5    5.77    0.20 
   1   5   5    6.09    0.31 
   1   5   5    5.79    0.27 
   1   5   5    5.86    0.26 
   1   5   5    5.67    0.21 
   1   5   5    5.78    0.30 
   1   5   5    5.92    0.25 
  -2  -5  -5    0.03    0.05 
   2   5   5    0.15    0.08 
   2   5   5    0.05    0.09 
   2   5   5    0.02    0.06 
   2   5   5    0.03    0.10 
   2   5   5   -0.09    0.05 
   2   5   5   -0.01    0.06 
   2   5   5   -0.05    0.07 
  -3  -5  -5    2.47    0.12 
   3   5   5    2.54    0.18 
   3   5   5    3.03    0.23 
   3   5   5    2.71    0.19 
   3   5   5    2.91    0.24 
   3   5   5    2.88    0.23 
   3   5   5    2.74    0.26 
   4   5   5    0.04    0.12 
   4   5   5    0.05    0.08 
   4   5   5   -0.07    0.07 
   4   5   5   -0.01    0.12 
  -5  -5  -5    1.84    0.19 
   5   5   5    2.01    0.26 
   5   5   5    1.94    0.21 
   5   5   5    2.06    0.28 
   5   5   5    2.33    0.26 
  -6  -5  -5    0.47    0.13 
   6   5   5    0.33    0.16 
   6   5   5    0.11    0.18 
   6   5   5    0.38    0.15 
   7  -6  -5    0.39    0.14 
   7  -6  -5    0.49    0.20 
  -7   6   5    0.51    0.20 
   6  -6  -5    1.35    0.24 
   6  -6  -5    0.87    0.14 
  -6   6   5    1.12    0.24 
   5  -6  -5    2.13    0.27 
   5  -6  -5    1.98    0.16 
   5  -6  -5    1.97    0.15 
  -5   6   5    1.53    0.24 
   4  -6  -5    0.70    0.17 
   4  -6  -5    0.59    0.10 
  -4   6   5    0.50    0.17 
   3  -6  -5    4.01    0.27 
   3  -6  -5    3.88    0.22 
   3  -6  -5    3.74    0.26 
  -3   6   5    4.04    0.18 
  -3   6   5    4.41    0.32 
   2  -6  -5   21.24    0.67 
   2  -6  -5   21.77    0.64 
   2  -6  -5   22.08    0.64 
  -2   6   5   23.41    0.71 
  -2   6   5   22.21    0.70 
   1  -6  -5    1.06    0.11 
   1  -6  -5    0.72    0.13 
   1  -6  -5    1.02    0.15 
  -1   6   5    1.07    0.14 
  -1   6   5    0.93    0.14 
  -1   6   5    0.83    0.13 
   0  -6  -5   22.30    0.52 
   0  -6  -5   22.03    0.70 
   0  -6  -5   21.35    0.49 
   0  -6  -5   22.19    0.71 
   0  -6  -5   23.35    0.49 
   0   6   5   22.87    0.66 
   0   6   5   22.04    0.64 
   0   6   5   21.45    0.63 
   0   6   5   22.31    0.61 
   0   6   5   21.14    0.48 
   1   6   5    2.54    0.15 
   1   6   5    2.26    0.17 
   1   6   5    2.31    0.23 
   1   6   5    2.49    0.23 
   1   6   5    2.74    0.20 
   2   6   5    0.99    0.17 
   2   6   5    0.96    0.17 
   2   6   5    1.22    0.14 
   2   6   5    1.27    0.14 
   2   6   5    1.16    0.15 
   3   6   5    0.84    0.15 
   3   6   5    0.79    0.15 
   3   6   5    0.51    0.10 
   3   6   5    0.58    0.16 
   4   6   5    0.04    0.09 
   4   6   5    0.09    0.13 
   4   6   5    0.04    0.08 
   4   6   5    0.08    0.15 
   5   6   5   -0.06    0.15 
   5   6   5   -0.01    0.10 
   5   6   5    0.28    0.12 
  -7   7   5    0.16    0.17 
  -6   7   5    0.25    0.17 
   5  -7  -5    0.81    0.18 
  -5   7   5    0.47    0.18 
   4  -7  -5    0.02    0.10 
   4  -7  -5    0.02    0.09 
   4  -7  -5    0.05    0.08 
  -4   7   5   -0.03    0.13 
   3  -7  -5    0.12    0.10 
   3  -7  -5   -0.04    0.08 
   3  -7  -5    0.01    0.08 
  -3   7   5    0.03    0.12 
   2  -7  -5    3.17    0.24 
   2  -7  -5    2.83    0.23 
  -2   7   5    2.98    0.25 
   1  -7  -5    0.15    0.09 
   1  -7  -5    0.47    0.14 
   1  -7  -5    0.45    0.07 
  -1   7   5    0.27    0.10 
  -1   7   5    0.32    0.10 
   0  -7  -5    0.55    0.15 
   0   7   5    0.81    0.08 
   0   7   5    0.72    0.14 
   0   7   5    0.82    0.13 
   1   7   5    0.65    0.10 
   1   7   5    0.48    0.16 
   1   7   5    0.88    0.13 
   1   7   5    1.21    0.19 
   2   7   5    0.33    0.11 
   2   7   5    0.42    0.14 
   2   7   5    0.32    0.09 
   3   7   5    0.54    0.13 
   3   7   5    0.84    0.19 
   3   7   5    0.73    0.12 
   3   7   5    0.83    0.16 
   4   7   5    0.25    0.11 
   4   7   5    0.39    0.16 
   4   7   5    0.19    0.10 
   5   7   5    0.10    0.10 
   5   7   5    0.21    0.16 
   5   7   5    0.01    0.11 
  -6   8   5    0.34    0.19 
  -5   8   5   -0.18    0.12 
   4  -8  -5    0.35    0.14 
  -4   8   5    0.38    0.17 
   3  -8  -5    1.92    0.23 
  -3   8   5    1.78    0.24 
   2  -8  -5    0.32    0.13 
  -2   8   5    0.02    0.09 
   1  -8  -5    0.26    0.12 
  -1   8   5    0.29    0.10 
  -1   8   5    0.32    0.11 
   0   8   5    0.85    0.16 
   0   8   5    0.66    0.13 
   1   8   5    4.02    0.25 
   1   8   5    4.60    0.31 
   2   8   5    0.10    0.13 
   2   8   5   -0.02    0.07 
   3   8   5   -0.01    0.09 
   3   8   5    0.02    0.07 
   4   8   5    0.00    0.09 
   4   8   5   -0.01    0.09 
  -5   9   5    0.86    0.24 
  -4   9   5    2.40    0.29 
  -3   9   5   -0.09    0.10 
  -2   9   5    0.02    0.10 
  -1   9   5    0.01    0.10 
  -1   9   5    0.03    0.08 
   0   9   5    1.27    0.17 
   0   9   5    1.14    0.18 
   1   9   5    0.20    0.09 
   1   9   5    0.49    0.16 
   2   9   5    0.07    0.08 
  -2  10   5    0.42    0.14 
  -1  10   5    0.79    0.15 
   0  10   5    0.09    0.14 
   0  10   5    0.08    0.09 
   0  10  -6    0.42    0.12 
  -1  10  -6    0.28    0.12 
  -2  10  -6    0.39    0.14 
  -3  10  -6    1.60    0.24 
   3   9  -6    0.02    0.07 
   3   9  -6    0.05    0.06 
   2   9  -6   -0.01    0.06 
   2   9  -6    0.07    0.07 
   1   9  -6    0.09    0.07 
   1   9  -6    0.05    0.06 
   0   9  -6   -0.01    0.07 
  -1   9  -6    0.08    0.09 
  -2   9  -6    0.12    0.11 
  -3   9  -6   -0.03    0.11 
  -4   9  -6    0.07    0.13 
  -5   9  -6    0.76    0.23 
   4   8  -6    0.05    0.21 
   4   8  -6   -0.02    0.08 
   3   8  -6    1.65    0.15 
   3   8  -6    1.52    0.17 
   2   8  -6    0.00    0.06 
   2   8  -6   -0.04    0.09 
   2   8  -6   -0.03    0.05 
   1   8  -6   -0.01    0.06 
   1   8  -6    0.01    0.06 
   0   8  -6    0.77    0.12 
  -1   8  -6   -0.04    0.07 
  -2   8  -6    0.15    0.11 
  -3   8  -6    0.33    0.14 
  -4   8  -6    0.21    0.16 
  -5   8  -6    1.03    0.25 
  -6   8  -6    0.16    0.22 
   5   7  -6    0.02    0.10 
   5   7  -6    0.12    0.21 
   4   7  -6   -0.04    0.18 
   4   7  -6    0.18    0.10 
   3   7  -6    0.22    0.09 
   2   7  -6    0.08    0.07 
   2   7  -6   -0.03    0.05 
   1   7  -6    0.04    0.06 
   1   7  -6    0.02    0.07 
   1   7  -6    0.08    0.06 
   1   7  -6    0.04    0.06 
   0   7  -6    6.03    0.27 
   0   7  -6    5.75    0.28 
   0   7  -6    5.90    0.22 
  -1   7  -6    3.06    0.26 
  -1   7  -6    3.00    0.21 
  -2   7  -6    2.55    0.24 
  -3   7  -6    3.54    0.25 
  -3   7  -6    3.27    0.31 
  -4   7  -6    3.58    0.35 
  -5   7  -6    0.04    0.15 
  -6   7  -6    0.15    0.19 
   6   6  -6    0.27    0.15 
   6   6  -6    0.21    0.21 
   5   6  -6    0.36    0.14 
   5   6  -6    0.16    0.18 
   4   6  -6    0.69    0.22 
   4   6  -6    0.76    0.14 
  -4  -6   6    0.80    0.10 
   3   6  -6   -0.05    0.06 
  -3  -6   6   -0.02    0.05 
   2   6  -6    0.01    0.07 
   2   6  -6   -0.01    0.06 
  -2  -6   6    0.05    0.05 
   1   6  -6    0.58    0.09 
   1   6  -6    0.65    0.11 
   1   6  -6    0.69    0.11 
   1   6  -6    0.62    0.09 
  -1  -6   6    0.53    0.09 
   0   6  -6    1.25    0.14 
   0   6  -6    1.42    0.14 
   0   6  -6    0.82    0.11 
   0   6  -6    1.02    0.10 
  -1   6  -6    0.64    0.12 
  -1   6  -6    1.11    0.13 
  -1   6  -6    0.57    0.11 
  -1   6  -6    0.60    0.10 
   1  -6   6    0.82    0.12 
  -2   6  -6   -0.02    0.09 
  -2   6  -6    0.05    0.08 
  -2   6  -6    0.00    0.08 
  -2   6  -6    0.06    0.06 
   2  -6   6    0.03    0.10 
  -3   6  -6    6.48    0.20 
  -3   6  -6    7.42    0.38 
  -3   6  -6    7.23    0.34 
  -3   6  -6    6.50    0.37 
   3  -6   6    6.76    0.29 
  -4   6  -6    5.11    0.32 
  -4   6  -6    3.84    0.34 
   4  -6   6    4.51    0.26 
   4  -6   6    5.15    0.36 
  -5   6  -6    0.90    0.21 
   5  -6   6    1.14    0.18 
  -6   6  -6    0.72    0.23 
   6  -6   6    0.96    0.18 
  -7   6  -6    0.14    0.21 
   7  -6   6   -0.10    0.12 
   6   5  -6    0.20    0.13 
   6   5  -6    0.00    0.18 
   5   5  -6    0.07    0.11 
   5   5  -6    0.48    0.22 
   4   5  -6    0.43    0.18 
   4   5  -6    0.48    0.13 
   3   5  -6    1.72    0.18 
   3   5  -6    1.73    0.18 
  -3  -5   6    1.64    0.15 
   2   5  -6    0.19    0.08 
   2   5  -6    0.42    0.10 
  -2  -5   6    0.09    0.06 
   1   5  -6    0.73    0.10 
   1   5  -6    0.90    0.12 
   1   5  -6    0.67    0.11 
   1   5  -6    0.87    0.10 
  -1  -5   6    0.82    0.10 
  -1  -5   6    0.98    0.08 
   0   5  -6    3.49    0.18 
   0   5  -6    3.29    0.19 
   0   5  -6    3.42    0.20 
   0  -5   6    3.11    0.18 
   0  -5   6    3.41    0.20 
  -1   5  -6    2.57    0.19 
  -1   5  -6    2.68    0.17 
  -1   5  -6    2.70    0.17 
  -1   5  -6    2.33    0.17 
   1  -5   6    2.55    0.19 
   1  -5   6    2.34    0.19 
  -2   5  -6    3.51    0.22 
  -2   5  -6    3.33    0.22 
  -2   5  -6    3.55    0.24 
  -2   5  -6    3.04    0.22 
   2  -5   6    3.61    0.19 
  -3   5  -6    0.50    0.14 
  -3   5  -6    0.88    0.15 
  -3   5  -6    0.62    0.07 
  -3   5  -6    0.47    0.14 
   3  -5   6    0.64    0.15 
   3  -5   6    0.52    0.10 
  -4   5  -6   18.62    0.69 
  -4   5  -6   19.21    0.80 
  -4   5  -6   19.80    0.66 
   4  -5   6   19.50    0.61 
   4  -5   6   19.41    0.71 
  -5   5  -6    0.18    0.15 
   5  -5   6    0.02    0.13 
   5  -5   6    0.12    0.10 
  -6   5  -6    0.02    0.16 
   6  -5   6    0.25    0.13 
   6  -5   6    0.44    0.20 
  -7   5  -6    0.02    0.20 
   7  -5   6    0.09    0.13 
   7   4  -6   -0.07    0.12 
   7   4  -6   -0.05    0.20 
   6   4  -6   -0.08    0.10 
   6   4  -6    0.09    0.18 
   5   4  -6   -0.06    0.15 
   5   4  -6    0.17    0.11 
   4   4  -6    0.11    0.10 
   4   4  -6    0.39    0.18 
   4   4  -6    0.22    0.11 
  -4  -4   6    0.22    0.07 
   3   4  -6    0.05    0.08 
   3   4  -6    0.04    0.07 
  -3  -4   6    0.08    0.06 
   2   4  -6    0.08    0.06 
   2   4  -6    0.11    0.07 
  -2  -4   6    0.17    0.06 
  -2  -4   6    0.15    0.07 
   1   4  -6    1.69    0.15 
   1   4  -6    1.65    0.16 
   1   4  -6    1.33    0.12 
  -1  -4   6    1.59    0.13 
  -1  -4   6    1.38    0.13 
   0   4  -6    1.00    0.11 
   0   4  -6    0.78    0.11 
   0   4  -6    0.67    0.10 
   0  -4   6    0.94    0.12 
   0  -4   6    0.84    0.11 
  -1   4  -6    0.76    0.11 
  -1   4  -6    0.72    0.10 
  -1   4  -6    0.77    0.12 
  -1   4  -6    0.59    0.10 
   1  -4   6    0.60    0.11 
  -2   4  -6    0.04    0.05 
  -2   4  -6    0.04    0.08 
  -2   4  -6    0.10    0.07 
  -2   4  -6   -0.01    0.07 
  -2   4  -6    0.02    0.06 
   2  -4   6   -0.01    0.08 
   2  -4   6    0.02    0.05 
  -3   4  -6    0.16    0.10 
  -3   4  -6   -0.02    0.06 
  -3   4  -6   -0.03    0.09 
  -3   4  -6    0.03    0.04 
   3  -4   6    0.04    0.07 
   3  -4   6   -0.03    0.10 
  -4   4  -6   10.08    0.32 
  -4   4  -6   10.32    0.44 
  -4   4  -6    9.76    0.47 
   4  -4   6   10.60    0.50 
   4  -4   6   10.63    0.42 
  -5   4  -6    0.16    0.11 
  -5   4  -6    0.22    0.14 
   5  -4   6    0.31    0.11 
   5  -4   6    0.15    0.05 
   5  -4   6    0.27    0.16 
  -6   4  -6    1.21    0.24 
   6  -4   6    1.35    0.26 
   6  -4   6    1.37    0.20 
   6  -4   6    1.11    0.15 
   6  -4   6    1.27    0.20 
  -7   4  -6    0.14    0.18 
   7  -4   6   -0.15    0.12 
   7  -4   6    0.17    0.21 
   7  -4   6    0.10    0.13 
  -8   4  -6    0.91    0.29 
   8  -4   6    1.35    0.25 
   8  -4   6    0.84    0.22 
   7   3  -6    0.05    0.14 
   7   3  -6    0.58    0.24 
   6   3  -6    0.48    0.16 
   6   3  -6    0.62    0.22 
   5   3  -6   -0.02    0.15 
   5   3  -6    0.02    0.10 
   4   3  -6    1.31    0.24 
   4   3  -6    1.24    0.17 
   4   3  -6    1.58    0.20 
  -4  -3   6    1.68    0.16 
   3   3  -6    0.59    0.13 
   3   3  -6    0.41    0.11 
  -3  -3   6    0.54    0.09 
   2   3  -6   14.67    0.47 
   2   3  -6   14.28    0.46 
  -2  -3   6   13.75    0.42 
   1   3  -6    2.87    0.16 
   1   3  -6    2.74    0.18 
   1   3  -6    2.73    0.18 
  -1  -3   6    2.48    0.16 
  -1  -3   6    2.88    0.17 
   0   3  -6    0.68    0.09 
   0   3  -6    0.52    0.09 
   0   3  -6    0.65    0.11 
   0  -3   6    0.50    0.09 
   0  -3   6    0.58    0.09 
  -1   3  -6    1.18    0.13 
  -1   3  -6    1.29    0.13 
  -1   3  -6    1.34    0.13 
  -1   3  -6    1.02    0.06 
  -1   3  -6    1.04    0.14 
   1  -3   6    1.14    0.12 
   1  -3   6    1.43    0.15 
   1  -3   6    0.90    0.12 
  -2   3  -6   13.83    0.47 
  -2   3  -6   13.35    0.44 
  -2   3  -6   13.34    0.46 
  -2   3  -6   13.34    0.44 
  -2   3  -6   13.18    0.38 
   2  -3   6   13.50    0.48 
   2  -3   6   12.87    0.42 
   2  -3   6   13.49    0.48 
  -3   3  -6    9.72    0.41 
  -3   3  -6   10.19    0.42 
  -3   3  -6    9.56    0.39 
  -3   3  -6    9.95    0.31 
   3  -3   6    9.99    0.43 
   3  -3   6    9.93    0.37 
  -4   3  -6   24.91    0.79 
  -4   3  -6   23.81    0.64 
  -4   3  -6   25.42    0.76 
   4  -3   6   23.93    0.57 
   4  -3   6   25.10    0.73 
   4  -3   6   23.69    0.80 
  -5   3  -6    0.26    0.11 
  -5   3  -6    0.26    0.14 
   5  -3   6    0.19    0.12 
   5  -3   6    0.25    0.11 
   5  -3   6    0.14    0.06 
   5  -3   6    0.26    0.15 
  -6   3  -6    0.53    0.20 
   6  -3   6    0.40    0.14 
   6  -3   6    0.33    0.14 
   6  -3   6    0.16    0.17 
   6  -3   6    0.40    0.09 
   6  -3   6    0.39    0.09 
  -7   3  -6    2.53    0.35 
   7  -3   6    3.01    0.31 
   7  -3   6    3.38    0.42 
   7  -3   6    2.76    0.30 
  -8   3  -6    1.31    0.51 
   8  -3   6    1.62    0.28 
   8  -3   6    1.40    0.35 
   8  -3   6    1.68    0.26 
   8   2  -6   -0.05    0.20 
   8   2  -6    0.30    0.18 
   7   2  -6    0.75    0.22 
   7   2  -6    1.70    0.30 
   6   2  -6    0.45    0.21 
   6   2  -6    0.56    0.17 
   5   2  -6    0.18    0.12 
   5   2  -6   -0.13    0.13 
   5   2  -6    0.04    0.11 
  -5  -2   6    0.01    0.08 
   4   2  -6    0.28    0.11 
   4   2  -6    0.06    0.10 
   4   2  -6    0.10    0.12 
  -4  -2   6    0.19    0.09 
   3   2  -6    7.91    0.35 
   3   2  -6    7.59    0.34 
  -3  -2   6    7.56    0.31 
   2   2  -6  143.04    3.07 
   2   2  -6  145.14    3.08 
  -2  -2   6  145.03    3.04 
   1   2  -6   10.53    0.37 
   1   2  -6   10.12    0.36 
  -1  -2   6   10.34    0.35 
  -1  -2   6   10.45    0.35 
   0   2  -6    0.77    0.10 
   0   2  -6    0.74    0.11 
   0   2  -6    0.97    0.11 
   0   2  -6    0.90    0.12 
   0  -2   6    0.71    0.10 
   0  -2   6    0.77    0.11 
  -1   2  -6   20.50    0.57 
  -1   2  -6   19.84    0.58 
  -1   2  -6   19.47    0.47 
  -1   2  -6   20.02    0.56 
  -1   2  -6   20.46    0.56 
  -1   2  -6   19.64    0.52 
   1  -2   6   20.15    0.55 
   1  -2   6   19.83    0.57 
   1  -2   6   20.09    0.59 
  -2   2  -6   68.06    1.55 
  -2   2  -6   64.89    1.47 
  -2   2  -6   70.50    1.55 
  -2   2  -6   65.37    1.55 
  -2   2  -6   68.82    1.55 
   2  -2   6   68.20    1.52 
   2  -2   6   68.48    1.58 
   2  -2   6   66.63    1.58 
  -3   2  -6    8.83    0.36 
  -3   2  -6    7.79    0.36 
  -3   2  -6    8.43    0.43 
  -3   2  -6    8.37    0.29 
   3  -2   6    8.66    0.35 
   3  -2   6    8.69    0.40 
   3  -2   6    8.12    0.25 
  -4   2  -6    3.88    0.29 
  -4   2  -6    4.27    0.27 
  -4   2  -6    4.06    0.22 
   4  -2   6    4.01    0.31 
   4  -2   6    4.17    0.26 
   4  -2   6    4.31    0.26 
   4  -2   6    4.32    0.19 
   4  -2   6    4.39    0.22 
  -5   2  -6    9.30    0.43 
  -5   2  -6    9.68    0.48 
   5  -2   6    9.03    0.50 
   5  -2   6    9.40    0.34 
   5  -2   6    8.66    0.33 
   5  -2   6    9.68    0.43 
   5  -2   6    9.16    0.42 
  -6   2  -6    3.20    0.34 
   6  -2   6    2.64    0.27 
   6  -2   6    2.85    0.22 
   6  -2   6    2.62    0.33 
   6  -2   6    2.98    0.20 
   6  -2   6    3.05    0.28 
  -7   2  -6    0.56    0.23 
   7  -2   6    0.75    0.20 
   7  -2   6    0.60    0.23 
   7  -2   6    0.42    0.15 
   7  -2   6    0.66    0.13 
   7  -2   6    0.66    0.15 
   8  -2   6    0.21    0.17 
   8  -2   6   -0.15    0.21 
   8  -2   6    0.23    0.17 
   8   1  -6    0.72    0.25 
   8   1  -6    0.36    0.20 
   7   1  -6    0.38    0.21 
   7   1  -6    0.16    0.15 
   6   1  -6    1.32    0.23 
   6   1  -6    1.15    0.23 
  -6  -1   6    0.93    0.17 
   5   1  -6    0.04    0.15 
   5   1  -6   -0.05    0.11 
   5   1  -6   -0.13    0.10 
  -5  -1   6   -0.01    0.09 
   4   1  -6    1.48    0.19 
   4   1  -6    1.76    0.22 
   4   1  -6    1.48    0.20 
  -4  -1   6    1.27    0.16 
   3   1  -6    1.86    0.20 
   3   1  -6    1.72    0.20 
   3   1  -6    1.68    0.18 
  -3  -1   6    1.34    0.15 
   2   1  -6    0.98    0.14 
   2   1  -6    0.82    0.12 
  -2  -1   6    0.91    0.13 
   1   1  -6    0.94    0.12 
   1   1  -6    1.08    0.14 
  -1  -1   6    1.46    0.14 
  -1  -1   6    1.16    0.13 
   0   1  -6    7.47    0.27 
   0   1  -6    7.64    0.30 
   0   1  -6    7.74    0.30 
   0   1  -6    7.81    0.29 
   0  -1   6    7.41    0.29 
   0  -1   6    7.54    0.30 
  -1   1  -6    7.75    0.28 
  -1   1  -6    7.54    0.30 
  -1   1  -6    7.77    0.31 
  -1   1  -6    7.94    0.27 
  -1   1  -6    8.53    0.30 
  -1   1  -6    8.33    0.31 
  -1   1  -6    7.67    0.24 
   1  -1   6    8.13    0.31 
   1  -1   6    7.57    0.29 
   1  -1   6    8.14    0.30 
   1  -1   6    7.65    0.32 
  -2   1  -6   14.16    0.41 
  -2   1  -6   13.36    0.45 
  -2   1  -6   13.65    0.45 
  -2   1  -6   14.70    0.47 
   2  -1   6   13.53    0.43 
   2  -1   6   13.73    0.48 
   2  -1   6   13.71    0.37 
   2  -1   6   13.56    0.43 
  -3   1  -6    3.53    0.23 
  -3   1  -6    3.37    0.23 
  -3   1  -6    3.56    0.19 
   3  -1   6    3.48    0.19 
   3  -1   6    3.54    0.26 
   3  -1   6    2.95    0.21 
   3  -1   6    3.42    0.17 
   3  -1   6    3.15    0.20 
   3  -1   6    2.71    0.22 
  -4   1  -6    9.96    0.42 
  -4   1  -6   10.22    0.44 
  -4   1  -6    9.49    0.38 
   4  -1   6   10.26    0.36 
   4  -1   6   10.22    0.35 
   4  -1   6   10.23    0.41 
   4  -1   6   10.31    0.39 
   4  -1   6   10.49    0.48 
  -5   1  -6   22.99    0.79 
  -5   1  -6   24.13    0.76 
   5  -1   6   24.14    0.73 
   5  -1   6   23.91    0.84 
   5  -1   6   22.64    0.74 
   5  -1   6   23.12    0.67 
   5  -1   6   24.23    0.67 
  -6   1  -6    1.79    0.24 
  -6   1  -6    1.96    0.26 
   6  -1   6    2.04    0.21 
   6  -1   6    2.53    0.27 
   6  -1   6    2.07    0.29 
   6  -1   6    1.92    0.19 
   6  -1   6    1.66    0.22 
  -7   1  -6    1.98    0.32 
   7  -1   6    1.78    0.25 
   7  -1   6    1.34    0.18 
   7  -1   6    2.22    0.24 
   7  -1   6    1.84    0.27 
   7  -1   6    1.73    0.31 
   8  -1   6    0.23    0.17 
   8  -1   6    0.06    0.14 
   8  -1   6   -0.01    0.19 
   8  -1   6   -0.20    0.14 
   8   0  -6    1.92    0.32 
   8   0  -6    1.26    0.28 
   7   0  -6    0.33    0.18 
   7   0  -6    0.48    0.20 
   6   0  -6   -0.10    0.13 
   6   0  -6    0.04    0.13 
  -6   0   6    0.00    0.11 
   5   0  -6    1.06    0.20 
   5   0  -6    1.33    0.21 
   5   0  -6    1.50    0.23 
  -5   0   6    1.20    0.18 
   4   0  -6   10.61    0.45 
   4   0  -6   10.50    0.47 
   4   0  -6   10.52    0.45 
  -4   0   6   10.82    0.43 
   3   0  -6    4.19    0.26 
   3   0  -6    4.23    0.25 
   3   0  -6    3.73    0.25 
  -3   0   6    3.84    0.24 
   2   0  -6   11.22    0.41 
  -2   0   6   10.94    0.40 
   1   0  -6   13.00    0.44 
   1   0  -6   14.28    0.45 
  -1   0   6   14.12    0.44 
  -1   0   6   13.94    0.45 
   0   0  -6    6.00    0.26 
   0   0  -6    5.60    0.25 
   0   0  -6    5.64    0.24 
   0   0  -6    5.40    0.23 
   0   0  -6    5.71    0.23 
   0   0   6    5.89    0.26 
   0   0   6    4.36    0.22 
  -1   0  -6    2.44    0.17 
  -1   0  -6    2.27    0.17 
  -1   0  -6    2.73    0.16 
  -1   0  -6    2.29    0.13 
  -1   0  -6    2.32    0.13 
  -1   0  -6    2.56    0.17 
  -1   0  -6    2.45    0.15 
  -1   0  -6    2.51    0.16 
   1   0   6    2.81    0.17 
   1   0   6    1.88    0.15 
   1   0   6    2.49    0.18 
   1   0   6    2.41    0.16 
  -2   0  -6    0.12    0.05 
  -2   0  -6    0.16    0.07 
  -2   0  -6    0.08    0.06 
  -2   0  -6    0.14    0.07 
  -2   0  -6    0.25    0.07 
   2   0   6    0.22    0.07 
   2   0   6    0.19    0.09 
   2   0   6    0.16    0.07 
   2   0   6    0.12    0.05 
   2   0   6    0.20    0.07 
   2   0   6    0.14    0.08 
   2   0   6    0.08    0.06 
  -3   0  -6    0.17    0.08 
  -3   0  -6    0.20    0.08 
  -3   0  -6    0.27    0.10 
   3   0   6    0.16    0.08 
   3   0   6   -0.06    0.07 
   3   0   6    0.10    0.06 
   3   0   6    0.03    0.08 
   3   0   6    0.25    0.11 
   3   0   6    0.28    0.09 
   3   0   6    0.07    0.07 
  -4   0  -6    5.39    0.30 
  -4   0  -6    5.24    0.29 
  -4   0  -6    5.59    0.33 
   4   0   6    6.35    0.28 
   4   0   6    5.78    0.30 
   4   0   6    5.95    0.37 
   4   0   6    6.06    0.29 
   4   0   6    5.91    0.30 
   4   0   6    5.75    0.31 
  -5   0  -6   13.34    0.56 
  -5   0  -6   13.41    0.52 
   5   0   6   13.27    0.52 
   5   0   6   14.04    0.53 
   5   0   6   14.36    0.61 
   5   0   6   13.80    0.49 
   5   0   6   13.42    0.48 
  -6   0  -6    0.05    0.11 
  -6   0  -6    0.18    0.14 
   6   0   6    0.02    0.10 
   6   0   6    0.14    0.13 
   6   0   6    0.04    0.14 
   6   0   6   -0.03    0.09 
   6   0   6    0.11    0.10 
   7   0   6   -0.04    0.10 
   7   0   6    0.10    0.14 
   7   0   6    0.02    0.17 
   7   0   6    0.05    0.13 
   8   0   6   -0.14    0.18 
   8   0   6    0.15    0.13 
   8   0   6    0.31    0.20 
   8   0   6    0.20    0.17 
   8  -1  -6    1.01    0.25 
   8  -1  -6    0.82    0.24 
   7  -1  -6    0.30    0.18 
   7  -1  -6    0.43    0.19 
  -7   1   6    0.39    0.17 
   6  -1  -6    0.06    0.13 
   6  -1  -6    0.12    0.14 
  -6   1   6    0.39    0.15 
   5  -1  -6    0.90    0.18 
   5  -1  -6    1.06    0.21 
  -5   1   6    0.88    0.17 
   4  -1  -6    2.65    0.26 
   4  -1  -6    3.29    0.24 
  -4   1   6    3.15    0.25 
   3  -1  -6    0.00    0.08 
   3  -1  -6    0.00    0.07 
   3  -1  -6    0.08    0.10 
  -3   1   6    0.08    0.08 
   2  -1  -6   20.70    0.62 
   2  -1  -6   19.82    0.54 
   2  -1  -6   20.76    0.63 
  -2   1   6   20.24    0.61 
   1  -1  -6   12.90    0.44 
   1  -1  -6   13.08    0.40 
   1  -1  -6   13.59    0.44 
  -1   1   6   12.85    0.42 
  -1   1   6   12.77    0.43 
   0  -1  -6   25.04    0.68 
   0  -1  -6   24.73    0.67 
   0  -1  -6   24.94    0.64 
   0  -1  -6   24.86    0.57 
   0  -1  -6   25.30    0.66 
   0  -1  -6   25.00    0.64 
   0  -1  -6   24.48    0.65 
   0   1   6   24.97    0.68 
   0   1   6   24.89    0.67 
   0   1   6   26.17    0.68 
  -1  -1  -6    2.55    0.16 
  -1  -1  -6    2.97    0.18 
  -1  -1  -6    2.74    0.16 
  -1  -1  -6    2.92    0.18 
  -1  -1  -6    2.47    0.17 
  -1  -1  -6    2.69    0.14 
   1   1   6    2.92    0.18 
   1   1   6    2.50    0.19 
   1   1   6    2.82    0.17 
   1   1   6    3.18    0.18 
  -2  -1  -6    0.08    0.05 
  -2  -1  -6   -0.01    0.06 
  -2  -1  -6    0.01    0.05 
  -2  -1  -6    0.01    0.06 
  -2  -1  -6    0.01    0.06 
  -2  -1  -6   -0.06    0.06 
   2   1   6    0.03    0.06 
   2   1   6    0.02    0.06 
   2   1   6   -0.02    0.07 
   2   1   6   -0.06    0.05 
   2   1   6   -0.04    0.06 
   2   1   6   -0.03    0.05 
   2   1   6    0.01    0.05 
  -3  -1  -6    2.65    0.19 
  -3  -1  -6    2.94    0.21 
  -3  -1  -6    2.71    0.21 
   3   1   6    2.62    0.22 
   3   1   6    3.00    0.19 
   3   1   6    2.99    0.23 
   3   1   6    2.72    0.19 
   3   1   6    2.80    0.20 
   3   1   6    2.93    0.20 
   3   1   6    2.46    0.19 
  -4  -1  -6    0.14    0.09 
  -4  -1  -6    0.07    0.10 
   4   1   6   -0.13    0.06 
   4   1   6   -0.08    0.09 
   4   1   6   -0.05    0.07 
   4   1   6   -0.03    0.09 
   4   1   6    0.10    0.09 
   4   1   6    0.05    0.11 
  -5  -1  -6    0.59    0.14 
  -5  -1  -6    0.74    0.15 
   5   1   6    0.62    0.14 
   5   1   6    0.64    0.14 
   5   1   6    0.44    0.13 
   5   1   6    0.47    0.16 
   5   1   6    0.54    0.16 
   5   1   6    0.26    0.12 
  -6  -1  -6    0.62    0.15 
   6   1   6    0.51    0.15 
   6   1   6    0.46    0.18 
   6   1   6    0.92    0.22 
   6   1   6    0.59    0.15 
   6   1   6    0.53    0.15 
   7   1   6    0.09    0.17 
   7   1   6   -0.07    0.16 
   7   1   6   -0.20    0.10 
   7   1   6   -0.01    0.11 
   8  -2  -6    0.17    0.17 
   8  -2  -6    0.11    0.16 
   7  -2  -6    1.65    0.25 
   7  -2  -6    1.29    0.26 
  -7   2   6    1.29    0.24 
   6  -2  -6    0.36    0.17 
   6  -2  -6    0.09    0.13 
  -6   2   6    0.27    0.15 
   5  -2  -6    1.23    0.22 
   5  -2  -6    0.95    0.17 
  -5   2   6    1.05    0.19 
   4  -2  -6   -0.04    0.08 
   4  -2  -6   -0.03    0.10 
  -4   2   6    0.04    0.10 
   3  -2  -6    6.24    0.34 
   3  -2  -6    6.09    0.26 
  -3   2   6    6.46    0.33 
   2  -2  -6   -0.02    0.04 
   2  -2  -6   -0.06    0.06 
  -2   2   6    0.02    0.06 
  -2   2   6    0.06    0.07 
   1  -2  -6    0.25    0.08 
   1  -2  -6    0.13    0.08 
  -1   2   6    0.13    0.07 
  -1   2   6    0.07    0.06 
   0  -2  -6   21.83    0.60 
   0  -2  -6   22.48    0.61 
   0  -2  -6   22.06    0.49 
   0  -2  -6   22.75    0.60 
   0  -2  -6   21.75    0.63 
   0   2   6   22.44    0.62 
   0   2   6   21.71    0.63 
   0   2   6   22.91    0.62 
  -1  -2  -6    7.66    0.29 
  -1  -2  -6    7.30    0.30 
  -1  -2  -6    7.52    0.30 
  -1  -2  -6    7.47    0.30 
  -1  -2  -6    7.47    0.24 
   1   2   6    8.04    0.31 
   1   2   6    7.49    0.30 
   1   2   6    7.67    0.29 
   1   2   6    7.79    0.29 
   1   2   6    7.48    0.32 
  -2  -2  -6    0.93    0.12 
  -2  -2  -6    0.85    0.11 
  -2  -2  -6    0.84    0.12 
  -2  -2  -6    0.68    0.12 
  -2  -2  -6    0.77    0.11 
   2   2   6    0.75    0.12 
   2   2   6    0.84    0.14 
   2   2   6    0.72    0.11 
   2   2   6    0.84    0.13 
   2   2   6    0.78    0.11 
   2   2   6    0.79    0.13 
   2   2   6    0.68    0.09 
  -3  -2  -6   23.58    0.69 
  -3  -2  -6   23.38    0.68 
  -3  -2  -6   24.21    0.75 
  -3  -2  -6   24.61    0.69 
   3   2   6   24.15    0.72 
   3   2   6   25.05    0.71 
   3   2   6   24.82    0.66 
   3   2   6   25.03    0.75 
   3   2   6   24.24    0.69 
   3   2   6   23.25    0.68 
   3   2   6   24.81    0.69 
  -4  -2  -6    5.73    0.32 
  -4  -2  -6    5.88    0.30 
  -4  -2  -6    5.77    0.30 
   4   2   6    5.56    0.30 
   4   2   6    5.80    0.31 
   4   2   6    5.56    0.29 
   4   2   6    6.02    0.36 
   4   2   6    5.25    0.29 
   4   2   6    5.88    0.31 
  -5  -2  -6    0.11    0.09 
  -5  -2  -6    0.05    0.10 
   5   2   6   -0.02    0.10 
   5   2   6    0.12    0.10 
   5   2   6    0.32    0.14 
   5   2   6    0.15    0.14 
   5   2   6    0.15    0.11 
  -6  -2  -6    0.21    0.12 
   6   2   6    0.12    0.15 
   6   2   6    0.11    0.15 
   6   2   6    0.21    0.13 
   6   2   6    0.42    0.15 
   7   2   6    3.67    0.33 
   7   2   6    2.40    0.31 
   7   2   6    2.97    0.38 
   7   2   6    2.86    0.30 
   8  -3  -6    0.32    0.18 
   8  -3  -6    0.09    0.18 
  -8   3   6    0.29    0.24 
   7  -3  -6   -0.04    0.14 
   7  -3  -6   -0.07    0.12 
  -7   3   6   -0.02    0.15 
   6  -3  -6    1.43    0.20 
   6  -3  -6    1.78    0.28 
  -6   3   6    1.57    0.25 
   5  -3  -6    0.35    0.12 
   5  -3  -6    0.42    0.16 
  -5   3   6    0.29    0.15 
   4  -3  -6    5.77    0.36 
   4  -3  -6    4.86    0.24 
  -4   3   6    5.26    0.34 
   3  -3  -6    8.30    0.27 
   3  -3  -6    7.64    0.39 
   3  -3  -6    8.23    0.32 
  -3   3   6    7.28    0.38 
   2  -3  -6    7.55    0.20 
   2  -3  -6    7.73    0.36 
   2  -3  -6    7.41    0.30 
  -2   3   6    7.47    0.35 
  -2   3   6    7.76    0.34 
   1  -3  -6    0.51    0.10 
   1  -3  -6    0.46    0.11 
   1  -3  -6    0.43    0.09 
  -1   3   6    0.49    0.10 
  -1   3   6    0.32    0.09 
   0  -3  -6    0.00    0.05 
   0  -3  -6   -0.08    0.04 
   0  -3  -6    0.11    0.07 
   0  -3  -6   -0.02    0.06 
   0   3   6    0.02    0.06 
   0   3   6   -0.03    0.04 
   0   3   6    0.23    0.07 
   0   3   6   -0.08    0.06 
  -1  -3  -6   17.41    0.54 
  -1  -3  -6   17.22    0.52 
  -1  -3  -6   17.51    0.55 
  -1  -3  -6   17.28    0.44 
  -1  -3  -6   16.91    0.49 
   1   3   6   17.41    0.53 
   1   3   6   17.67    0.52 
   1   3   6   18.06    0.54 
   1   3   6   18.14    0.55 
   1   3   6   17.12    0.51 
   1   3   6   17.71    0.53 
   1   3   6   16.67    0.41 
  -2  -3  -6    0.32    0.07 
  -2  -3  -6    0.82    0.12 
  -2  -3  -6    0.55    0.13 
  -2  -3  -6    0.77    0.11 
   2   3   6    0.79    0.11 
   2   3   6    0.86    0.13 
   2   3   6    0.60    0.11 
   2   3   6    0.67    0.09 
   2   3   6    0.61    0.10 
   2   3   6    0.78    0.13 
   2   3   6    0.69    0.12 
  -3  -3  -6   33.13    0.86 
  -3  -3  -6   33.58    0.88 
  -3  -3  -6   33.55    0.98 
   3   3   6   33.49    0.93 
   3   3   6   33.78    0.85 
   3   3   6   33.74    0.88 
   3   3   6   32.84    0.87 
   3   3   6   34.34    0.92 
   3   3   6   34.59    0.92 
   3   3   6   33.99    0.91 
  -4  -3  -6   -0.06    0.07 
  -4  -3  -6   -0.07    0.06 
  -4  -3  -6    0.04    0.07 
   4   3   6   -0.02    0.11 
   4   3   6   -0.04    0.09 
   4   3   6    0.07    0.10 
   4   3   6   -0.06    0.08 
   4   3   6   -0.03    0.09 
   4   3   6   -0.06    0.08 
  -5  -3  -6    0.88    0.14 
   5   3   6    0.87    0.17 
   5   3   6    0.84    0.15 
   5   3   6    1.15    0.21 
   5   3   6    1.27    0.21 
  -6  -3  -6    0.28    0.12 
   6   3   6    0.23    0.15 
   6   3   6    0.14    0.12 
   6   3   6    0.14    0.16 
   6   3   6    0.22    0.17 
  -7  -3  -6    1.27    0.22 
   7   3   6    0.80    0.22 
   7   3   6    0.71    0.19 
   7   3   6    0.95    0.24 
   8  -4  -6    0.10    0.15 
   8  -4  -6   -0.22    0.15 
  -8   4   6   -0.11    0.18 
   7  -4  -6   -0.21    0.11 
   7  -4  -6   -0.06    0.14 
  -7   4   6    0.09    0.17 
   6  -4  -6   -0.17    0.09 
   6  -4  -6    0.23    0.16 
  -6   4   6    0.07    0.15 
   5  -4  -6    1.03    0.14 
   5  -4  -6    1.04    0.21 
  -5   4   6    0.72    0.19 
   4  -4  -6    1.17    0.21 
   4  -4  -6    1.16    0.12 
   4  -4  -6    1.23    0.15 
  -4   4   6    1.11    0.20 
   3  -4  -6    2.11    0.11 
   3  -4  -6    2.14    0.17 
   3  -4  -6    1.96    0.22 
  -3   4   6    2.08    0.23 
   2  -4  -6    2.30    0.18 
   2  -4  -6    2.91    0.19 
   2  -4  -6    2.72    0.23 
  -2   4   6    1.98    0.20 
  -2   4   6    2.72    0.21 
   1  -4  -6    3.96    0.23 
   1  -4  -6    4.13    0.24 
   1  -4  -6    3.84    0.20 
   1  -4  -6    4.05    0.22 
  -1   4   6    4.14    0.23 
  -1   4   6    3.63    0.24 
   0  -4  -6    2.42    0.19 
   0  -4  -6    2.11    0.17 
   0  -4  -6    2.26    0.18 
   0   4   6    2.51    0.19 
   0   4   6    2.43    0.17 
   0   4   6    2.52    0.18 
   0   4   6    2.42    0.19 
  -1  -4  -6    4.15    0.26 
  -1  -4  -6    4.41    0.20 
  -1  -4  -6    4.32    0.25 
  -1  -4  -6    3.90    0.21 
   1   4   6    3.76    0.21 
   1   4   6    4.12    0.23 
   1   4   6    3.96    0.25 
   1   4   6    3.79    0.23 
   1   4   6    4.03    0.22 
   1   4   6    3.81    0.14 
   1   4   6    3.91    0.23 
  -2  -4  -6   11.15    0.48 
  -2  -4  -6   11.07    0.37 
  -2  -4  -6   10.63    0.36 
   2   4   6   10.73    0.42 
   2   4   6   11.61    0.44 
   2   4   6   10.86    0.42 
   2   4   6   10.25    0.38 
   2   4   6   10.81    0.34 
   2   4   6   10.18    0.39 
   2   4   6   10.87    0.38 
  -3  -4  -6   16.64    0.50 
  -3  -4  -6   16.65    0.52 
   3   4   6   17.75    0.59 
   3   4   6   16.99    0.57 
   3   4   6   16.83    0.54 
   3   4   6   17.17    0.54 
   3   4   6   17.31    0.52 
   3   4   6   17.90    0.61 
   3   4   6   17.79    0.60 
  -4  -4  -6    0.39    0.10 
   4   4   6    0.53    0.15 
   4   4   6    0.62    0.15 
   4   4   6    0.17    0.09 
   4   4   6    0.47    0.13 
   4   4   6    0.33    0.13 
  -5  -4  -6    1.65    0.19 
   5   4   6    1.81    0.21 
   5   4   6    1.34    0.23 
   5   4   6    1.49    0.21 
   5   4   6    1.48    0.22 
  -6  -4  -6    1.61    0.21 
   6   4   6    1.43    0.24 
   6   4   6    1.34    0.20 
   6   4   6    1.09    0.23 
   7  -5  -6    0.04    0.11 
   7  -5  -6    0.27    0.17 
  -7   5   6   -0.01    0.18 
   6  -5  -6    0.68    0.20 
   6  -5  -6    0.51    0.12 
  -6   5   6    0.57    0.20 
   5  -5  -6    2.70    0.20 
   5  -5  -6    2.59    0.30 
   5  -5  -6    2.56    0.18 
  -5   5   6    2.38    0.30 
   4  -5  -6    1.25    0.11 
   4  -5  -6    0.95    0.19 
   4  -5  -6    0.99    0.13 
  -4   5   6    0.82    0.19 
   3  -5  -6   28.87    0.76 
   3  -5  -6   29.28    0.89 
  -3   5   6   29.19    0.89 
   2  -5  -6   11.95    0.42 
   2  -5  -6   11.78    0.47 
   2  -5  -6   11.83    0.45 
  -2   5   6   12.17    0.48 
  -2   5   6   12.78    0.48 
   1  -5  -6   13.19    0.46 
   1  -5  -6   12.49    0.47 
   1  -5  -6   13.46    0.46 
   1  -5  -6   12.30    0.40 
  -1   5   6   13.37    0.48 
  -1   5   6   13.55    0.47 
  -1   5   6   13.21    0.45 
   0  -5  -6    0.85    0.15 
   0  -5  -6    0.81    0.12 
   0  -5  -6    0.54    0.14 
   0  -5  -6    0.91    0.11 
   0   5   6    0.79    0.15 
   0   5   6    0.69    0.11 
   0   5   6    0.89    0.13 
   0   5   6    0.71    0.11 
  -1  -5  -6   -0.02    0.10 
  -1  -5  -6    0.00    0.09 
  -1  -5  -6    0.03    0.06 
  -1  -5  -6    0.01    0.03 
   1   5   6   -0.06    0.07 
   1   5   6    0.06    0.09 
   1   5   6   -0.14    0.08 
   1   5   6    0.03    0.06 
   1   5   6    0.11    0.06 
   1   5   6    0.07    0.04 
  -2  -5  -6    0.90    0.10 
  -2  -5  -6    1.11    0.12 
   2   5   6    1.27    0.17 
   2   5   6    0.79    0.15 
   2   5   6    0.63    0.13 
   2   5   6    0.99    0.11 
   2   5   6    1.00    0.15 
   2   5   6    1.11    0.14 
   3   5   6    3.29    0.22 
   3   5   6    2.93    0.27 
   3   5   6    3.04    0.24 
   3   5   6    3.12    0.27 
   3   5   6    3.46    0.22 
   4   5   6   -0.12    0.12 
   4   5   6    0.01    0.11 
   4   5   6   -0.13    0.06 
   4   5   6    0.03    0.08 
   5   5   6   -0.16    0.18 
   5   5   6   -0.02    0.10 
   5   5   6   -0.03    0.09 
   5   5   6   -0.13    0.13 
  -6  -5  -6    0.27    0.11 
   6   5   6    0.16    0.14 
   6   5   6    0.30    0.18 
   6   5   6    0.32    0.15 
   7  -6  -6    0.92    0.25 
   7  -6  -6    1.03    0.18 
  -7   6   6    1.21    0.26 
   6  -6  -6    0.03    0.08 
   6  -6  -6   -0.05    0.14 
  -6   6   6   -0.03    0.15 
   5  -6  -6    2.46    0.29 
   5  -6  -6    1.74    0.26 
  -5   6   6    1.69    0.27 
   4  -6  -6   -0.07    0.10 
   4  -6  -6    0.12    0.08 
  -4   6   6   -0.06    0.12 
   3  -6  -6   18.79    0.58 
   3  -6  -6   19.83    0.65 
   3  -6  -6   19.80    0.67 
  -3   6   6   19.54    0.70 
   2  -6  -6    0.07    0.08 
   2  -6  -6    0.13    0.09 
   2  -6  -6    0.05    0.09 
  -2   6   6    0.01    0.08 
  -2   6   6    0.02    0.09 
   1  -6  -6    9.06    0.31 
   1  -6  -6    9.00    0.39 
   1  -6  -6    9.34    0.41 
   1  -6  -6    8.88    0.35 
  -1   6   6    9.14    0.38 
  -1   6   6    8.53    0.38 
  -1   6   6    8.95    0.39 
   0  -6  -6    0.15    0.06 
   0  -6  -6    0.07    0.06 
   0  -6  -6    0.11    0.09 
   0  -6  -6    0.05    0.11 
   0   6   6   -0.12    0.09 
   0   6   6    0.06    0.08 
   0   6   6    0.07    0.07 
   0   6   6   -0.01    0.07 
  -1  -6  -6   16.50    0.42 
  -1  -6  -6   16.39    0.62 
   1   6   6   17.07    0.58 
   1   6   6   17.61    0.56 
   1   6   6   16.17    0.57 
   1   6   6   16.28    0.40 
   2   6   6    0.13    0.08 
   2   6   6    0.23    0.09 
   2   6   6    0.25    0.10 
   2   6   6    0.17    0.13 
   3   6   6    0.83    0.15 
   3   6   6    0.73    0.13 
   3   6   6    1.10    0.15 
   3   6   6    0.79    0.18 
   4   6   6    1.44    0.18 
   4   6   6    1.00    0.18 
   4   6   6    1.44    0.24 
   4   6   6    1.22    0.19 
   5   6   6   -0.04    0.14 
   5   6   6    0.18    0.11 
   5   6   6    0.12    0.13 
  -6   7   6    0.12    0.18 
  -5   7   6    2.41    0.31 
   4  -7  -6    0.84    0.16 
  -4   7   6    0.92    0.20 
   3  -7  -6    3.29    0.26 
   3  -7  -6    2.98    0.22 
  -3   7   6    2.35    0.26 
   2  -7  -6    4.49    0.30 
   2  -7  -6    4.95    0.30 
  -2   7   6    5.27    0.33 
   1  -7  -6    4.66    0.30 
  -1   7   6    4.41    0.28 
  -1   7   6    4.69    0.29 
   0  -7  -6    1.25    0.20 
   0   7   6    1.04    0.15 
   0   7   6    1.14    0.17 
   1   7   6    0.53    0.15 
   1   7   6    0.32    0.10 
   2   7   6    0.13    0.13 
   2   7   6   -0.01    0.07 
   3   7   6    0.36    0.16 
   3   7   6    0.15    0.10 
   3   7   6    0.26    0.10 
   4   7   6    0.03    0.10 
   4   7   6    0.23    0.11 
  -6   8   6    0.01    0.18 
  -5   8   6    0.67    0.22 
  -4   8   6    0.94    0.22 
  -3   8   6    0.14    0.12 
  -2   8   6    0.18    0.11 
  -1   8   6    0.38    0.12 
  -1   8   6    0.38    0.13 
   0   8   6    0.06    0.08 
   0   8   6    0.20    0.13 
   1   8   6   -0.02    0.10 
   1   8   6   -0.02    0.07 
   2   8   6    0.08    0.13 
   2   8   6    0.13    0.09 
   3   8   6    1.83    0.22 
  -4   9   6    0.94    0.24 
  -3   9   6    0.28    0.14 
  -2   9   6    0.81    0.18 
  -1   9   6    0.57    0.16 
  -1   9   6    0.46    0.12 
   0   9   6    0.87    0.18 
   0   9   6    0.72    0.15 
   1   9   6    0.48    0.19 
   1   9   6    0.40    0.11 
   2   9   6    0.13    0.09 
  -1  10  -7    0.29    0.13 
   2   9  -7    0.42    0.09 
   2   9  -7    0.21    0.10 
   1   9  -7    0.07    0.09 
   1   9  -7    0.12    0.08 
   0   9  -7    0.15    0.09 
  -1   9  -7    0.00    0.08 
  -2   9  -7    0.83    0.17 
  -3   9  -7    0.06    0.12 
  -4   9  -7    0.20    0.15 
   4   8  -7    0.31    0.12 
   4   8  -7    0.08    0.19 
   3   8  -7    0.18    0.08 
   3   8  -7    0.31    0.11 
   2   8  -7    0.06    0.07 
   2   8  -7   -0.01    0.06 
   1   8  -7    0.14    0.07 
   1   8  -7    0.04    0.07 
   0   8  -7    0.80    0.14 
  -1   8  -7    0.26    0.11 
  -2   8  -7    0.10    0.10 
  -3   8  -7    0.09    0.12 
  -4   8  -7    2.27    0.30 
  -5   8  -7    0.11    0.18 
   5   7  -7   -0.12    0.19 
   5   7  -7   -0.09    0.10 
   4   7  -7    0.58    0.23 
   4   7  -7    0.53    0.14 
  -4  -7   7    0.54    0.08 
   3   7  -7    0.08    0.09 
  -3  -7   7    0.31    0.07 
   2   7  -7   -0.03    0.06 
   2   7  -7    0.07    0.07 
  -2  -7   7   -0.08    0.05 
   1   7  -7    0.86    0.13 
   1   7  -7    0.81    0.12 
   0   7  -7    1.19    0.15 
   0   7  -7    1.37    0.11 
  -1   7  -7    0.04    0.08 
  -2   7  -7    0.25    0.11 
  -3   7  -7    0.05    0.08 
  -3   7  -7    0.19    0.14 
  -4   7  -7    8.06    0.48 
  -5   7  -7    0.26    0.19 
  -6   7  -7    0.18    0.20 
   5   6  -7   -0.13    0.09 
   5   6  -7    0.04    0.17 
  -5  -6   7    0.04    0.06 
   4   6  -7    0.04    0.09 
   4   6  -7   -0.20    0.14 
  -4  -6   7   -0.06    0.05 
   3   6  -7   -0.02    0.07 
  -3  -6   7    0.08    0.06 
   2   6  -7    0.49    0.11 
  -2  -6   7    0.49    0.09 
   1   6  -7    0.01    0.07 
   1   6  -7    0.01    0.07 
   1   6  -7   -0.09    0.05 
  -1  -6   7   -0.04    0.06 
   0   6  -7    0.57    0.11 
   0   6  -7    0.65    0.11 
   0   6  -7    0.60    0.12 
   0  -6   7    0.75    0.10 
   0  -6   7    0.44    0.10 
  -1   6  -7    0.90    0.13 
  -1   6  -7    0.61    0.11 
  -1   6  -7    0.95    0.15 
  -1   6  -7    0.73    0.13 
   1  -6   7    0.56    0.12 
  -2   6  -7    2.70    0.25 
  -2   6  -7    2.58    0.20 
  -2   6  -7    2.16    0.22 
  -2   6  -7    2.62    0.22 
   2  -6   7    2.41    0.23 
  -3   6  -7    1.77    0.11 
  -3   6  -7    1.68    0.23 
  -3   6  -7    1.60    0.19 
   3  -6   7    2.10    0.25 
   3  -6   7    1.65    0.17 
  -4   6  -7    0.99    0.21 
   4  -6   7    0.75    0.13 
  -5   6  -7    2.10    0.30 
   5  -6   7    2.07    0.22 
  -6   6  -7    1.63    0.30 
   6  -6   7    2.06    0.25 
  -7   6  -7    0.06    0.21 
   7  -6   7    0.23    0.16 
   6   5  -7    0.63    0.18 
   6   5  -7    0.66    0.25 
   5   5  -7    0.45    0.21 
   5   5  -7    0.20    0.13 
   4   5  -7   -0.02    0.15 
   4   5  -7    0.23    0.11 
   3   5  -7    0.42    0.11 
   3   5  -7    0.80    0.17 
  -3  -5   7    0.85    0.12 
   2   5  -7    6.04    0.30 
   2   5  -7    6.08    0.30 
  -2  -5   7    5.99    0.21 
  -2  -5   7    6.07    0.26 
   1   5  -7    0.44    0.10 
   1   5  -7    0.52    0.11 
   1   5  -7    0.58    0.10 
   1   5  -7    0.31    0.08 
  -1  -5   7    0.39    0.09 
  -1  -5   7    0.55    0.09 
   0   5  -7    8.23    0.33 
   0   5  -7    8.09    0.31 
   0   5  -7    8.05    0.34 
   0  -5   7    7.63    0.31 
   0  -5   7    8.19    0.33 
  -1   5  -7    1.74    0.17 
  -1   5  -7    2.11    0.17 
  -1   5  -7    2.08    0.19 
  -1   5  -7    1.82    0.18 
   1  -5   7    1.89    0.20 
   1  -5   7    1.90    0.19 
  -2   5  -7    5.05    0.27 
  -2   5  -7    4.59    0.26 
  -2   5  -7    4.16    0.20 
  -2   5  -7    4.71    0.29 
  -2   5  -7    4.40    0.28 
   2  -5   7    4.74    0.24 
   2  -5   7    5.21    0.31 
  -3   5  -7    9.63    0.30 
  -3   5  -7    9.62    0.42 
  -3   5  -7    9.82    0.45 
  -3   5  -7    9.08    0.44 
   3  -5   7    9.82    0.46 
   3  -5   7    9.63    0.37 
  -4   5  -7    0.43    0.08 
  -4   5  -7    0.49    0.17 
  -4   5  -7    0.76    0.16 
   4  -5   7    0.23    0.15 
   4  -5   7    0.45    0.12 
  -5   5  -7   -0.06    0.14 
   5  -5   7    0.01    0.10 
   5  -5   7    0.09    0.14 
  -6   5  -7    2.64    0.35 
   6  -5   7    2.79    0.37 
   6  -5   7    2.80    0.29 
  -7   5  -7    2.40    0.39 
   7  -5   7    2.60    0.30 
   7   4  -7    0.11    0.15 
   7   4  -7    0.29    0.24 
   6   4  -7    0.96    0.26 
   6   4  -7    0.16    0.14 
   5   4  -7   -0.13    0.16 
   5   4  -7   -0.08    0.09 
   4   4  -7    0.20    0.10 
   4   4  -7    0.26    0.18 
   3   4  -7    0.08    0.09 
   3   4  -7    0.09    0.09 
  -3  -4   7   -0.02    0.06 
   2   4  -7   15.71    0.53 
   2   4  -7   15.95    0.53 
  -2  -4   7   16.38    0.50 
  -2  -4   7   16.84    0.47 
   1   4  -7    2.73    0.20 
   1   4  -7    2.50    0.17 
   1   4  -7    2.83    0.20 
  -1  -4   7    2.54    0.18 
  -1  -4   7    2.63    0.17 
   0   4  -7    0.01    0.05 
   0   4  -7    0.10    0.07 
   0   4  -7    0.12    0.08 
   0  -4   7    0.08    0.07 
   0  -4   7    0.00    0.06 
  -1   4  -7    7.86    0.32 
  -1   4  -7    7.64    0.19 
  -1   4  -7    8.03    0.34 
  -1   4  -7    7.75    0.32 
  -1   4  -7    8.65    0.35 
   1  -4   7    8.23    0.35 
   1  -4   7    8.44    0.35 
  -2   4  -7   14.03    0.50 
  -2   4  -7   12.82    0.40 
  -2   4  -7   13.53    0.48 
  -2   4  -7   15.25    0.50 
  -2   4  -7   13.72    0.50 
   2  -4   7   13.34    0.50 
   2  -4   7   13.70    0.51 
   2  -4   7   14.16    0.46 
  -3   4  -7    5.23    0.32 
  -3   4  -7    5.28    0.21 
  -3   4  -7    5.16    0.30 
  -3   4  -7    4.99    0.31 
   3  -4   7    4.78    0.26 
   3  -4   7    6.02    0.35 
  -4   4  -7    0.14    0.06 
  -4   4  -7   -0.05    0.09 
  -4   4  -7    0.19    0.13 
   4  -4   7    0.09    0.13 
   4  -4   7   -0.09    0.08 
  -5   4  -7    5.66    0.40 
   5  -4   7    4.98    0.17 
   5  -4   7    5.05    0.32 
   5  -4   7    5.53    0.41 
  -6   4  -7    4.72    0.41 
   6  -4   7    4.74    0.46 
   6  -4   7    5.12    0.34 
  -7   4  -7    4.21    0.47 
   7  -4   7    3.98    0.46 
   7  -4   7    4.16    0.35 
   7   3  -7    0.07    0.21 
   7   3  -7    0.00    0.14 
   6   3  -7    0.35    0.16 
   6   3  -7    0.28    0.22 
   5   3  -7    0.06    0.10 
   5   3  -7   -0.02    0.14 
   4   3  -7    0.66    0.19 
   4   3  -7    0.45    0.13 
   4   3  -7    0.37    0.13 
  -4  -3   7    0.43    0.10 
   3   3  -7    0.25    0.11 
   3   3  -7    0.13    0.09 
  -3  -3   7    0.14    0.08 
   2   3  -7    0.67    0.12 
   2   3  -7    0.45    0.10 
  -2  -3   7    0.50    0.10 
  -2  -3   7    0.78    0.12 
   1   3  -7    0.27    0.09 
   1   3  -7    0.25    0.09 
   1   3  -7    0.18    0.06 
  -1  -3   7    0.05    0.06 
  -1  -3   7    0.03    0.06 
   0   3  -7    2.91    0.18 
   0   3  -7    2.95    0.20 
   0   3  -7    2.76    0.20 
   0   3  -7    3.15    0.19 
   0  -3   7    3.25    0.20 
   0  -3   7    2.75    0.19 
  -1   3  -7    5.40    0.17 
  -1   3  -7    5.36    0.28 
  -1   3  -7    5.78    0.26 
  -1   3  -7    5.67    0.27 
  -1   3  -7    5.58    0.27 
   1  -3   7    5.66    0.28 
   1  -3   7    5.50    0.28 
  -2   3  -7    2.06    0.19 
  -2   3  -7    1.55    0.13 
  -2   3  -7    1.39    0.16 
  -2   3  -7    1.60    0.18 
   2  -3   7    1.35    0.18 
   2  -3   7    1.91    0.20 
   2  -3   7    1.56    0.15 
  -3   3  -7    0.09    0.08 
  -3   3  -7    0.19    0.11 
  -3   3  -7    0.04    0.06 
   3  -3   7    0.00    0.07 
   3  -3   7   -0.03    0.10 
  -4   3  -7    0.04    0.09 
  -4   3  -7    0.03    0.06 
  -4   3  -7    0.21    0.13 
   4  -3   7    0.03    0.04 
   4  -3   7    0.16    0.11 
   4  -3   7   -0.06    0.11 
  -5   3  -7    1.29    0.24 
  -5   3  -7    0.86    0.20 
   5  -3   7    1.06    0.22 
   5  -3   7    0.94    0.10 
   5  -3   7    1.05    0.17 
  -6   3  -7    2.97    0.34 
   6  -3   7    3.05    0.37 
   6  -3   7    3.25    0.31 
   6  -3   7    2.51    0.26 
   6  -3   7    2.85    0.19 
  -7   3  -7    1.46    0.30 
   7  -3   7    1.44    0.24 
   7  -3   7    1.44    0.23 
   7  -3   7    1.83    0.34 
   7   2  -7    0.43    0.22 
   7   2  -7    0.21    0.16 
   6   2  -7    0.08    0.13 
   6   2  -7    0.05    0.17 
   5   2  -7    0.02    0.11 
   5   2  -7   -0.10    0.13 
  -5  -2   7    0.14    0.10 
   4   2  -7    0.94    0.20 
   4   2  -7    0.74    0.16 
   4   2  -7    0.68    0.15 
  -4  -2   7    0.67    0.13 
   3   2  -7    0.30    0.11 
   3   2  -7    0.42    0.12 
  -3  -2   7    0.36    0.10 
   2   2  -7   25.07    0.73 
   2   2  -7   24.50    0.72 
  -2  -2   7   25.41    0.69 
   1   2  -7    0.08    0.05 
   1   2  -7    0.04    0.07 
   1   2  -7    0.08    0.07 
  -1  -2   7    0.05    0.06 
  -1  -2   7    0.03    0.06 
   0   2  -7    5.46    0.27 
   0   2  -7    5.66    0.26 
   0   2  -7    5.60    0.24 
   0  -2   7    5.36    0.26 
   0  -2   7    4.94    0.26 
  -1   2  -7   22.54    0.61 
  -1   2  -7   21.67    0.63 
  -1   2  -7   21.53    0.58 
  -1   2  -7   20.44    0.61 
  -1   2  -7   20.94    0.51 
  -1   2  -7   21.49    0.61 
   1  -2   7   21.20    0.63 
   1  -2   7   20.84    0.64 
   1  -2   7   21.52    0.60 
  -2   2  -7    8.95    0.36 
  -2   2  -7    8.65    0.36 
  -2   2  -7    7.93    0.35 
  -2   2  -7    8.21    0.30 
   2  -2   7    8.28    0.37 
   2  -2   7    8.30    0.33 
   2  -2   7    8.26    0.37 
  -3   2  -7    0.00    0.05 
  -3   2  -7    0.06    0.10 
  -3   2  -7    0.05    0.07 
   3  -2   7    0.01    0.08 
   3  -2   7    0.00    0.11 
   3  -2   7   -0.01    0.07 
  -4   2  -7    5.24    0.33 
  -4   2  -7    4.81    0.25 
  -4   2  -7    4.72    0.30 
   4  -2   7    5.32    0.22 
   4  -2   7    5.07    0.35 
   4  -2   7    4.67    0.29 
  -5   2  -7    6.13    0.35 
  -5   2  -7    5.98    0.39 
   5  -2   7    5.75    0.33 
   5  -2   7    5.81    0.27 
   5  -2   7    5.65    0.33 
   5  -2   7    5.32    0.25 
   5  -2   7    5.50    0.41 
  -6   2  -7    0.05    0.15 
   6  -2   7    0.10    0.15 
   6  -2   7    0.01    0.09 
   6  -2   7   -0.07    0.10 
   6  -2   7    0.08    0.08 
   6  -2   7   -0.16    0.10 
  -7   2  -7   -0.08    0.16 
   7  -2   7    0.08    0.11 
   7  -2   7   -0.06    0.17 
   7  -2   7    0.09    0.14 
   7  -2   7    0.00    0.15 
   8  -2   7   -0.05    0.14 
   8  -2   7    0.08    0.17 
   8   1  -7    0.39    0.24 
   8   1  -7    0.02    0.18 
   7   1  -7    0.13    0.18 
   7   1  -7   -0.19    0.11 
   6   1  -7   -0.18    0.10 
   6   1  -7   -0.16    0.14 
   5   1  -7    0.40    0.16 
   5   1  -7    0.42    0.18 
   5   1  -7    0.53    0.17 
  -5  -1   7    0.56    0.14 
   4   1  -7    0.98    0.18 
   4   1  -7    1.32    0.22 
   4   1  -7    0.81    0.18 
  -4  -1   7    0.76    0.15 
   3   1  -7    5.28    0.31 
   3   1  -7    4.74    0.29 
  -3  -1   7    5.22    0.28 
   2   1  -7    2.45    0.23 
   2   1  -7    1.63    0.18 
  -2  -1   7    2.14    0.20 
   1   1  -7    0.07    0.06 
   1   1  -7    0.11    0.05 
   1   1  -7    0.13    0.07 
  -1  -1   7    0.17    0.07 
  -1  -1   7    0.17    0.08 
   0   1  -7    0.04    0.06 
   0   1  -7    0.10    0.06 
   0   1  -7    0.23    0.09 
   0   1  -7    0.11    0.05 
   0  -1   7   -0.02    0.05 
   0  -1   7   -0.04    0.06 
  -1   1  -7    7.46    0.32 
  -1   1  -7    7.17    0.31 
  -1   1  -7    7.46    0.29 
  -1   1  -7    7.25    0.25 
  -1   1  -7    7.35    0.31 
  -1   1  -7    7.60    0.33 
   1  -1   7    8.01    0.34 
   1  -1   7    7.78    0.31 
   1  -1   7    7.33    0.32 
  -2   1  -7    0.12    0.07 
  -2   1  -7    0.20    0.07 
  -2   1  -7    0.23    0.06 
  -2   1  -7    0.28    0.10 
   2  -1   7    0.21    0.08 
   2  -1   7    0.06    0.06 
   2  -1   7    0.14    0.09 
  -3   1  -7    0.24    0.11 
  -3   1  -7    0.08    0.08 
  -3   1  -7    0.18    0.08 
   3  -1   7    0.09    0.10 
   3  -1   7    0.12    0.06 
   3  -1   7    0.46    0.13 
   3  -1   7    0.24    0.09 
   3  -1   7    0.20    0.09 
  -4   1  -7   30.25    0.86 
  -4   1  -7   32.63    0.94 
  -4   1  -7   33.83    0.93 
   4  -1   7   31.00    0.89 
   4  -1   7   31.78    0.99 
   4  -1   7   32.14    0.83 
   4  -1   7   33.00    0.87 
   4  -1   7   31.08    0.80 
  -5   1  -7    0.01    0.09 
  -5   1  -7   -0.08    0.11 
   5  -1   7    0.01    0.08 
   5  -1   7   -0.02    0.12 
   5  -1   7    0.14    0.11 
   5  -1   7   -0.05    0.07 
   5  -1   7    0.08    0.11 
  -6   1  -7    0.11    0.15 
   6  -1   7    0.31    0.13 
   6  -1   7    0.21    0.10 
   6  -1   7    0.26    0.18 
   6  -1   7    0.25    0.10 
   6  -1   7    0.18    0.14 
   7  -1   7    0.51    0.22 
   7  -1   7    0.92    0.16 
   7  -1   7    0.81    0.20 
   7  -1   7    0.70    0.15 
   7  -1   7    0.78    0.19 
   8   0  -7    0.11    0.18 
   8   0  -7    0.24    0.22 
   7   0  -7    0.23    0.17 
   7   0  -7    0.21    0.18 
   6   0  -7   -0.12    0.13 
   6   0  -7    0.16    0.14 
  -6   0   7    0.01    0.12 
   5   0  -7    0.38    0.16 
   5   0  -7    0.10    0.12 
  -5   0   7    0.08    0.11 
   4   0  -7    0.11    0.12 
   4   0  -7    0.18    0.12 
   4   0  -7    0.13    0.12 
  -4   0   7    0.10    0.10 
   3   0  -7    2.22    0.23 
   3   0  -7    1.53    0.18 
   3   0  -7    2.13    0.23 
  -3   0   7    1.57    0.18 
   2   0  -7    1.60    0.19 
   2   0  -7    1.14    0.16 
  -2   0   7    1.42    0.17 
   1   0  -7   24.24    0.71 
   1   0  -7   24.09    0.66 
   1   0  -7   24.94    0.70 
  -1   0   7   24.63    0.70 
   0   0  -7   17.97    0.49 
   0   0  -7   18.21    0.51 
   0   0  -7   18.19    0.56 
   0   0  -7   18.52    0.54 
   0   0  -7   17.67    0.55 
   0   0   7   18.37    0.56 
   0   0   7   15.50    0.52 
  -1   0  -7    0.63    0.12 
  -1   0  -7    0.45    0.10 
  -1   0  -7    0.63    0.09 
  -1   0  -7    0.47    0.10 
  -1   0  -7    0.71    0.11 
  -1   0  -7    0.51    0.08 
   1   0   7    0.51    0.11 
   1   0   7    0.79    0.12 
   1   0   7    0.53    0.11 
  -2   0  -7   -0.05    0.06 
  -2   0  -7    0.09    0.06 
  -2   0  -7    0.10    0.07 
  -2   0  -7    0.01    0.05 
  -2   0  -7   -0.06    0.06 
   2   0   7    0.10    0.07 
   2   0   7   -0.01    0.07 
   2   0   7   -0.01    0.06 
   2   0   7    0.00    0.05 
   2   0   7    0.08    0.08 
   2   0   7    0.04    0.06 
  -3   0  -7    1.95    0.19 
  -3   0  -7    2.48    0.21 
  -3   0  -7    2.27    0.18 
   3   0   7    2.44    0.20 
   3   0   7    2.29    0.18 
   3   0   7    2.19    0.21 
   3   0   7    2.25    0.19 
   3   0   7    2.34    0.16 
   3   0   7    2.07    0.22 
   3   0   7    2.08    0.22 
  -4   0  -7    3.35    0.25 
  -4   0  -7    3.71    0.26 
  -4   0  -7    3.42    0.28 
   4   0   7    4.01    0.23 
   4   0   7    3.11    0.23 
   4   0   7    3.74    0.25 
   4   0   7    3.99    0.32 
   4   0   7    3.51    0.25 
  -5   0  -7    1.33    0.20 
  -5   0  -7    1.26    0.21 
   5   0   7    0.79    0.15 
   5   0   7    0.78    0.19 
   5   0   7    0.92    0.14 
   5   0   7    0.86    0.15 
   5   0   7    0.92    0.16 
  -6   0  -7    0.52    0.19 
   6   0   7    0.64    0.14 
   6   0   7    0.79    0.23 
   6   0   7    0.44    0.14 
   6   0   7    0.61    0.17 
   6   0   7    0.71    0.17 
   7   0   7    0.09    0.13 
   7   0   7    0.08    0.18 
   7   0   7    0.12    0.12 
   7   0   7    0.09    0.15 
   8  -1  -7    1.24    0.27 
   8  -1  -7    1.06    0.28 
   7  -1  -7   -0.03    0.14 
   7  -1  -7   -0.06    0.15 
   6  -1  -7    1.38    0.22 
   6  -1  -7    1.43    0.26 
  -6   1   7    1.25    0.23 
   5  -1  -7    0.73    0.19 
   5  -1  -7    0.84    0.17 
  -5   1   7    0.69    0.16 
   4  -1  -7    4.05    0.27 
   4  -1  -7    3.99    0.32 
  -4   1   7    4.01    0.29 
   3  -1  -7    4.83    0.31 
   3  -1  -7    5.20    0.27 
  -3   1   7    5.57    0.31 
   2  -1  -7    2.27    0.22 
   2  -1  -7    2.11    0.22 
  -2   1   7    2.67    0.21 
   1  -1  -7   35.42    0.87 
   1  -1  -7   35.10    0.92 
   1  -1  -7   33.96    0.92 
  -1   1   7   33.77    0.91 
   0  -1  -7    0.92    0.11 
   0  -1  -7    1.17    0.15 
   0  -1  -7    1.05    0.13 
   0  -1  -7    1.10    0.09 
   0  -1  -7    1.28    0.14 
   0   1   7    1.12    0.14 
   0   1   7    1.32    0.15 
   0   1   7    1.28    0.15 
  -1  -1  -7    1.15    0.13 
  -1  -1  -7    1.08    0.12 
  -1  -1  -7    1.09    0.13 
  -1  -1  -7    1.27    0.11 
  -1  -1  -7    1.31    0.15 
   1   1   7    0.96    0.12 
   1   1   7    1.06    0.14 
   1   1   7    1.24    0.16 
  -2  -1  -7   18.95    0.57 
  -2  -1  -7   17.79    0.55 
  -2  -1  -7   17.55    0.56 
  -2  -1  -7   18.57    0.52 
  -2  -1  -7   17.47    0.54 
  -2  -1  -7   18.16    0.56 
   2   1   7   18.33    0.52 
   2   1   7   17.80    0.57 
   2   1   7   17.42    0.54 
   2   1   7   18.06    0.60 
   2   1   7   17.86    0.55 
   2   1   7   18.32    0.55 
  -3  -1  -7   44.85    1.13 
  -3  -1  -7   44.14    1.13 
  -3  -1  -7   44.15    1.13 
  -3  -1  -7   44.31    1.14 
   3   1   7   43.63    1.11 
   3   1   7   45.38    1.17 
   3   1   7   43.34    1.18 
   3   1   7   43.53    1.06 
   3   1   7   44.37    1.10 
   3   1   7   45.44    1.09 
   3   1   7   44.26    1.11 
  -4  -1  -7    8.26    0.40 
  -4  -1  -7    8.04    0.38 
  -4  -1  -7    7.82    0.39 
   4   1   7    8.24    0.37 
   4   1   7    8.03    0.38 
   4   1   7    7.76    0.35 
   4   1   7    8.15    0.35 
   4   1   7    8.22    0.44 
   4   1   7    7.86    0.37 
  -5  -1  -7    6.56    0.36 
  -5  -1  -7    6.71    0.39 
   5   1   7    6.80    0.34 
   5   1   7    6.50    0.34 
   5   1   7    7.22    0.36 
   5   1   7    6.77    0.44 
   5   1   7    6.22    0.35 
  -6  -1  -7    4.80    0.34 
   6   1   7    4.92    0.32 
   6   1   7    5.02    0.47 
   6   1   7    4.99    0.38 
   6   1   7    4.22    0.32 
   6   1   7    5.18    0.35 
   7   1   7    3.47    0.44 
   7   1   7    2.72    0.28 
   7   1   7    2.77    0.30 
   7   1   7    2.59    0.30 
   8  -2  -7   -0.10    0.16 
   8  -2  -7   -0.11    0.17 
   7  -2  -7    2.66    0.31 
   7  -2  -7    2.67    0.36 
  -7   2   7    2.16    0.30 
   6  -2  -7   -0.06    0.13 
   6  -2  -7    0.16    0.13 
  -6   2   7    0.10    0.14 
   5  -2  -7    0.15    0.14 
   5  -2  -7    0.19    0.12 
  -5   2   7    0.14    0.13 
   4  -2  -7    1.49    0.17 
   4  -2  -7    1.84    0.24 
  -4   2   7    1.02    0.18 
   3  -2  -7    0.89    0.12 
   3  -2  -7    0.78    0.16 
  -3   2   7    0.77    0.14 
   2  -2  -7    6.47    0.23 
   2  -2  -7    6.23    0.28 
   2  -2  -7    6.27    0.33 
  -2   2   7    6.14    0.32 
   1  -2  -7   15.00    0.51 
   1  -2  -7   13.72    0.45 
  -1   2   7   13.64    0.49 
   0  -2  -7   24.75    0.57 
   0  -2  -7   25.49    0.69 
   0  -2  -7   25.88    0.69 
   0  -2  -7   24.65    0.69 
   0  -2  -7   25.10    0.72 
   0   2   7   26.46    0.74 
   0   2   7   26.31    0.71 
   0   2   7   25.69    0.72 
  -1  -2  -7    5.97    0.27 
  -1  -2  -7    6.05    0.29 
  -1  -2  -7    6.10    0.28 
  -1  -2  -7    6.20    0.27 
  -1  -2  -7    6.31    0.22 
   1   2   7    5.67    0.28 
   1   2   7    5.98    0.29 
   1   2   7    5.88    0.27 
   1   2   7    6.48    0.31 
  -2  -2  -7    0.27    0.09 
  -2  -2  -7    0.30    0.09 
  -2  -2  -7    0.44    0.11 
  -2  -2  -7    0.37    0.09 
  -2  -2  -7    0.42    0.11 
   2   2   7    0.24    0.11 
   2   2   7    0.26    0.09 
   2   2   7    0.29    0.11 
   2   2   7    0.16    0.08 
   2   2   7    0.21    0.08 
   2   2   7    0.35    0.11 
   2   2   7    0.37    0.08 
  -3  -2  -7    3.44    0.24 
  -3  -2  -7    3.86    0.27 
  -3  -2  -7    3.27    0.23 
  -3  -2  -7    3.50    0.24 
   3   2   7    3.16    0.22 
   3   2   7    3.60    0.23 
   3   2   7    3.30    0.25 
   3   2   7    3.39    0.23 
   3   2   7    3.69    0.28 
   3   2   7    3.94    0.27 
   3   2   7    3.34    0.21 
  -4  -2  -7   15.32    0.54 
  -4  -2  -7   15.49    0.55 
  -4  -2  -7   14.47    0.55 
   4   2   7   15.44    0.53 
   4   2   7   15.20    0.55 
   4   2   7   16.09    0.62 
   4   2   7   15.44    0.54 
   4   2   7   15.27    0.55 
   4   2   7   15.71    0.52 
  -5  -2  -7    3.28    0.26 
  -5  -2  -7    2.97    0.24 
   5   2   7    3.03    0.25 
   5   2   7    3.20    0.28 
   5   2   7    2.96    0.27 
   5   2   7    3.05    0.27 
   5   2   7    2.94    0.32 
  -6  -2  -7    0.50    0.15 
   6   2   7    0.78    0.16 
   6   2   7    0.56    0.18 
   6   2   7    0.46    0.15 
   6   2   7    0.96    0.24 
   7   2   7    0.15    0.14 
   7   2   7    0.55    0.21 
   7   2   7    0.22    0.20 
   8  -3  -7    0.40    0.18 
   8  -3  -7    0.34    0.22 
   7  -3  -7    1.04    0.20 
   7  -3  -7    0.98    0.25 
  -7   3   7    1.39    0.26 
   6  -3  -7    0.42    0.19 
   6  -3  -7    0.30    0.14 
  -6   3   7    0.12    0.15 
   5  -3  -7    0.63    0.13 
   5  -3  -7    0.48    0.18 
  -5   3   7    0.45    0.17 
   4  -3  -7    1.38    0.15 
   4  -3  -7    1.15    0.21 
  -4   3   7    1.38    0.20 
   3  -3  -7    6.18    0.36 
   3  -3  -7    5.70    0.28 
   3  -3  -7    5.79    0.22 
  -3   3   7    6.18    0.35 
   2  -3  -7    1.90    0.21 
   2  -3  -7    2.04    0.19 
   2  -3  -7    1.99    0.09 
  -2   3   7    2.05    0.21 
   1  -3  -7    5.34    0.29 
   1  -3  -7    6.00    0.27 
   1  -3  -7    5.49    0.27 
  -1   3   7    5.53    0.30 
  -1   3   7    5.10    0.27 
   0  -3  -7   -0.04    0.07 
   0  -3  -7    0.07    0.06 
   0  -3  -7   -0.04    0.05 
   0  -3  -7   -0.05    0.06 
   0   3   7   -0.01    0.05 
   0   3   7   -0.04    0.07 
   0   3   7   -0.09    0.08 
   0   3   7   -0.04    0.05 
  -1  -3  -7    2.37    0.17 
  -1  -3  -7    2.11    0.13 
  -1  -3  -7    2.24    0.21 
  -1  -3  -7    2.47    0.23 
  -1  -3  -7    2.37    0.19 
   1   3   7    2.34    0.21 
   1   3   7    2.47    0.20 
   1   3   7    2.54    0.18 
   1   3   7    2.16    0.18 
  -2  -3  -7   16.46    0.52 
  -2  -3  -7   17.26    0.59 
  -2  -3  -7   16.77    0.53 
  -2  -3  -7   16.65    0.57 
  -2  -3  -7   16.78    0.50 
   2   3   7   16.94    0.55 
   2   3   7   16.53    0.45 
   2   3   7   17.19    0.55 
   2   3   7   16.34    0.53 
   2   3   7   16.45    0.53 
   2   3   7   16.71    0.58 
   2   3   7   16.77    0.56 
  -3  -3  -7    1.10    0.15 
  -3  -3  -7    0.81    0.13 
   3   3   7    0.90    0.14 
   3   3   7    0.96    0.16 
   3   3   7    1.16    0.16 
   3   3   7    0.81    0.15 
   3   3   7    1.05    0.18 
   3   3   7    0.65    0.12 
   3   3   7    0.62    0.13 
  -4  -3  -7    0.04    0.08 
  -4  -3  -7    0.16    0.09 
  -4  -3  -7    0.12    0.09 
   4   3   7    0.02    0.09 
   4   3   7    0.07    0.11 
   4   3   7    0.17    0.13 
   4   3   7    0.09    0.11 
   4   3   7    0.08    0.09 
  -5  -3  -7    5.37    0.32 
   5   3   7    4.89    0.39 
   5   3   7    5.39    0.33 
   5   3   7    5.90    0.36 
   5   3   7    5.36    0.33 
  -6  -3  -7    3.72    0.31 
   6   3   7    4.22    0.35 
   6   3   7    4.03    0.42 
   6   3   7    3.93    0.34 
   6   3   7    4.08    0.31 
   7   3   7   -0.02    0.18 
   7   3   7    0.12    0.14 
   8  -4  -7    0.59    0.19 
   8  -4  -7    0.85    0.26 
   7  -4  -7    2.13    0.24 
   7  -4  -7    2.63    0.36 
  -7   4   7    1.62    0.28 
   6  -4  -7    1.18    0.17 
   6  -4  -7    1.08    0.26 
  -6   4   7    0.95    0.22 
   5  -4  -7    0.00    0.09 
   5  -4  -7    0.02    0.12 
   5  -4  -7    0.08    0.08 
  -5   4   7    0.01    0.14 
   4  -4  -7    0.51    0.12 
   4  -4  -7    0.55    0.09 
   4  -4  -7    0.55    0.17 
  -4   4   7    0.41    0.16 
   3  -4  -7   15.12    0.59 
   3  -4  -7   14.12    0.48 
   3  -4  -7   14.12    0.35 
  -3   4   7   14.53    0.57 
   2  -4  -7    0.10    0.08 
   2  -4  -7   -0.08    0.08 
   2  -4  -7    0.04    0.08 
  -2   4   7    0.06    0.09 
   1  -4  -7    0.73    0.12 
   1  -4  -7    0.73    0.12 
   1  -4  -7    0.84    0.15 
   1  -4  -7    1.05    0.13 
  -1   4   7    0.78    0.13 
  -1   4   7    0.75    0.14 
   0  -4  -7    1.37    0.16 
   0  -4  -7    1.69    0.18 
   0  -4  -7    2.04    0.20 
   0  -4  -7    1.81    0.15 
   0   4   7    1.97    0.20 
   0   4   7    1.43    0.16 
   0   4   7    1.72    0.18 
   0   4   7    2.02    0.21 
  -1  -4  -7    1.91    0.21 
  -1  -4  -7    1.71    0.18 
  -1  -4  -7    1.87    0.20 
   1   4   7    1.93    0.19 
   1   4   7    1.86    0.20 
   1   4   7    1.61    0.18 
   1   4   7    1.69    0.18 
  -2  -4  -7    2.47    0.19 
  -2  -4  -7    2.30    0.18 
   2   4   7    2.22    0.22 
   2   4   7    2.69    0.25 
   2   4   7    2.47    0.21 
   2   4   7    2.45    0.15 
   2   4   7    1.89    0.18 
   2   4   7    2.38    0.20 
  -3  -4  -7    4.86    0.25 
  -3  -4  -7    4.84    0.26 
   3   4   7    5.11    0.30 
   3   4   7    4.53    0.24 
   3   4   7    4.30    0.29 
   3   4   7    5.45    0.33 
   3   4   7    4.85    0.31 
   3   4   7    4.18    0.26 
   4   4   7    3.78    0.26 
   4   4   7    4.19    0.31 
   4   4   7    4.24    0.27 
   4   4   7    3.97    0.31 
  -5  -4  -7   -0.12    0.07 
   5   4   7    0.09    0.11 
   5   4   7   -0.12    0.12 
   5   4   7    0.14    0.14 
   5   4   7    0.01    0.10 
  -6  -4  -7    0.87    0.18 
   6   4   7    0.80    0.23 
   6   4   7    0.81    0.18 
   6   4   7    0.78    0.20 
   7  -5  -7    0.39    0.14 
   7  -5  -7    0.44    0.21 
  -7   5   7    0.15    0.20 
   6  -5  -7    0.20    0.18 
   6  -5  -7    0.15    0.10 
  -6   5   7   -0.06    0.14 
   5  -5  -7   -0.02    0.08 
   5  -5  -7    0.00    0.07 
   5  -5  -7   -0.01    0.13 
  -5   5   7    0.08    0.13 
   4  -5  -7    0.15    0.13 
   4  -5  -7    0.10    0.05 
   4  -5  -7    0.16    0.09 
  -4   5   7   -0.11    0.11 
   3  -5  -7    0.20    0.10 
   3  -5  -7    0.44    0.14 
   3  -5  -7    0.14    0.09 
  -3   5   7    0.07    0.13 
   2  -5  -7    0.25    0.12 
   2  -5  -7    0.14    0.09 
   2  -5  -7    0.30    0.11 
  -2   5   7    0.14    0.11 
   1  -5  -7   21.07    0.66 
   1  -5  -7   22.42    0.68 
   1  -5  -7   21.32    0.68 
  -1   5   7   21.30    0.69 
  -1   5   7   22.11    0.68 
   0  -5  -7   10.48    0.40 
   0  -5  -7   10.27    0.36 
   0  -5  -7    9.90    0.43 
   0  -5  -7   10.74    0.44 
   0   5   7   11.42    0.44 
   0   5   7    9.68    0.41 
   0   5   7   10.15    0.41 
   0   5   7   10.81    0.40 
  -1  -5  -7    0.20    0.08 
  -1  -5  -7    0.22    0.07 
  -1  -5  -7    0.08    0.09 
   1   5   7    0.11    0.08 
   1   5   7    0.07    0.11 
   1   5   7    0.18    0.08 
   1   5   7    0.07    0.09 
  -2  -5  -7    1.29    0.22 
   2   5   7    1.39    0.12 
   2   5   7    1.59    0.20 
   2   5   7    1.75    0.21 
   2   5   7    1.43    0.20 
   2   5   7    1.39    0.17 
   3   5   7    0.16    0.10 
   3   5   7    0.17    0.09 
   3   5   7    0.07    0.08 
   3   5   7    0.10    0.12 
   4   5   7    0.39    0.14 
   4   5   7    0.42    0.13 
   4   5   7    0.47    0.16 
   4   5   7    0.61    0.13 
   5   5   7    2.23    0.23 
   5   5   7    2.03    0.25 
   5   5   7    2.42    0.31 
   7  -6  -7    0.03    0.17 
  -7   6   7    0.11    0.18 
   6  -6  -7    0.69    0.20 
  -6   6   7    0.67    0.21 
   5  -6  -7    0.98    0.21 
  -5   6   7    0.74    0.20 
   4  -6  -7    1.95    0.26 
   4  -6  -7    1.58    0.18 
   4  -6  -7    1.42    0.19 
  -4   6   7    1.38    0.23 
   3  -6  -7    9.22    0.39 
   3  -6  -7    9.82    0.46 
   3  -6  -7    9.89    0.44 
  -3   6   7    9.45    0.48 
   2  -6  -7    0.09    0.09 
   2  -6  -7   -0.03    0.04 
   2  -6  -7    0.17    0.10 
   2  -6  -7    0.15    0.10 
  -2   6   7    0.04    0.10 
   1  -6  -7   -0.02    0.07 
   1  -6  -7    0.13    0.08 
   1  -6  -7   -0.07    0.05 
  -1   6   7    0.01    0.08 
   0  -6  -7    0.01    0.05 
   0  -6  -7    0.08    0.09 
   0   6   7    0.01    0.07 
   0   6   7    0.06    0.11 
  -1  -6  -7    2.24    0.25 
   1   6   7    3.01    0.23 
   1   6   7    2.54    0.24 
   2   6   7    1.57    0.22 
   2   6   7    1.35    0.19 
   2   6   7    1.43    0.19 
   3   6   7    0.09    0.13 
   3   6   7   -0.07    0.08 
   3   6   7    0.17    0.10 
   3   6   7   -0.04    0.09 
   4   6   7    1.52    0.19 
   4   6   7    2.04    0.23 
   4   6   7    1.39    0.22 
   5   6   7    0.06    0.12 
   5   6   7    0.28    0.15 
  -6   7   7    0.04    0.17 
  -5   7   7    0.28    0.17 
  -4   7   7    0.34    0.17 
  -3   7   7    2.38    0.27 
   2  -7  -7    0.09    0.11 
  -2   7   7    0.41    0.13 
  -1   7   7    3.05    0.25 
  -1   7   7    2.89    0.25 
   0   7   7    0.53    0.15 
   0   7   7    0.95    0.16 
   1   7   7    0.10    0.09 
   1   7   7    0.15    0.12 
   2   7   7    0.60    0.16 
   2   7   7    0.97    0.16 
   3   7   7    1.48    0.21 
   3   7   7    1.62    0.19 
   4   7   7    0.79    0.17 
   4   7   7    0.69    0.15 
  -5   8   7    0.02    0.16 
  -4   8   7   -0.06    0.13 
  -3   8   7   -0.07    0.10 
  -2   8   7    2.37    0.25 
  -1   8   7    3.27    0.29 
  -1   8   7    3.34    0.28 
   0   8   7    0.17    0.11 
   0   8   7   -0.11    0.10 
   1   8   7    1.83    0.21 
   1   8   7    1.57    0.22 
   2   8   7    1.54    0.21 
   3   8   7    0.00    0.09 
  -3   9   7    0.17    0.13 
  -2   9   7    1.61    0.24 
  -1   9   7    0.06    0.10 
   0   9   7    0.62    0.15 
   0   9   7    0.32    0.15 
   1   9   7    0.21    0.12 
   1   9  -8    0.20    0.10 
   1   9  -8    0.26    0.10 
   0   9  -8   -0.07    0.08 
   0   9  -8    0.03    0.08 
  -1   9  -8   -0.03    0.10 
  -2   9  -8    1.26    0.22 
  -3   9  -8    0.44    0.16 
   3   8  -8   -0.01    0.07 
   3   8  -8   -0.09    0.08 
   2   8  -8    0.12    0.09 
   2   8  -8    0.04    0.07 
   1   8  -8    0.27    0.09 
   1   8  -8    0.10    0.08 
   0   8  -8    0.00    0.07 
   0   8  -8   -0.04    0.08 
  -1   8  -8    0.24    0.11 
  -2   8  -8    0.00    0.10 
  -3   8  -8    0.13    0.14 
  -4   8  -8    0.10    0.16 
  -5   8  -8    0.27    0.20 
   4   7  -8    0.63    0.15 
   3   7  -8    0.23    0.10 
  -3  -7   8    0.12    0.07 
   2   7  -8    0.05    0.07 
   2   7  -8   -0.09    0.06 
  -2  -7   8    0.14    0.08 
   1   7  -8    0.03    0.08 
   1   7  -8    0.36    0.10 
  -1  -7   8    0.09    0.08 
   0   7  -8    0.92    0.14 
  -1   7  -8   -0.12    0.07 
  -2   7  -8    0.59    0.15 
  -3   7  -8    6.58    0.40 
  -4   7  -8    1.11    0.24 
  -5   7  -8   -0.13    0.16 
  -6   7  -8    0.68    0.26 
   5   6  -8    0.07    0.21 
   5   6  -8   -0.21    0.10 
  -5  -6   8   -0.01    0.07 
   4   6  -8   -0.03    0.09 
  -4  -6   8   -0.08    0.06 
   3   6  -8    0.09    0.09 
  -3  -6   8    0.18    0.08 
   2   6  -8    0.86    0.13 
   2   6  -8    0.76    0.13 
  -2  -6   8    0.59    0.11 
   1   6  -8    1.30    0.16 
   1   6  -8    1.42    0.17 
  -1  -6   8    1.49    0.16 
   0   6  -8    0.90    0.14 
   0  -6   8    0.77    0.13 
  -1   6  -8    1.93    0.20 
  -2   6  -8    2.58    0.21 
  -2   6  -8    2.46    0.17 
  -2   6  -8    2.98    0.28 
  -3   6  -8   11.15    0.50 
  -3   6  -8   10.79    0.50 
   3  -6   8   10.82    0.42 
  -4   6  -8    4.08    0.35 
   4  -6   8    3.43    0.25 
  -5   6  -8    0.28    0.18 
   5  -6   8    0.25    0.13 
  -6   6  -8    0.06    0.18 
   6  -6   8    0.09    0.12 
   6   5  -8    0.30    0.24 
   6   5  -8    0.06    0.13 
   5   5  -8    0.07    0.20 
   5   5  -8    0.01    0.11 
   4   5  -8    0.10    0.10 
  -4  -5   8    0.01    0.07 
   3   5  -8    1.96    0.22 
  -3  -5   8    2.07    0.19 
   2   5  -8    0.25    0.11 
   2   5  -8    0.15    0.08 
  -2  -5   8    0.13    0.08 
  -2  -5   8    0.01    0.07 
   1   5  -8    2.27    0.17 
   1   5  -8    2.58    0.24 
   1   5  -8    2.35    0.19 
   1   5  -8    2.51    0.21 
  -1  -5   8    2.63    0.20 
  -1  -5   8    2.37    0.18 
   0   5  -8    1.15    0.14 
   0   5  -8    0.98    0.15 
   0   5  -8    1.09    0.16 
   0   5  -8    1.07    0.15 
   0  -5   8    0.91    0.14 
   0  -5   8    1.20    0.15 
  -1   5  -8   -0.05    0.09 
  -1   5  -8    0.23    0.09 
  -1   5  -8    0.34    0.11 
   1  -5   8   -0.02    0.06 
   1  -5   8    0.06    0.09 
  -2   5  -8    0.25    0.12 
  -2   5  -8    0.39    0.13 
  -2   5  -8    0.32    0.08 
  -2   5  -8    0.13    0.08 
   2  -5   8    0.25    0.13 
   2  -5   8    0.35    0.09 
  -3   5  -8    0.12    0.12 
  -3   5  -8   -0.07    0.13 
  -3   5  -8    0.12    0.06 
  -3   5  -8    0.22    0.10 
   3  -5   8    0.01    0.13 
   3  -5   8    0.11    0.08 
  -4   5  -8   -0.01    0.12 
   4  -5   8   -0.02    0.08 
   4  -5   8    0.10    0.15 
  -5   5  -8    2.66    0.34 
   5  -5   8    2.34    0.32 
   5  -5   8    1.58    0.21 
  -6   5  -8    0.13    0.19 
   6  -5   8    0.17    0.13 
  -7   5  -8    0.74    0.26 
   7  -5   8    0.60    0.19 
   6   4  -8    0.47    0.24 
   6   4  -8   -0.03    0.12 
   5   4  -8    0.01    0.11 
   5   4  -8    0.05    0.16 
   4   4  -8    0.06    0.10 
   3   4  -8    3.60    0.27 
   3   4  -8    3.91    0.32 
  -3  -4   8    3.96    0.24 
  -3  -4   8    3.43    0.21 
   2   4  -8   17.09    0.58 
   2   4  -8   16.54    0.57 
  -2  -4   8   16.62    0.51 
  -2  -4   8   17.62    0.54 
   1   4  -8    0.00    0.06 
   1   4  -8   -0.06    0.05 
   1   4  -8    0.10    0.08 
   1   4  -8    0.01    0.08 
  -1  -4   8    0.00    0.07 
  -1  -4   8    0.01    0.07 
   0   4  -8    0.16    0.07 
   0   4  -8    0.10    0.08 
   0   4  -8    0.13    0.08 
   0   4  -8    0.17    0.09 
   0  -4   8    0.20    0.09 
   0  -4   8    0.01    0.07 
  -1   4  -8    0.09    0.03 
  -1   4  -8    0.19    0.09 
  -1   4  -8    0.10    0.07 
  -1   4  -8    0.17    0.08 
  -1   4  -8    0.25    0.10 
   1  -4   8    0.18    0.10 
   1  -4   8    0.15    0.10 
  -2   4  -8    0.28    0.10 
  -2   4  -8    0.48    0.13 
  -2   4  -8    0.07    0.10 
  -2   4  -8    0.30    0.08 
   2  -4   8    0.27    0.09 
   2  -4   8    0.51    0.14 
   2  -4   8    0.36    0.12 
  -3   4  -8    0.22    0.13 
  -3   4  -8    0.35    0.08 
  -3   4  -8    0.38    0.11 
   3  -4   8    0.07    0.08 
   3  -4   8    0.42    0.15 
  -4   4  -8   -0.10    0.09 
  -4   4  -8    0.09    0.06 
  -4   4  -8    0.01    0.12 
   4  -4   8    0.05    0.09 
   4  -4   8    0.07    0.12 
  -5   4  -8    3.57    0.37 
   5  -4   8    3.07    0.34 
   5  -4   8    3.08    0.26 
  -6   4  -8    0.53    0.22 
   6  -4   8    0.17    0.19 
   6  -4   8    0.62    0.17 
  -7   4  -8    0.50    0.23 
   7  -4   8    0.84    0.27 
   7  -4   8    0.76    0.19 
   7   3  -8   -0.01    0.15 
   7   3  -8   -0.07    0.20 
   6   3  -8    0.26    0.16 
   6   3  -8    0.39    0.21 
   5   3  -8    0.19    0.14 
   5   3  -8   -0.05    0.16 
   4   3  -8    0.19    0.13 
   4   3  -8    0.15    0.16 
  -4  -3   8    0.26    0.10 
   3   3  -8    2.89    0.24 
   3   3  -8    2.85    0.25 
   2   3  -8    0.98    0.15 
   2   3  -8    0.95    0.16 
  -2  -3   8    0.82    0.13 
  -2  -3   8    1.04    0.14 
   1   3  -8    0.94    0.15 
   1   3  -8    1.20    0.17 
   1   3  -8    1.09    0.13 
  -1  -3   8    1.21    0.15 
  -1  -3   8    1.10    0.14 
   0   3  -8    3.60    0.23 
   0   3  -8    3.47    0.22 
   0   3  -8    3.75    0.24 
   0   3  -8    3.71    0.21 
   0  -3   8    3.32    0.23 
   0  -3   8    3.58    0.24 
  -1   3  -8   10.44    0.42 
  -1   3  -8   10.40    0.40 
  -1   3  -8   10.23    0.29 
  -1   3  -8    9.81    0.40 
   1  -3   8   10.45    0.43 
   1  -3   8   10.63    0.42 
  -2   3  -8    0.34    0.11 
  -2   3  -8    0.29    0.08 
  -2   3  -8    0.23    0.10 
  -2   3  -8    0.30    0.09 
   2  -3   8    0.42    0.12 
   2  -3   8    0.29    0.10 
   2  -3   8    0.21    0.11 
  -3   3  -8    0.10    0.10 
  -3   3  -8    0.13    0.09 
  -3   3  -8    0.15    0.07 
   3  -3   8    0.07    0.09 
   3  -3   8    0.07    0.13 
   3  -3   8    0.12    0.10 
  -4   3  -8    0.60    0.13 
  -4   3  -8    0.66    0.12 
  -4   3  -8    0.62    0.17 
   4  -3   8    0.56    0.16 
   4  -3   8    0.58    0.14 
  -5   3  -8    0.48    0.18 
   5  -3   8    0.78    0.16 
   5  -3   8    0.66    0.20 
   5  -3   8    0.72    0.09 
  -6   3  -8    1.06    0.25 
   6  -3   8    0.82    0.18 
   6  -3   8    1.33    0.28 
  -7   3  -8    2.55    0.36 
   7  -3   8    1.78    0.34 
   7  -3   8    2.03    0.26 
   7  -3   8    2.04    0.27 
   7   2  -8    0.08    0.15 
   7   2  -8   -0.15    0.17 
   6   2  -8    0.10    0.16 
   6   2  -8    0.25    0.14 
   5   2  -8   -0.01    0.11 
   5   2  -8   -0.09    0.13 
   4   2  -8    0.75    0.17 
   4   2  -8    0.42    0.14 
   4   2  -8    0.56    0.18 
  -4  -2   8    0.71    0.14 
   3   2  -8    0.11    0.10 
   3   2  -8    0.16    0.10 
  -3  -2   8    0.19    0.10 
   2   2  -8    0.75    0.15 
   2   2  -8    0.62    0.14 
  -2  -2   8    0.68    0.12 
   1   2  -8    6.27    0.32 
   1   2  -8    6.37    0.28 
   1   2  -8    6.43    0.32 
  -1  -2   8    6.54    0.30 
  -1  -2   8    6.88    0.31 
   0   2  -8    2.81    0.19 
   0   2  -8    2.34    0.20 
   0   2  -8    2.50    0.21 
   0   2  -8    2.65    0.20 
   0  -2   8    2.58    0.20 
   0  -2   8    2.45    0.20 
  -1   2  -8   12.83    0.47 
  -1   2  -8   12.88    0.48 
  -1   2  -8   13.44    0.49 
  -1   2  -8   13.38    0.37 
  -1   2  -8   13.36    0.43 
   1  -2   8   13.46    0.48 
   1  -2   8   13.62    0.49 
  -2   2  -8    3.02    0.19 
  -2   2  -8    3.01    0.23 
  -2   2  -8    2.78    0.21 
   2  -2   8    3.54    0.27 
   2  -2   8    3.45    0.22 
   2  -2   8    3.35    0.25 
  -3   2  -8    1.62    0.21 
  -3   2  -8    1.54    0.16 
  -3   2  -8    1.26    0.16 
   3  -2   8    1.30    0.16 
   3  -2   8    1.60    0.21 
   3  -2   8    1.55    0.21 
  -4   2  -8    0.30    0.11 
  -4   2  -8    0.43    0.15 
  -4   2  -8    0.10    0.08 
   4  -2   8    0.41    0.16 
   4  -2   8    0.24    0.07 
   4  -2   8    0.31    0.12 
  -5   2  -8    0.00    0.13 
   5  -2   8    0.33    0.17 
   5  -2   8    0.11    0.12 
   5  -2   8    0.03    0.09 
   5  -2   8    0.02    0.07 
  -6   2  -8    2.47    0.33 
   6  -2   8    2.49    0.36 
   6  -2   8    2.62    0.23 
   6  -2   8    2.37    0.27 
   6  -2   8    2.61    0.28 
   6  -2   8    2.80    0.21 
  -7   2  -8    3.27    0.44 
   7  -2   8    3.11    0.37 
   7  -2   8    3.75    0.36 
   7  -2   8    3.12    0.42 
   7  -2   8    3.44    0.35 
   7   1  -8   -0.09    0.17 
   7   1  -8    0.21    0.17 
   6   1  -8    0.38    0.17 
   6   1  -8    0.92    0.23 
   5   1  -8    0.09    0.15 
   5   1  -8    0.05    0.12 
  -5  -1   8    0.10    0.10 
   4   1  -8    8.80    0.46 
   4   1  -8    8.79    0.43 
   4   1  -8    8.63    0.44 
  -4  -1   8    8.36    0.40 
   3   1  -8    3.78    0.28 
   3   1  -8    3.86    0.28 
  -3  -1   8    4.13    0.27 
   2   1  -8    4.75    0.29 
   2   1  -8    4.57    0.28 
  -2  -1   8    4.53    0.27 
   1   1  -8    1.27    0.17 
   1   1  -8    0.99    0.15 
  -1  -1   8    1.37    0.16 
  -1  -1   8    1.51    0.17 
   0   1  -8    1.07    0.14 
   0   1  -8    1.02    0.15 
   0   1  -8    1.07    0.15 
   0   1  -8    0.92    0.13 
   0  -1   8    0.92    0.14 
   0  -1   8    0.99    0.14 
  -1   1  -8   15.16    0.53 
  -1   1  -8   15.94    0.49 
  -1   1  -8   16.54    0.53 
  -1   1  -8   16.02    0.59 
  -1   1  -8   15.67    0.44 
   1  -1   8   15.38    0.54 
   1  -1   8   15.36    0.50 
   1  -1   8   15.85    0.53 
  -2   1  -8    6.78    0.26 
  -2   1  -8    6.79    0.33 
  -2   1  -8    6.77    0.32 
  -2   1  -8    6.10    0.28 
   2  -1   8    6.71    0.35 
   2  -1   8    6.74    0.31 
  -3   1  -8    0.05    0.10 
  -3   1  -8    0.00    0.08 
  -3   1  -8    0.06    0.07 
   3  -1   8   -0.10    0.09 
   3  -1   8    0.00    0.08 
   3  -1   8    0.10    0.11 
  -4   1  -8   11.98    0.51 
  -4   1  -8   11.30    0.48 
  -4   1  -8   11.47    0.45 
   4  -1   8   11.63    0.39 
   4  -1   8   11.31    0.55 
   4  -1   8   12.39    0.44 
   4  -1   8   11.29    0.47 
  -5   1  -8    1.34    0.20 
  -5   1  -8    1.42    0.24 
   5  -1   8    1.32    0.20 
   5  -1   8    1.33    0.15 
   5  -1   8    1.63    0.19 
   5  -1   8    1.33    0.24 
   5  -1   8    1.44    0.20 
  -6   1  -8    6.69    0.45 
   6  -1   8    6.82    0.33 
   6  -1   8    6.50    0.49 
   6  -1   8    6.15    0.37 
   6  -1   8    6.05    0.33 
   6  -1   8    6.36    0.39 
   7  -1   8    4.49    0.36 
   7  -1   8    4.90    0.51 
   7  -1   8    3.38    0.34 
   7  -1   8    3.83    0.28 
   7   0  -8    0.76    0.22 
   7   0  -8    1.22    0.27 
   6   0  -8   -0.02    0.14 
   6   0  -8    0.21    0.16 
  -6   0   8   -0.14    0.10 
   5   0  -8    0.53    0.16 
   5   0  -8    0.52    0.17 
  -5   0   8    0.29    0.13 
   4   0  -8    0.99    0.20 
   4   0  -8    0.59    0.17 
  -4   0   8    0.59    0.14 
   3   0  -8    0.23    0.12 
   3   0  -8    0.21    0.11 
   3   0  -8    0.07    0.09 
  -3   0   8    0.21    0.10 
   2   0  -8    0.67    0.14 
   2   0  -8    0.65    0.13 
  -2   0   8    0.45    0.12 
   1   0  -8    4.95    0.29 
   1   0  -8    4.94    0.28 
  -1   0   8    5.23    0.29 
   0   0  -8   14.13    0.50 
   0   0  -8   13.55    0.47 
   0   0  -8   13.72    0.42 
   0   0  -8   14.11    0.46 
   0   0   8   14.49    0.51 
  -1   0  -8   32.57    0.85 
  -1   0  -8   32.39    0.87 
  -1   0  -8   31.11    0.78 
  -1   0  -8   32.01    0.82 
   1   0   8   27.32    0.83 
   1   0   8   31.40    0.84 
   1   0   8   31.36    0.88 
  -2   0  -8    4.32    0.26 
  -2   0  -8    4.99    0.25 
  -2   0  -8    4.26    0.25 
  -2   0  -8    4.35    0.27 
  -2   0  -8    4.28    0.22 
   2   0   8    4.96    0.28 
   2   0   8    4.53    0.30 
   2   0   8    4.43    0.25 
  -3   0  -8    2.57    0.21 
  -3   0  -8    3.17    0.24 
  -3   0  -8    3.17    0.25 
  -3   0  -8    2.77    0.24 
   3   0   8    3.13    0.23 
   3   0   8    2.85    0.19 
   3   0   8    3.43    0.30 
   3   0   8    3.30    0.23 
   3   0   8    3.20    0.30 
  -4   0  -8   18.29    0.66 
  -4   0  -8   19.52    0.65 
  -4   0  -8   18.71    0.65 
   4   0   8   19.38    0.65 
   4   0   8   19.31    0.73 
   4   0   8   18.89    0.58 
   4   0   8   20.16    0.62 
   4   0   8   19.39    0.61 
  -5   0  -8    0.81    0.15 
  -5   0  -8    1.23    0.22 
   5   0   8    0.89    0.21 
   5   0   8    1.21    0.18 
   5   0   8    0.97    0.17 
   5   0   8    0.72    0.13 
   5   0   8    0.62    0.15 
   6   0   8    1.87    0.22 
   6   0   8    1.65    0.30 
   6   0   8    1.57    0.19 
   6   0   8    1.24    0.21 
   6   0   8    1.73    0.24 
   7   0   8    0.54    0.24 
   7   0   8    0.44    0.15 
   7   0   8    0.86    0.21 
   7   0   8    0.96    0.21 
   8  -1  -8   -0.15    0.18 
   8  -1  -8    0.08    0.19 
   7  -1  -8   -0.07    0.15 
   7  -1  -8    0.10    0.17 
   6  -1  -8    0.05    0.14 
   6  -1  -8   -0.17    0.13 
  -6   1   8   -0.12    0.11 
   5  -1  -8    1.57    0.22 
   5  -1  -8    1.47    0.25 
  -5   1   8    1.45    0.21 
   4  -1  -8    0.05    0.14 
   4  -1  -8    0.13    0.11 
  -4   1   8    0.03    0.11 
   3  -1  -8    1.13    0.20 
   3  -1  -8    1.03    0.15 
  -3   1   8    0.98    0.17 
   2  -1  -8    1.89    0.22 
  -2   1   8    1.74    0.19 
   1  -1  -8    5.35    0.27 
   1  -1  -8    4.80    0.29 
  -1   1   8    4.85    0.29 
   0  -1  -8    1.68    0.18 
   0  -1  -8    1.55    0.16 
   0  -1  -8    1.86    0.15 
   0  -1  -8    1.59    0.11 
   0  -1  -8    1.71    0.18 
   0   1   8    1.75    0.19 
   0   1   8    2.06    0.19 
  -1  -1  -8    0.37    0.10 
  -1  -1  -8    0.43    0.09 
  -1  -1  -8    0.42    0.10 
  -1  -1  -8    0.44    0.08 
  -1  -1  -8    0.46    0.12 
   1   1   8    0.55    0.13 
   1   1   8    0.41    0.10 
   1   1   8    0.54    0.11 
  -2  -1  -8   19.75    0.61 
  -2  -1  -8   19.96    0.62 
  -2  -1  -8   18.72    0.59 
  -2  -1  -8   20.72    0.64 
   2   1   8   19.17    0.60 
   2   1   8   20.19    0.67 
   2   1   8   20.07    0.64 
   2   1   8   19.14    0.61 
   2   1   8   20.31    0.61 
  -3  -1  -8    5.42    0.31 
  -3  -1  -8    4.89    0.29 
  -3  -1  -8    5.25    0.31 
  -3  -1  -8    5.26    0.30 
   3   1   8    5.01    0.28 
   3   1   8    5.18    0.27 
   3   1   8    5.42    0.33 
   3   1   8    5.06    0.34 
   3   1   8    4.97    0.25 
   3   1   8    5.24    0.34 
   3   1   8    5.35    0.31 
  -4  -1  -8    9.72    0.44 
  -4  -1  -8    9.91    0.46 
  -4  -1  -8   10.19    0.44 
   4   1   8   10.26    0.41 
   4   1   8    9.75    0.48 
   4   1   8    9.44    0.41 
   4   1   8   10.51    0.51 
   4   1   8    9.86    0.43 
   4   1   8   10.43    0.41 
  -5  -1  -8    3.03    0.31 
  -5  -1  -8    2.75    0.27 
  -5  -1  -8    2.97    0.28 
   5   1   8    2.99    0.27 
   5   1   8    2.53    0.25 
   5   1   8    2.35    0.25 
   5   1   8    2.82    0.23 
   5   1   8    3.05    0.34 
   6   1   8    3.02    0.30 
   6   1   8    3.51    0.32 
   6   1   8    3.90    0.42 
   6   1   8    2.91    0.28 
   7   1   8    0.69    0.19 
   7   1   8    0.85    0.22 
   7   1   8    0.51    0.25 
   7   1   8    0.96    0.24 
   8  -2  -8    0.10    0.21 
   8  -2  -8    0.04    0.17 
   7  -2  -8   -0.05    0.14 
   7  -2  -8    0.21    0.17 
  -7   2   8    0.09    0.17 
   6  -2  -8    0.82    0.19 
   6  -2  -8    0.62    0.21 
  -6   2   8    0.69    0.18 
   5  -2  -8    0.51    0.14 
   5  -2  -8    0.72    0.20 
  -5   2   8    0.40    0.16 
   4  -2  -8    5.65    0.39 
   4  -2  -8    6.45    0.31 
  -4   2   8    5.96    0.38 
   3  -2  -8    0.60    0.11 
   3  -2  -8    0.24    0.14 
  -3   2   8    0.66    0.16 
   2  -2  -8    5.11    0.32 
   2  -2  -8    5.31    0.27 
   2  -2  -8    4.85    0.21 
  -2   2   8    4.61    0.30 
   1  -2  -8    6.87    0.35 
   1  -2  -8    7.20    0.31 
   1  -2  -8    7.25    0.21 
   1  -2  -8    7.07    0.31 
  -1   2   8    7.27    0.36 
   0  -2  -8    4.31    0.17 
   0  -2  -8    4.38    0.25 
   0  -2  -8    4.95    0.28 
   0  -2  -8    5.12    0.26 
   0  -2  -8    4.79    0.25 
   0   2   8    4.64    0.28 
   0   2   8    4.55    0.26 
  -1  -2  -8    5.09    0.27 
  -1  -2  -8    5.81    0.30 
  -1  -2  -8    4.95    0.27 
  -1  -2  -8    5.10    0.21 
  -1  -2  -8    5.31    0.27 
   1   2   8    5.29    0.27 
   1   2   8    5.37    0.31 
   1   2   8    5.46    0.29 
   1   2   8    5.73    0.29 
  -2  -2  -8   18.39    0.61 
  -2  -2  -8   18.43    0.61 
  -2  -2  -8   19.70    0.61 
  -2  -2  -8   19.12    0.59 
  -2  -2  -8   19.36    0.62 
   2   2   8   18.49    0.57 
   2   2   8   18.45    0.62 
   2   2   8   18.76    0.60 
   2   2   8   18.78    0.60 
   2   2   8   19.05    0.60 
   2   2   8   19.20    0.65 
  -3  -2  -8    3.33    0.24 
  -3  -2  -8    3.31    0.25 
  -3  -2  -8    3.53    0.25 
   3   2   8    3.68    0.25 
   3   2   8    3.94    0.23 
   3   2   8    3.47    0.24 
   3   2   8    3.34    0.24 
   3   2   8    3.67    0.28 
   3   2   8    3.96    0.28 
   3   2   8    3.32    0.29 
  -4  -2  -8    4.84    0.30 
  -4  -2  -8    4.88    0.32 
  -4  -2  -8    4.63    0.29 
   4   2   8    4.71    0.30 
   4   2   8    5.21    0.28 
   4   2   8    5.11    0.31 
   4   2   8    4.73    0.29 
   4   2   8    4.65    0.33 
   4   2   8    5.00    0.36 
  -5  -2  -8    0.66    0.15 
  -5  -2  -8    0.79    0.16 
   5   2   8    0.55    0.16 
   5   2   8    0.79    0.16 
   5   2   8    1.31    0.25 
   5   2   8    0.45    0.15 
   6   2   8   -0.02    0.12 
   6   2   8    0.35    0.17 
   6   2   8    0.19    0.20 
   6   2   8   -0.08    0.14 
   7   2   8   -0.04    0.13 
   7   2   8   -0.14    0.17 
   7  -3  -8    0.15    0.19 
   7  -3  -8    0.13    0.14 
  -7   3   8    0.22    0.17 
   6  -3  -8    0.22    0.16 
   6  -3  -8    0.05    0.11 
  -6   3   8    0.04    0.14 
   5  -3  -8   -0.13    0.08 
   5  -3  -8    0.12    0.14 
  -5   3   8   -0.03    0.12 
   4  -3  -8    6.22    0.27 
   4  -3  -8    6.11    0.41 
  -4   3   8    5.63    0.37 
   3  -3  -8    3.21    0.30 
   3  -3  -8    3.27    0.22 
   3  -3  -8    3.05    0.17 
  -3   3   8    3.26    0.28 
   2  -3  -8   -0.01    0.04 
   2  -3  -8   -0.11    0.09 
   2  -3  -8    0.03    0.08 
  -2   3   8   -0.11    0.08 
   1  -3  -8    0.03    0.07 
   1  -3  -8    0.02    0.06 
   1  -3  -8    0.06    0.09 
   1  -3  -8    0.06    0.08 
  -1   3   8    0.19    0.10 
   0  -3  -8    2.37    0.19 
   0  -3  -8    2.20    0.21 
   0  -3  -8    2.46    0.09 
   0  -3  -8    2.46    0.23 
   0  -3  -8    2.70    0.20 
   0   3   8    1.98    0.21 
   0   3   8    2.67    0.20 
  -1  -3  -8    3.62    0.25 
  -1  -3  -8    3.55    0.22 
  -1  -3  -8    3.81    0.25 
  -1  -3  -8    3.37    0.24 
  -1  -3  -8    3.30    0.16 
   1   3   8    3.48    0.26 
   1   3   8    3.39    0.23 
   1   3   8    3.22    0.25 
  -2  -3  -8    0.69    0.13 
  -2  -3  -8    0.67    0.13 
  -2  -3  -8    0.73    0.14 
  -2  -3  -8    0.73    0.12 
   2   3   8    0.67    0.15 
   2   3   8    0.36    0.14 
   2   3   8    0.52    0.12 
   2   3   8    0.79    0.14 
   2   3   8    0.58    0.13 
  -3  -3  -8   -0.01    0.07 
  -3  -3  -8    0.04    0.08 
   3   3   8    0.21    0.11 
   3   3   8    0.05    0.11 
   3   3   8   -0.09    0.09 
   3   3   8    0.02    0.08 
   3   3   8   -0.05    0.09 
   3   3   8    0.01    0.10 
   3   3   8    0.08    0.08 
  -4  -3  -8    1.16    0.17 
  -4  -3  -8    1.68    0.20 
   4   3   8    0.94    0.20 
   4   3   8    1.29    0.20 
   4   3   8    0.91    0.16 
   4   3   8    1.19    0.18 
   4   3   8    0.80    0.19 
  -5  -3  -8    0.14    0.11 
   5   3   8    0.24    0.13 
   5   3   8    0.36    0.14 
   5   3   8    0.25    0.13 
   5   3   8    0.54    0.19 
  -6  -3  -8    1.82    0.27 
   6   3   8    1.73    0.30 
   6   3   8    1.55    0.23 
   6   3   8    1.02    0.21 
   7  -4  -8    2.69    0.38 
   7  -4  -8    2.77    0.28 
  -7   4   8    1.77    0.29 
   6  -4  -8    0.15    0.16 
   6  -4  -8    0.05    0.10 
  -6   4   8   -0.05    0.15 
   5  -4  -8    0.50    0.11 
   5  -4  -8    0.42    0.19 
  -5   4   8    0.42    0.17 
   4  -4  -8    2.80    0.16 
   4  -4  -8    3.08    0.34 
   4  -4  -8    2.70    0.22 
  -4   4   8    2.71    0.31 
   3  -4  -8    8.32    0.22 
   3  -4  -8   10.07    0.48 
   3  -4  -8    8.29    0.36 
  -3   4   8    8.15    0.43 
   2  -4  -8    0.80    0.14 
   2  -4  -8    0.81    0.14 
   2  -4  -8    0.92    0.18 
  -2   4   8    0.64    0.15 
   1  -4  -8    0.12    0.10 
   1  -4  -8    0.18    0.11 
   1  -4  -8    0.10    0.07 
   1  -4  -8    0.09    0.07 
  -1   4   8    0.07    0.10 
   0  -4  -8    1.44    0.16 
   0  -4  -8    1.38    0.20 
   0  -4  -8    1.27    0.17 
   0  -4  -8    1.12    0.16 
   0   4   8    1.24    0.17 
   0   4   8    1.42    0.17 
  -1  -4  -8    2.71    0.26 
  -1  -4  -8    2.29    0.18 
  -1  -4  -8    2.11    0.21 
   1   4   8    2.22    0.22 
   1   4   8    2.15    0.23 
   1   4   8    2.50    0.21 
  -2  -4  -8    0.01    0.07 
  -2  -4  -8    0.01    0.04 
   2   4   8    0.08    0.09 
   2   4   8    0.01    0.10 
   2   4   8    0.01    0.09 
   2   4   8   -0.01    0.08 
   2   4   8    0.03    0.05 
   2   4   8   -0.12    0.08 
  -3  -4  -8    0.01    0.08 
   3   4   8    0.02    0.08 
   3   4   8    0.02    0.09 
   3   4   8    0.07    0.11 
   3   4   8    0.01    0.11 
   3   4   8    0.06    0.09 
   4   4   8    3.32    0.26 
   4   4   8    2.51    0.27 
   4   4   8    2.92    0.33 
   4   4   8    2.81    0.23 
   5   4   8    1.60    0.22 
   5   4   8    1.80    0.22 
   5   4   8    1.99    0.31 
  -6  -4  -8    0.19    0.12 
   6   4   8    0.35    0.20 
   6   4   8    0.03    0.13 
   6   4   8   -0.03    0.16 
   7  -5  -8    0.52    0.24 
  -7   5   8    0.14    0.19 
   6  -5  -8   -0.04    0.15 
  -6   5   8   -0.17    0.14 
   5  -5  -8   -0.05    0.07 
   5  -5  -8    0.14    0.14 
  -5   5   8    0.07    0.14 
   4  -5  -8    1.09    0.22 
  -4   5   8    0.70    0.19 
   3  -5  -8    3.84    0.32 
   3  -5  -8    3.63    0.27 
   3  -5  -8    3.68    0.27 
  -3   5   8    3.72    0.32 
   2  -5  -8    6.34    0.34 
   2  -5  -8    6.42    0.37 
   2  -5  -8    6.46    0.37 
  -2   5   8    6.27    0.37 
   1  -5  -8    7.36    0.32 
   1  -5  -8    7.42    0.37 
   1  -5  -8    7.42    0.36 
  -1   5   8    6.95    0.38 
   0  -5  -8    1.07    0.17 
   0  -5  -8    1.07    0.16 
   0   5   8    0.96    0.24 
   0   5   8    1.21    0.17 
   0   5   8    0.79    0.16 
   0   5   8    0.96    0.16 
  -1  -5  -8    2.69    0.21 
  -1  -5  -8    2.49    0.22 
  -1  -5  -8    3.02    0.25 
   1   5   8    2.56    0.25 
   1   5   8    2.70    0.24 
   1   5   8    2.68    0.22 
   2   5   8    0.48    0.15 
   2   5   8    0.50    0.13 
   2   5   8    0.24    0.09 
   2   5   8    0.35    0.07 
   3   5   8    0.14    0.13 
   3   5   8    0.45    0.13 
   3   5   8    0.70    0.17 
   3   5   8    0.61    0.11 
   4   5   8    0.08    0.16 
   4   5   8    0.00    0.09 
   4   5   8   -0.01    0.11 
   4   5   8    0.09    0.11 
   5   5   8    1.17    0.21 
   5   5   8    0.93    0.19 
   5   5   8    0.84    0.21 
   6  -6  -8   -0.03    0.17 
  -6   6   8   -0.21    0.14 
   5  -6  -8    0.70    0.20 
  -5   6   8    0.52    0.19 
   4  -6  -8    0.17    0.14 
  -4   6   8    0.26    0.15 
   3  -6  -8    3.42    0.32 
  -3   6   8    1.83    0.25 
   2  -6  -8    0.07    0.09 
   2  -6  -8    0.07    0.10 
  -2   6   8   -0.04    0.09 
   1  -6  -8    0.33    0.11 
   1  -6  -8    0.55    0.14 
  -1   6   8    0.74    0.16 
   0  -6  -8    1.06    0.18 
   0   6   8    1.01    0.17 
   0   6   8    0.88    0.17 
   1   6   8    0.00    0.10 
   1   6   8    0.09    0.09 
   2   6   8    0.41    0.13 
   2   6   8    0.38    0.15 
   3   6   8    0.74    0.15 
   3   6   8    1.34    0.22 
   3   6   8    1.30    0.24 
   4   6   8    0.00    0.10 
   4   6   8   -0.11    0.10 
  -6   7   8   -0.12    0.17 
  -5   7   8    0.59    0.20 
  -4   7   8    0.17    0.16 
  -3   7   8    1.82    0.25 
  -2   7   8    0.18    0.12 
  -1   7   8    1.23    0.20 
   0   7   8    4.29    0.31 
   0   7   8    4.84    0.32 
   1   7   8    0.40    0.16 
   1   7   8    0.15    0.10 
   2   7   8    0.01    0.09 
   3   7   8    0.07    0.11 
  -4   8   8   -0.05    0.14 
  -3   8   8   -0.01    0.13 
  -2   8   8   -0.03    0.10 
  -1   8   8    0.71    0.16 
   0   8   8    0.22    0.14 
   0   8   8    0.21    0.11 
   1   8   8   -0.04    0.08 
   2   8   8    0.05    0.09 
  -2   9   8    0.40    0.15 
  -1   9   8    0.20    0.12 
   0   9  -9    0.10    0.10 
   0   9  -9    0.00    0.08 
  -1   9  -9    0.09    0.10 
  -2   9  -9    0.62    0.18 
   3   8  -9    0.06    0.09 
   2   8  -9    0.05    0.09 
   2   8  -9    0.02    0.08 
   1   8  -9    0.21    0.10 
   1   8  -9    0.20    0.11 
   0   8  -9    0.14    0.10 
   0   8  -9    0.03    0.10 
  -1   8  -9    0.08    0.10 
  -2   8  -9    0.35    0.14 
  -3   8  -9    1.37    0.24 
  -4   8  -9   -0.09    0.16 
   4   7  -9    0.06    0.11 
   3   7  -9    0.15    0.09 
   3   7  -9    0.14    0.11 
  -3  -7   9    0.12    0.08 
   2   7  -9   -0.01    0.07 
   2   7  -9   -0.07    0.08 
  -2  -7   9    0.04    0.08 
   1   7  -9    0.03    0.09 
   1   7  -9   -0.07    0.07 
  -1  -7   9    0.07    0.08 
   0   7  -9    0.03    0.07 
   0   7  -9   -0.05    0.08 
   0  -7   9   -0.04    0.08 
  -1   7  -9    0.01    0.09 
  -2   7  -9    0.50    0.15 
  -3   7  -9    4.08    0.38 
  -4   7  -9    1.20    0.25 
  -5   7  -9    0.19    0.20 
   5   6  -9    0.36    0.16 
   5   6  -9    0.23    0.22 
   4   6  -9   -0.04    0.10 
  -4  -6   9    0.06    0.07 
   3   6  -9    0.26    0.12 
  -3  -6   9   -0.03    0.08 
   2   6  -9    1.48    0.20 
   2   6  -9    1.49    0.18 
  -2  -6   9    1.46    0.16 
   1   6  -9    0.14    0.08 
   1   6  -9    0.12    0.09 
  -1  -6   9    0.06    0.09 
   0   6  -9   -0.08    0.06 
   0   6  -9    0.02    0.09 
   0  -6   9   -0.05    0.08 
  -1   6  -9    0.00    0.08 
   1  -6   9   -0.08    0.07 
  -2   6  -9   -0.02    0.06 
  -2   6  -9   -0.10    0.06 
  -2   6  -9    0.08    0.12 
  -3   6  -9    5.41    0.38 
   3  -6   9    5.30    0.31 
  -4   6  -9    0.10    0.15 
   4  -6   9    0.36    0.12 
  -5   6  -9    0.15    0.18 
  -6   6  -9   -0.04    0.19 
   5   5  -9   -0.10    0.11 
   5   5  -9    0.00    0.20 
   4   5  -9   -0.14    0.09 
  -4  -5   9    0.14    0.09 
   3   5  -9    0.21    0.11 
  -3  -5   9   -0.09    0.07 
   2   5  -9    0.05    0.08 
  -2  -5   9   -0.03    0.07 
   1   5  -9    0.12    0.09 
   1   5  -9    0.12    0.08 
  -1  -5   9    0.11    0.08 
   0   5  -9    0.26    0.10 
   0   5  -9    0.32    0.12 
   0  -5   9    0.41    0.12 
   0  -5   9    0.21    0.11 
  -1   5  -9   -0.05    0.09 
   1  -5   9   -0.15    0.08 
   1  -5   9    0.09    0.10 
  -2   5  -9    0.02    0.06 
  -2   5  -9    0.18    0.12 
  -2   5  -9   -0.07    0.07 
   2  -5   9    0.04    0.12 
   2  -5   9    0.06    0.10 
  -3   5  -9    2.03    0.27 
  -3   5  -9    1.80    0.16 
   3  -5   9    1.89    0.19 
   3  -5   9    1.81    0.26 
  -4   5  -9    0.18    0.15 
   4  -5   9    0.17    0.11 
   4  -5   9    0.24    0.16 
  -5   5  -9    0.45    0.21 
   5  -5   9    0.61    0.16 
  -6   5  -9    0.19    0.19 
   6  -5   9   -0.02    0.12 
   6   4  -9    0.05    0.15 
   6   4  -9    0.23    0.23 
   5   4  -9   -0.03    0.11 
   5   4  -9   -0.16    0.14 
   4   4  -9    0.14    0.12 
   3   4  -9    1.63    0.22 
  -3  -4   9    1.56    0.18 
   2   4  -9    0.84    0.17 
   2   4  -9    1.07    0.17 
   2   4  -9    1.00    0.16 
  -2  -4   9    1.09    0.15 
  -2  -4   9    0.98    0.14 
   1   4  -9    0.24    0.11 
   1   4  -9    0.51    0.13 
   1   4  -9    0.28    0.11 
   1   4  -9    0.38    0.09 
  -1  -4   9    0.14    0.08 
  -1  -4   9    0.06    0.06 
   0   4  -9    1.52    0.20 
   0   4  -9    1.11    0.17 
   0   4  -9    1.11    0.21 
   0   4  -9    1.15    0.16 
   0  -4   9    1.14    0.17 
   0  -4   9    1.25    0.17 
  -1   4  -9    9.77    0.42 
  -1   4  -9    9.50    0.42 
  -1   4  -9    9.10    0.26 
   1  -4   9    9.53    0.42 
   1  -4   9    9.31    0.42 
  -2   4  -9    0.53    0.14 
  -2   4  -9    0.53    0.12 
  -2   4  -9    0.68    0.15 
  -2   4  -9    0.79    0.12 
   2  -4   9    0.57    0.16 
   2  -4   9    0.80    0.14 
   2  -4   9    0.48    0.14 
  -3   4  -9    3.65    0.30 
  -3   4  -9    3.14    0.26 
  -3   4  -9    3.09    0.19 
   3  -4   9    3.25    0.32 
   3  -4   9    3.08    0.24 
  -4   4  -9    0.14    0.08 
  -4   4  -9    0.11    0.13 
   4  -4   9   -0.04    0.09 
   4  -4   9   -0.04    0.14 
  -5   4  -9    0.03    0.15 
   5  -4   9    0.08    0.16 
   5  -4   9    0.10    0.11 
  -6   4  -9    0.20    0.19 
   6  -4   9    1.04    0.28 
   6  -4   9    0.71    0.18 
   7  -4   9    1.60    0.26 
   6   3  -9    0.04    0.15 
   6   3  -9   -0.07    0.17 
   5   3  -9    0.09    0.13 
   5   3  -9   -0.42    0.12 
   4   3  -9    0.70    0.20 
   4   3  -9    0.24    0.14 
   3   3  -9   10.51    0.48 
   3   3  -9   11.00    0.57 
  -3  -3   9    9.46    0.40 
   2   3  -9    3.31    0.26 
   2   3  -9    3.57    0.27 
  -2  -3   9    3.64    0.24 
  -2  -3   9    3.34    0.24 
   1   3  -9    1.90    0.21 
   1   3  -9    1.53    0.18 
   1   3  -9    2.00    0.22 
  -1  -3   9    1.70    0.18 
  -1  -3   9    1.48    0.18 
   0   3  -9    3.56    0.26 
   0   3  -9    3.26    0.25 
   0   3  -9    3.55    0.24 
   0  -3   9    3.65    0.25 
   0  -3   9    3.55    0.26 
  -1   3  -9   13.90    0.46 
  -1   3  -9   13.98    0.51 
  -1   3  -9   13.16    0.37 
  -1   3  -9   12.68    0.50 
  -1   3  -9   13.46    0.52 
   1  -3   9   13.82    0.51 
   1  -3   9   13.54    0.52 
  -2   3  -9    2.33    0.24 
  -2   3  -9    1.81    0.20 
  -2   3  -9    2.09    0.18 
   2  -3   9    2.87    0.28 
   2  -3   9    2.34    0.20 
   2  -3   9    2.44    0.26 
  -3   3  -9    2.66    0.26 
  -3   3  -9    2.35    0.25 
  -3   3  -9    2.27    0.17 
   3  -3   9    3.01    0.31 
   3  -3   9    2.59    0.22 
   3  -3   9    2.48    0.27 
  -4   3  -9    2.50    0.19 
  -4   3  -9    2.66    0.30 
   4  -3   9    2.08    0.28 
   4  -3   9    2.83    0.24 
  -5   3  -9    1.81    0.28 
   5  -3   9    1.64    0.22 
   5  -3   9    2.38    0.33 
  -6   3  -9    1.75    0.31 
   6  -3   9    1.51    0.23 
   6  -3   9    1.60    0.32 
  -7   3  -9   -0.09    0.19 
   7  -3   9    0.14    0.21 
   7  -3   9   -0.05    0.14 
   7   2  -9   -0.01    0.18 
   7   2  -9    0.13    0.17 
   6   2  -9    0.42    0.21 
   6   2  -9   -0.15    0.12 
   5   2  -9    0.20    0.16 
   5   2  -9    0.32    0.16 
   4   2  -9    0.08    0.13 
   4   2  -9    0.10    0.14 
  -4  -2   9   -0.05    0.09 
   3   2  -9    0.97    0.18 
   3   2  -9    1.12    0.19 
  -3  -2   9    1.21    0.18 
   2   2  -9    0.09    0.10 
   2   2  -9    0.09    0.10 
  -2  -2   9    0.11    0.09 
  -2  -2   9    0.02    0.08 
   1   2  -9    0.20    0.10 
   1   2  -9    0.11    0.08 
   1   2  -9    0.03    0.09 
  -1  -2   9    0.15    0.08 
  -1  -2   9    0.07    0.09 
   0   2  -9   -0.10    0.07 
   0   2  -9    0.00    0.08 
   0   2  -9    0.09    0.10 
   0  -2   9   -0.06    0.08 
   0  -2   9    0.01    0.08 
  -1   2  -9    0.28    0.06 
  -1   2  -9    0.09    0.08 
  -1   2  -9    0.17    0.11 
  -1   2  -9   -0.09    0.07 
   1  -2   9    0.20    0.10 
   1  -2   9    0.23    0.11 
  -2   2  -9    1.00    0.14 
  -2   2  -9    1.02    0.16 
  -2   2  -9    0.92    0.10 
  -2   2  -9    0.68    0.13 
   2  -2   9    0.89    0.17 
   2  -2   9    0.88    0.16 
   2  -2   9    0.86    0.14 
  -3   2  -9    8.74    0.36 
  -3   2  -9    9.20    0.44 
  -3   2  -9    9.04    0.41 
   3  -2   9    9.15    0.46 
   3  -2   9    8.70    0.46 
   3  -2   9    8.66    0.39 
  -4   2  -9    5.95    0.36 
  -4   2  -9    5.56    0.29 
  -4   2  -9    5.08    0.36 
   4  -2   9    5.45    0.33 
   4  -2   9    5.44    0.40 
  -5   2  -9    1.30    0.24 
  -5   2  -9    1.46    0.19 
   5  -2   9    1.33    0.26 
   5  -2   9    1.25    0.14 
   5  -2   9    1.14    0.19 
  -6   2  -9    1.22    0.27 
   6  -2   9    1.09    0.19 
   6  -2   9    0.99    0.26 
   7  -2   9    0.74    0.20 
   7  -2   9    0.66    0.20 
   7  -2   9    0.72    0.27 
   7   1  -9    0.10    0.18 
   7   1  -9    0.09    0.17 
   6   1  -9   -0.08    0.16 
   6   1  -9    0.04    0.16 
   5   1  -9    0.23    0.15 
   5   1  -9    0.42    0.18 
  -5  -1   9    0.63    0.17 
   4   1  -9    0.12    0.13 
   4   1  -9    0.15    0.13 
  -4  -1   9   -0.02    0.10 
   3   1  -9   -0.02    0.09 
   3   1  -9    0.07    0.11 
  -3  -1   9    0.04    0.09 
   2   1  -9    3.14    0.26 
   2   1  -9    2.87    0.25 
  -2  -1   9    2.81    0.24 
   1   1  -9   -0.10    0.08 
   1   1  -9   -0.02    0.07 
  -1  -1   9    0.05    0.07 
  -1  -1   9    0.11    0.09 
   0   1  -9    0.45    0.11 
   0   1  -9    0.32    0.12 
   0   1  -9    0.43    0.08 
   0   1  -9    0.60    0.12 
   0  -1   9    0.38    0.10 
   0  -1   9    0.50    0.13 
  -1   1  -9    0.36    0.12 
  -1   1  -9    0.35    0.10 
  -1   1  -9    0.44    0.08 
  -1   1  -9    0.40    0.11 
   1  -1   9    0.23    0.10 
   1  -1   9    0.34    0.13 
  -2   1  -9    1.15    0.16 
  -2   1  -9    0.99    0.16 
  -2   1  -9    1.12    0.15 
  -2   1  -9    1.24    0.13 
  -2   1  -9    1.37    0.19 
   2  -1   9    0.82    0.14 
   2  -1   9    0.75    0.15 
   2  -1   9    0.94    0.18 
  -3   1  -9    0.01    0.08 
  -3   1  -9    0.20    0.12 
  -3   1  -9    0.07    0.08 
   3  -1   9    0.40    0.14 
   3  -1   9    0.07    0.13 
   3  -1   9    0.08    0.09 
  -4   1  -9    1.56    0.21 
  -4   1  -9    1.91    0.24 
  -4   1  -9    1.88    0.21 
   4  -1   9    1.67    0.15 
   4  -1   9    1.75    0.25 
   4  -1   9    1.61    0.26 
   4  -1   9    1.62    0.21 
  -5   1  -9    0.00    0.14 
   5  -1   9   -0.13    0.10 
   5  -1   9    0.01    0.11 
   5  -1   9    0.07    0.14 
   5  -1   9    0.13    0.09 
  -6   1  -9    0.01    0.16 
   6  -1   9   -0.06    0.10 
   6  -1   9    0.20    0.19 
   6  -1   9   -0.10    0.11 
   6  -1   9    0.19    0.14 
   6  -1   9    0.00    0.09 
   7  -1   9    0.34    0.17 
   7  -1   9    0.18    0.14 
   7  -1   9    0.31    0.24 
   7  -1   9    0.27    0.17 
   7   0  -9    0.01    0.17 
   7   0  -9   -0.16    0.16 
   6   0  -9    0.09    0.14 
   6   0  -9    0.25    0.16 
   5   0  -9    1.09    0.22 
   5   0  -9    1.19    0.24 
  -5   0   9    0.89    0.18 
   4   0  -9    0.15    0.13 
   4   0  -9   -0.04    0.10 
  -4   0   9   -0.06    0.10 
   3   0  -9    3.29    0.26 
   3   0  -9    3.26    0.31 
  -3   0   9    3.30    0.27 
   2   0  -9    3.24    0.30 
  -2   0   9    3.20    0.25 
   1   0  -9    3.09    0.24 
   1   0  -9    2.80    0.20 
  -1   0   9    2.74    0.24 
  -1   0   9    2.73    0.21 
   0   0  -9    4.57    0.22 
   0   0  -9    4.18    0.26 
   0   0  -9    4.21    0.24 
   0   0  -9    4.60    0.29 
   0   0   9    3.31    0.24 
   0   0   9    4.57    0.29 
  -1   0  -9    1.81    0.15 
  -1   0  -9    2.01    0.19 
  -1   0  -9    1.66    0.20 
  -1   0  -9    1.90    0.21 
   1   0   9    1.63    0.19 
   1   0   9    1.89    0.22 
  -2   0  -9    2.02    0.20 
  -2   0  -9    2.19    0.24 
  -2   0  -9    1.84    0.18 
  -2   0  -9    1.84    0.22 
   2   0   9    1.92    0.21 
   2   0   9    1.77    0.23 
   2   0   9    1.69    0.19 
  -3   0  -9    1.74    0.20 
  -3   0  -9    1.76    0.20 
  -3   0  -9    2.00    0.23 
  -3   0  -9    1.59    0.21 
   3   0   9    1.78    0.23 
   3   0   9    2.22    0.27 
   3   0   9    1.50    0.18 
  -4   0  -9    1.28    0.20 
  -4   0  -9    1.67    0.22 
  -4   0  -9    1.28    0.19 
   4   0   9    1.47    0.20 
   4   0   9    1.45    0.16 
   4   0   9    1.42    0.22 
   4   0   9    1.32    0.23 
   4   0   9    1.06    0.17 
  -5   0  -9    0.82    0.21 
   5   0   9    1.04    0.16 
   5   0   9    1.12    0.19 
   5   0   9    1.46    0.20 
   5   0   9    0.87    0.23 
   5   0   9    0.95    0.18 
   6   0   9    0.03    0.12 
   6   0   9   -0.03    0.15 
   6   0   9   -0.16    0.12 
   6   0   9    0.12    0.14 
   6   0   9    0.08    0.10 
   7   0   9    0.19    0.14 
   7   0   9    0.39    0.24 
   7   0   9    0.17    0.16 
   7   0   9    0.18    0.17 
   7  -1  -9    0.27    0.18 
   7  -1  -9    0.20    0.20 
   6  -1  -9    0.01    0.15 
   6  -1  -9   -0.05    0.13 
  -6   1   9   -0.10    0.11 
   5  -1  -9   -0.19    0.10 
   5  -1  -9   -0.09    0.11 
  -5   1   9   -0.02    0.12 
   4  -1  -9    0.16    0.14 
   4  -1  -9    0.24    0.12 
  -4   1   9    0.23    0.13 
   3  -1  -9   -0.05    0.09 
   3  -1  -9    0.03    0.12 
  -3   1   9    0.04    0.11 
   2  -1  -9    0.27    0.12 
  -2   1   9    0.19    0.11 
   1  -1  -9    6.08    0.35 
   1  -1  -9    6.26    0.31 
   1  -1  -9    6.44    0.31 
  -1   1   9    5.02    0.29 
  -1   1   9    6.05    0.33 
   0  -1  -9    1.51    0.12 
   0  -1  -9    1.55    0.16 
   0  -1  -9    1.61    0.18 
   0  -1  -9    1.52    0.17 
   0  -1  -9    1.37    0.18 
   0   1   9    1.74    0.19 
   0   1   9    1.39    0.19 
  -1  -1  -9    0.05    0.06 
  -1  -1  -9   -0.01    0.07 
  -1  -1  -9    0.06    0.08 
  -1  -1  -9    0.03    0.07 
  -1  -1  -9    0.14    0.10 
   1   1   9    0.02    0.09 
   1   1   9    0.07    0.08 
  -2  -1  -9   14.49    0.54 
  -2  -1  -9   14.71    0.53 
  -2  -1  -9   13.71    0.50 
  -2  -1  -9   13.84    0.51 
   2   1   9   14.25    0.52 
   2   1   9   14.20    0.54 
   2   1   9   14.64    0.58 
  -3  -1  -9   17.27    0.61 
  -3  -1  -9   16.10    0.60 
  -3  -1  -9   17.64    0.61 
   3   1   9   16.44    0.57 
   3   1   9   17.54    0.59 
   3   1   9   16.22    0.65 
   3   1   9   16.91    0.63 
   3   1   9   17.26    0.55 
  -4  -1  -9    0.22    0.12 
  -4  -1  -9    0.06    0.11 
  -4  -1  -9    0.10    0.10 
   4   1   9    0.18    0.11 
   4   1   9    0.36    0.14 
   4   1   9    0.27    0.11 
   4   1   9    0.20    0.11 
   4   1   9    0.24    0.14 
   4   1   9    0.22    0.13 
  -5  -1  -9   -0.03    0.10 
   5   1   9    0.27    0.14 
   5   1   9    0.18    0.18 
   5   1   9    0.17    0.13 
   5   1   9    0.19    0.11 
   5   1   9   -0.03    0.11 
   6   1   9    2.72    0.38 
   6   1   9    3.01    0.30 
   6   1   9    3.20    0.31 
   6   1   9    2.87    0.31 
   7  -2  -9    0.44    0.18 
   7  -2  -9    0.96    0.27 
   6  -2  -9    0.13    0.18 
   6  -2  -9    0.01    0.12 
  -6   2   9    0.25    0.16 
   5  -2  -9    0.88    0.17 
   5  -2  -9    1.28    0.26 
  -5   2   9    0.71    0.18 
   4  -2  -9    0.13    0.09 
   4  -2  -9    0.10    0.14 
  -4   2   9    0.02    0.12 
   3  -2  -9    3.94    0.33 
   3  -2  -9    3.86    0.22 
  -3   2   9    3.45    0.29 
   2  -2  -9    0.21    0.12 
   2  -2  -9    0.14    0.07 
   2  -2  -9   -0.01    0.08 
  -2   2   9    0.17    0.11 
   1  -2  -9    0.44    0.11 
   1  -2  -9    0.31    0.12 
   1  -2  -9    0.46    0.11 
   1  -2  -9    0.21    0.10 
   1  -2  -9    0.32    0.06 
  -1   2   9    0.16    0.11 
   0  -2  -9    0.05    0.08 
   0  -2  -9    0.18    0.09 
   0  -2  -9    0.02    0.08 
   0  -2  -9    0.06    0.05 
   0  -2  -9   -0.13    0.07 
   0   2   9   -0.03    0.07 
   0   2   9    0.18    0.11 
  -1  -2  -9    5.28    0.29 
  -1  -2  -9    6.08    0.36 
  -1  -2  -9    6.07    0.31 
  -1  -2  -9    5.38    0.31 
  -1  -2  -9    5.46    0.23 
   1   2   9    5.42    0.34 
   1   2   9    5.95    0.32 
  -2  -2  -9   21.80    0.68 
  -2  -2  -9   20.57    0.68 
  -2  -2  -9   22.42    0.70 
   2   2   9   22.45    0.75 
   2   2   9   21.54    0.69 
   2   2   9   22.09    0.69 
   2   2   9   21.24    0.71 
  -3  -2  -9    0.03    0.08 
  -3  -2  -9   -0.08    0.08 
   3   2   9    0.09    0.12 
   3   2   9   -0.10    0.09 
   3   2   9   -0.09    0.10 
   3   2   9   -0.03    0.09 
   3   2   9   -0.07    0.07 
  -4  -2  -9    0.41    0.12 
  -4  -2  -9    0.28    0.13 
  -4  -2  -9    0.21    0.12 
   4   2   9    0.40    0.13 
   4   2   9    0.22    0.11 
   4   2   9    0.32    0.13 
   4   2   9    0.27    0.14 
   4   2   9    0.46    0.16 
  -5  -2  -9    0.66    0.16 
   5   2   9    0.48    0.15 
   5   2   9    0.43    0.16 
   5   2   9    0.71    0.21 
   5   2   9    0.49    0.15 
   6   2   9    1.60    0.23 
   6   2   9    2.26    0.27 
   6   2   9    2.20    0.36 
   7  -3  -9   -0.08    0.17 
   7  -3  -9   -0.32    0.11 
  -7   3   9    0.00    0.17 
   6  -3  -9    0.17    0.13 
   6  -3  -9    0.66    0.23 
  -6   3   9    0.08    0.16 
   5  -3  -9    0.31    0.18 
   5  -3  -9    0.23    0.11 
  -5   3   9    0.09    0.15 
   4  -3  -9    0.47    0.11 
   4  -3  -9    0.55    0.18 
  -4   3   9    0.51    0.16 
   3  -3  -9    0.92    0.11 
   3  -3  -9    0.49    0.16 
  -3   3   9    0.77    0.16 
   2  -3  -9    0.62    0.07 
   2  -3  -9    0.83    0.23 
   2  -3  -9    0.53    0.15 
  -2   3   9    0.42    0.14 
   1  -3  -9    1.42    0.17 
   1  -3  -9    1.47    0.17 
   1  -3  -9    1.38    0.20 
   1  -3  -9    1.33    0.19 
  -1   3   9    1.13    0.19 
   0  -3  -9    8.70    0.38 
   0  -3  -9    7.75    0.39 
   0  -3  -9    7.84    0.22 
   0  -3  -9    8.57    0.37 
   0   3   9    7.85    0.37 
   0   3   9    7.71    0.40 
  -1  -3  -9    0.43    0.08 
  -1  -3  -9    0.45    0.11 
  -1  -3  -9    0.49    0.13 
  -1  -3  -9    0.52    0.12 
   1   3   9    0.33    0.11 
   1   3   9    0.27    0.12 
   1   3   9    0.32    0.14 
  -2  -3  -9   12.61    0.47 
  -2  -3  -9   11.71    0.50 
  -2  -3  -9   12.75    0.49 
   2   3   9   11.20    0.46 
   2   3   9   12.22    0.49 
   2   3   9   11.80    0.52 
   2   3   9   11.89    0.49 
  -3  -3  -9    2.38    0.24 
  -3  -3  -9    2.29    0.24 
   3   3   9    2.14    0.23 
   3   3   9    2.22    0.26 
   3   3   9    2.01    0.23 
   3   3   9    2.09    0.17 
   3   3   9    2.09    0.26 
   3   3   9    1.62    0.19 
   4   3   9    0.88    0.15 
   4   3   9    1.15    0.18 
   4   3   9    1.37    0.22 
   4   3   9    0.94    0.22 
  -5  -3  -9    1.00    0.18 
   5   3   9    0.95    0.18 
   5   3   9    1.08    0.21 
   5   3   9    1.25    0.19 
   5   3   9    1.75    0.30 
   6   3   9    2.33    0.28 
   6   3   9    1.68    0.32 
   6   3   9    2.12    0.27 
   7  -4  -9    0.38    0.22 
  -7   4   9    0.38    0.21 
   6  -4  -9    0.49    0.13 
   6  -4  -9    0.46    0.21 
  -6   4   9    0.53    0.22 
   5  -4  -9   -0.03    0.07 
   5  -4  -9    0.17    0.16 
  -5   4   9   -0.09    0.13 
   4  -4  -9   10.02    0.31 
   4  -4  -9    9.60    0.53 
  -4   4   9   10.08    0.52 
   3  -4  -9    2.32    0.28 
  -3   4   9    1.82    0.24 
   2  -4  -9    0.36    0.11 
   2  -4  -9    0.57    0.16 
  -2   4   9    0.28    0.13 
   1  -4  -9    0.13    0.09 
   1  -4  -9    0.21    0.12 
   1  -4  -9    0.20    0.09 
  -1   4   9    0.07    0.10 
   0  -4  -9    1.28    0.17 
   0  -4  -9    1.03    0.18 
   0  -4  -9    1.17    0.15 
   0   4   9    1.14    0.18 
   0   4   9    1.15    0.16 
  -1  -4  -9    0.23    0.11 
  -1  -4  -9    0.20    0.10 
  -1  -4  -9    0.28    0.10 
   1   4   9    0.22    0.13 
   1   4   9    0.46    0.14 
   1   4   9    0.32    0.11 
  -2  -4  -9    1.95    0.21 
   2   4   9    1.67    0.21 
   2   4   9    2.03    0.24 
   2   4   9    2.05    0.22 
   2   4   9    2.42    0.26 
   3   4   9    0.13    0.11 
   3   4   9    0.11    0.13 
   3   4   9    0.11    0.12 
   3   4   9    0.05    0.08 
   4   4   9   -0.02    0.13 
   4   4   9    0.06    0.10 
   4   4   9   -0.05    0.10 
   4   4   9   -0.08    0.12 
   5   4   9    0.31    0.19 
   5   4   9    0.44    0.15 
   5   4   9    0.68    0.17 
   6  -5  -9    0.40    0.21 
  -6   5   9    0.49    0.20 
   5  -5  -9    0.00    0.15 
  -5   5   9   -0.14    0.14 
   4  -5  -9    6.80    0.45 
  -4   5   9    6.85    0.45 
   3  -5  -9    0.48    0.16 
  -3   5   9    0.26    0.14 
   2  -5  -9    0.79    0.15 
   2  -5  -9    0.79    0.15 
   2  -5  -9    0.76    0.17 
  -2   5   9    0.82    0.18 
   1  -5  -9   -0.01    0.10 
   1  -5  -9    0.05    0.08 
   1  -5  -9    0.02    0.07 
  -1   5   9   -0.09    0.09 
  -1   5   9    0.08    0.08 
   0  -5  -9    5.91    0.34 
   0  -5  -9    5.85    0.35 
   0   5   9    6.12    0.33 
   0   5   9    6.40    0.37 
  -1  -5  -9    1.41    0.24 
   1   5   9    1.34    0.20 
   1   5   9    1.45    0.21 
   1   5   9    1.54    0.19 
   2   5   9    1.50    0.23 
   2   5   9    1.06    0.19 
   3   5   9    1.89    0.25 
   3   5   9    2.12    0.23 
   3   5   9    2.11    0.28 
   4   5   9   -0.07    0.11 
   4   5   9   -0.02    0.10 
   5   5   9    0.27    0.14 
   6  -6  -9    0.79    0.28 
  -6   6   9    0.57    0.22 
   5  -6  -9    0.30    0.18 
  -5   6   9   -0.04    0.15 
   4  -6  -9    2.32    0.30 
  -4   6   9    1.47    0.25 
   3  -6  -9    1.17    0.22 
  -3   6   9    1.71    0.25 
   2  -6  -9    2.73    0.40 
  -2   6   9    2.36    0.27 
  -1   6   9    0.78    0.18 
   0   6   9    0.08    0.10 
   1   6   9    0.42    0.14 
   1   6   9    0.22    0.13 
   2   6   9    0.88    0.19 
   2   6   9    1.48    0.23 
   3   6   9    0.06    0.10 
   3   6   9    0.02    0.11 
   4   6   9    0.18    0.15 
   4   6   9    0.42    0.15 
  -5   7   9    0.23    0.20 
  -4   7   9   -0.05    0.13 
  -3   7   9    0.12    0.16 
  -2   7   9    1.81    0.25 
  -1   7   9    0.19    0.13 
   0   7   9    0.03    0.12 
   0   7   9    0.06    0.10 
   1   7   9   -0.11    0.08 
   1   7   9    0.00    0.15 
   2   7   9    0.88    0.18 
   3   7   9   -0.10    0.10 
  -3   8   9    0.40    0.18 
  -2   8   9    0.22    0.16 
  -1   8   9    0.47    0.15 
   0   8   9    0.05    0.11 
   1   8   9   -0.02    0.11 
   2   8 -10    0.14    0.12 
   2   8 -10   -0.08    0.08 
   1   8 -10    0.25    0.11 
   1   8 -10    0.24    0.13 
   0   8 -10    0.11    0.10 
   0   8 -10    0.12    0.11 
  -1   8 -10    0.13    0.11 
  -2   8 -10    0.11    0.12 
  -3   8 -10    1.66    0.28 
   3   7 -10    0.05    0.10 
   3   7 -10    0.08    0.12 
  -3  -7  10    0.18    0.10 
   2   7 -10    0.01    0.08 
   2   7 -10    0.09    0.10 
  -2  -7  10    0.08    0.09 
   1   7 -10   -0.02    0.08 
   1   7 -10    0.04    0.09 
  -1  -7  10    0.07    0.09 
   0   7 -10   -0.03    0.09 
   0   7 -10    0.02    0.09 
   0  -7  10   -0.21    0.07 
  -1   7 -10    0.31    0.13 
  -2   7 -10    1.88    0.27 
  -3   7 -10    0.66    0.20 
  -4   7 -10    0.03    0.17 
   4   6 -10    0.15    0.14 
  -4  -6  10    0.28    0.11 
   3   6 -10    1.52    0.22 
  -3  -6  10    1.01    0.16 
   2   6 -10    0.31    0.11 
   2   6 -10    0.32    0.13 
  -2  -6  10    0.28    0.11 
   1   6 -10    0.07    0.09 
   1   6 -10    0.09    0.10 
  -1  -6  10    0.04    0.09 
   0   6 -10   -0.01    0.09 
   0   6 -10    0.04    0.09 
   0  -6  10    0.04    0.09 
  -1   6 -10    0.81    0.17 
  -1   6 -10    0.93    0.18 
   1  -6  10    0.76    0.16 
  -2   6 -10    1.53    0.23 
  -3   6 -10    0.30    0.15 
  -4   6 -10   -0.01    0.13 
  -5   6 -10    0.12    0.20 
   5   5 -10   -0.01    0.14 
   5   5 -10    0.01    0.21 
  -5  -5  10   -0.16    0.08 
   4   5 -10    0.19    0.13 
  -4  -5  10   -0.02    0.09 
   3   5 -10    2.46    0.27 
  -3  -5  10    2.31    0.23 
   2   5 -10    0.05    0.08 
   2   5 -10    0.05    0.10 
  -2  -5  10    0.01    0.07 
   1   5 -10    0.34    0.13 
   1   5 -10    0.03    0.08 
  -1  -5  10    0.26    0.10 
   0   5 -10    0.14    0.11 
   0   5 -10    0.13    0.10 
   0  -5  10    0.33    0.12 
  -1   5 -10    2.86    0.28 
   1  -5  10    2.38    0.25 
  -2   5 -10    1.32    0.22 
  -2   5 -10    1.36    0.16 
   2  -5  10    0.83    0.18 
  -3   5 -10    0.32    0.15 
   3  -5  10    0.35    0.12 
  -4   5 -10    1.21    0.23 
   4  -5  10    2.11    0.24 
  -5   5 -10    1.06    0.27 
   5  -5  10    1.10    0.19 
  -6   5 -10    1.99    0.35 
   6  -5  10    2.48    0.29 
   6   4 -10    0.04    0.15 
   6   4 -10    0.22    0.24 
   5   4 -10   -0.30    0.13 
   5   4 -10    0.20    0.15 
   4   4 -10   -0.17    0.09 
  -4  -4  10   -0.02    0.09 
   3   4 -10    0.08    0.10 
  -3  -4  10   -0.08    0.07 
   2   4 -10    0.09    0.09 
  -2  -4  10    0.07    0.08 
   1   4 -10    1.14    0.17 
   1   4 -10    0.97    0.18 
  -1  -4  10    0.95    0.15 
  -1  -4  10    0.79    0.15 
   0   4 -10    0.00    0.09 
   0   4 -10    0.05    0.09 
   0   4 -10    0.07    0.15 
   0  -4  10   -0.03    0.08 
   0  -4  10   -0.04    0.09 
  -1   4 -10    0.10    0.11 
  -1   4 -10    0.11    0.10 
  -1   4 -10    0.08    0.04 
  -1   4 -10    0.05    0.07 
  -1   4 -10    0.04    0.10 
   1  -4  10    0.10    0.10 
   1  -4  10    0.05    0.10 
  -2   4 -10    0.42    0.10 
  -2   4 -10    0.48    0.13 
  -2   4 -10    0.46    0.14 
   2  -4  10    0.34    0.15 
   2  -4  10    0.43    0.15 
  -3   4 -10    0.47    0.17 
  -3   4 -10    0.28    0.09 
   3  -4  10    0.28    0.11 
   3  -4  10    0.35    0.14 
   3  -4  10    0.23    0.14 
  -4   4 -10    0.14    0.15 
   4  -4  10    0.32    0.17 
   4  -4  10    0.24    0.11 
  -5   4 -10    3.17    0.37 
   5  -4  10    2.80    0.29 
   5  -4  10    2.55    0.35 
  -6   4 -10   -0.10    0.18 
   6  -4  10    0.26    0.16 
   6   3 -10    0.05    0.15 
   6   3 -10    0.14    0.22 
   5   3 -10    0.33    0.19 
   5   3 -10    0.50    0.18 
   4   3 -10    0.08    0.13 
   3   3 -10    4.89    0.35 
  -3  -3  10    4.69    0.30 
   2   3 -10    0.81    0.17 
  -2  -3  10    0.78    0.14 
  -2  -3  10    0.82    0.15 
   1   3 -10    0.06    0.10 
   1   3 -10    0.20    0.11 
   1   3 -10    0.18    0.11 
  -1  -3  10    0.20    0.10 
  -1  -3  10    0.27    0.11 
   0   3 -10    3.73    0.27 
   0   3 -10    3.64    0.27 
   0   3 -10    3.38    0.27 
   0  -3  10    3.38    0.26 
   0  -3  10    3.37    0.26 
  -1   3 -10    2.06    0.19 
  -1   3 -10    1.90    0.13 
  -1   3 -10    2.05    0.23 
  -1   3 -10    1.60    0.20 
   1  -3  10    2.12    0.24 
   1  -3  10    2.29    0.24 
  -2   3 -10    0.06    0.10 
  -2   3 -10    0.06    0.08 
  -2   3 -10    0.00    0.06 
   2  -3  10    0.00    0.10 
   2  -3  10   -0.03    0.10 
   2  -3  10   -0.09    0.07 
  -3   3 -10    0.77    0.17 
  -3   3 -10    1.10    0.15 
   3  -3  10    1.08    0.22 
   3  -3  10    0.64    0.17 
   3  -3  10    1.26    0.19 
  -4   3 -10    3.49    0.34 
  -4   3 -10    3.59    0.24 
   4  -3  10    3.42    0.36 
   4  -3  10    3.81    0.28 
  -5   3 -10   -0.17    0.13 
   5  -3  10    0.25    0.18 
   5  -3  10    0.01    0.11 
  -6   3 -10    0.61    0.23 
   6  -3  10    0.89    0.22 
   6  -3  10    1.66    0.35 
   6   2 -10   -0.08    0.12 
   6   2 -10    0.48    0.22 
   5   2 -10    0.85    0.22 
   5   2 -10    0.44    0.21 
   4   2 -10    0.05    0.12 
   4   2 -10    0.07    0.14 
   3   2 -10    0.95    0.20 
  -3  -2  10    1.17    0.18 
   2   2 -10    0.12    0.11 
   2   2 -10    0.10    0.11 
  -2  -2  10   -0.06    0.07 
  -2  -2  10    0.06    0.10 
   1   2 -10    0.11    0.10 
   1   2 -10   -0.04    0.08 
   1   2 -10   -0.03    0.10 
  -1  -2  10   -0.12    0.06 
  -1  -2  10   -0.03    0.08 
   0   2 -10    3.34    0.27 
   0   2 -10    4.09    0.27 
   0   2 -10    3.35    0.23 
   0  -2  10    3.88    0.28 
   0  -2  10    3.71    0.26 
  -1   2 -10    0.61    0.09 
  -1   2 -10    0.42    0.13 
  -1   2 -10    0.73    0.13 
  -1   2 -10    0.34    0.13 
   1  -2  10    0.65    0.16 
   1  -2  10    0.60    0.13 
  -2   2 -10    0.01    0.11 
  -2   2 -10   -0.08    0.09 
  -2   2 -10    0.14    0.09 
  -2   2 -10    0.06    0.08 
  -2   2 -10    0.13    0.06 
   2  -2  10   -0.09    0.08 
   2  -2  10    0.25    0.13 
   2  -2  10    0.19    0.10 
  -3   2 -10    3.24    0.31 
  -3   2 -10    2.98    0.29 
  -3   2 -10    3.24    0.22 
   3  -2  10    2.93    0.32 
   3  -2  10    3.66    0.35 
   3  -2  10    3.12    0.26 
  -4   2 -10    1.20    0.23 
   4  -2  10    1.01    0.18 
   4  -2  10    1.23    0.23 
  -5   2 -10    0.29    0.17 
   5  -2  10    0.25    0.18 
   5  -2  10    0.12    0.12 
  -6   2 -10    0.08    0.19 
   6  -2  10    0.32    0.21 
   6  -2  10   -0.05    0.13 
   7   1 -10   -0.08    0.16 
   7   1 -10    0.14    0.19 
   6   1 -10   -0.06    0.14 
   6   1 -10    0.31    0.20 
   5   1 -10    0.97    0.23 
   5   1 -10    0.57    0.22 
   4   1 -10    0.04    0.12 
   4   1 -10   -0.18    0.12 
  -4  -1  10    0.03    0.11 
   3   1 -10   -0.06    0.10 
  -3  -1  10   -0.22    0.07 
   2   1 -10    8.26    0.43 
  -2  -1  10    7.84    0.38 
  -2  -1  10    8.08    0.40 
   1   1 -10    4.20    0.28 
   1   1 -10    4.26    0.30 
  -1  -1  10    4.26    0.28 
  -1  -1  10    3.99    0.29 
   0   1 -10    0.01    0.10 
   0   1 -10    0.11    0.09 
   0   1 -10    0.03    0.06 
   0   1 -10    0.09    0.09 
   0  -1  10    0.13    0.11 
   0  -1  10    0.14    0.09 
  -1   1 -10    0.12    0.11 
  -1   1 -10    0.39    0.11 
  -1   1 -10    0.16    0.07 
  -1   1 -10    0.31    0.12 
   1  -1  10    0.28    0.13 
   1  -1  10    0.26    0.11 
  -2   1 -10    4.35    0.26 
  -2   1 -10    4.39    0.31 
  -2   1 -10    4.47    0.23 
  -2   1 -10    4.87    0.31 
   2  -1  10    5.02    0.30 
   2  -1  10    3.66    0.29 
   2  -1  10    4.54    0.34 
  -3   1 -10    1.59    0.23 
  -3   1 -10    1.21    0.20 
  -3   1 -10    1.12    0.18 
   3  -1  10    1.61    0.23 
   3  -1  10    1.72    0.25 
   3  -1  10    1.59    0.20 
  -4   1 -10    0.28    0.14 
   4  -1  10    0.28    0.17 
   4  -1  10    0.37    0.13 
  -5   1 -10    0.38    0.19 
   5  -1  10    0.28    0.10 
   5  -1  10    0.52    0.21 
   5  -1  10    0.42    0.15 
   6  -1  10    0.73    0.25 
   6  -1  10    0.97    0.19 
   6  -1  10    0.87    0.19 
   7   0 -10    0.31    0.20 
   7   0 -10    0.03    0.17 
   6   0 -10    0.17    0.15 
   6   0 -10    0.01    0.16 
   5   0 -10    1.09    0.22 
   5   0 -10    1.32    0.27 
  -5   0  10    0.91    0.20 
   4   0 -10    0.39    0.17 
   4   0 -10    0.49    0.15 
  -4   0  10    0.33    0.14 
   3   0 -10    1.76    0.26 
  -3   0  10    1.69    0.23 
   2   0 -10    3.55    0.30 
  -2   0  10    3.76    0.29 
   1   0 -10    0.04    0.10 
   1   0 -10    0.03    0.09 
  -1   0  10    0.34    0.13 
  -1   0  10    0.14    0.09 
   0   0 -10   -0.02    0.07 
   0   0 -10    0.00    0.10 
   0   0 -10    0.03    0.06 
   0   0 -10   -0.05    0.07 
   0   0  10    0.04    0.10 
   0   0  10    0.14    0.08 
  -1   0 -10    1.56    0.20 
  -1   0 -10    1.62    0.20 
  -1   0 -10    1.26    0.15 
  -1   0 -10    1.16    0.18 
   1   0  10    1.33    0.19 
   1   0  10    1.39    0.20 
  -2   0 -10   14.90    0.57 
  -2   0 -10   16.21    0.59 
  -2   0 -10   15.12    0.51 
   2   0  10   15.46    0.62 
   2   0  10   15.73    0.60 
   2   0  10   15.53    0.56 
  -3   0 -10    6.16    0.37 
  -3   0 -10    6.44    0.36 
  -3   0 -10    6.40    0.38 
   3   0  10    7.23    0.43 
   3   0  10    6.66    0.36 
   3   0  10    6.15    0.39 
  -4   0 -10    3.10    0.31 
  -4   0 -10    2.68    0.29 
   4   0  10    2.84    0.32 
   4   0  10    3.37    0.29 
   4   0  10    2.69    0.27 
  -5   0 -10    2.92    0.30 
  -5   0 -10    2.69    0.32 
   5   0  10    2.32    0.23 
   5   0  10    2.50    0.26 
   5   0  10    3.02    0.39 
   5   0  10    2.57    0.28 
  -6   0 -10    2.22    0.31 
   6   0  10    2.92    0.29 
   6   0  10    2.20    0.29 
   6   0  10    1.73    0.24 
   6   0  10    2.55    0.40 
   7  -1 -10   -0.03    0.18 
   7  -1 -10    0.14    0.17 
   6  -1 -10    0.19    0.19 
   6  -1 -10    0.08    0.13 
   5  -1 -10    0.39    0.18 
   5  -1 -10    0.26    0.15 
  -5   1  10    0.41    0.16 
   4  -1 -10    1.95    0.28 
   4  -1 -10    1.95    0.23 
  -4   1  10    1.62    0.23 
   3  -1 -10   -0.13    0.07 
   3  -1 -10   -0.18    0.09 
  -3   1  10    0.06    0.11 
   2  -1 -10    3.68    0.31 
  -2   1  10    3.79    0.30 
   1  -1 -10    2.93    0.20 
   1  -1 -10    3.24    0.30 
   1  -1 -10    2.93    0.24 
  -1   1  10    2.66    0.25 
  -1   1  10    2.45    0.25 
   0  -1 -10    2.77    0.20 
   0  -1 -10    2.72    0.18 
   0  -1 -10    2.67    0.27 
   0  -1 -10    2.90    0.24 
   0   1  10    2.52    0.26 
   0   1  10    2.71    0.25 
  -1  -1 -10    0.09    0.10 
  -1  -1 -10    0.13    0.07 
  -1  -1 -10    0.15    0.10 
   1   1  10    0.09    0.09 
   1   1  10   -0.08    0.10 
  -2  -1 -10    3.20    0.26 
  -2  -1 -10    2.71    0.22 
  -2  -1 -10    3.28    0.30 
   2   1  10    3.26    0.33 
   2   1  10    3.36    0.28 
   2   1  10    3.61    0.27 
  -3  -1 -10    2.33    0.25 
  -3  -1 -10    2.47    0.27 
   3   1  10    2.29    0.24 
   3   1  10    2.73    0.32 
   3   1  10    2.64    0.29 
   3   1  10    2.26    0.24 
  -4  -1 -10    6.90    0.40 
  -4  -1 -10    7.35    0.47 
  -4  -1 -10    6.86    0.41 
   4   1  10    7.06    0.35 
   4   1  10    7.29    0.39 
   4   1  10    6.85    0.38 
   4   1  10    6.95    0.46 
  -5  -1 -10    0.29    0.15 
   5   1  10    0.32    0.13 
   5   1  10    0.58    0.17 
   5   1  10    0.62    0.22 
   5   1  10    0.53    0.16 
   6   1  10    0.10    0.13 
   6   1  10    0.08    0.19 
   6   1  10   -0.07    0.12 
   7  -2 -10    0.08    0.15 
   7  -2 -10    0.02    0.18 
   6  -2 -10   -0.15    0.15 
   6  -2 -10    0.03    0.13 
  -6   2  10    0.05    0.14 
   5  -2 -10    0.03    0.11 
   5  -2 -10    0.01    0.14 
  -5   2  10    0.13    0.15 
   4  -2 -10    3.70    0.39 
   4  -2 -10    4.03    0.26 
  -4   2  10    2.60    0.28 
   3  -2 -10    0.09    0.14 
   3  -2 -10   -0.01    0.08 
  -3   2  10   -0.02    0.11 
   2  -2 -10    0.61    0.10 
   2  -2 -10    0.53    0.16 
  -2   2  10    0.42    0.14 
   1  -2 -10    0.89    0.15 
   1  -2 -10    1.11    0.20 
   1  -2 -10    0.99    0.09 
   1  -2 -10    0.56    0.12 
  -1   2  10    0.79    0.14 
  -1   2  10    0.92    0.17 
   0  -2 -10    0.36    0.12 
   0  -2 -10    0.36    0.08 
   0  -2 -10    0.39    0.10 
   0  -2 -10    0.39    0.14 
   0   2  10    0.23    0.13 
   0   2  10    0.39    0.11 
  -1  -2 -10    6.72    0.27 
  -1  -2 -10    7.32    0.39 
  -1  -2 -10    6.85    0.35 
  -1  -2 -10    6.99    0.34 
   1   2  10    7.36    0.38 
   1   2  10    7.52    0.41 
  -2  -2 -10    0.10    0.09 
  -2  -2 -10    0.26    0.12 
  -2  -2 -10    0.23    0.11 
   2   2  10    0.04    0.10 
   2   2  10    0.23    0.13 
   2   2  10    0.03    0.10 
  -3  -2 -10    0.24    0.12 
  -3  -2 -10    0.50    0.14 
   3   2  10    0.43    0.15 
   3   2  10    0.46    0.14 
   3   2  10    0.40    0.16 
  -4  -2 -10    3.32    0.28 
   4   2  10    3.07    0.29 
   4   2  10    3.02    0.35 
   4   2  10    3.54    0.29 
   5   2  10    4.08    0.34 
   5   2  10    5.18    0.31 
   5   2  10    4.84    0.47 
   5   2  10    4.05    0.33 
   6   2  10    0.28    0.16 
   6   2  10    0.39    0.16 
   6   2  10    0.28    0.21 
   7  -3 -10   -0.12    0.13 
   7  -3 -10    0.12    0.20 
   6  -3 -10   -0.07    0.11 
   6  -3 -10    0.00    0.17 
  -6   3  10    0.06    0.15 
   5  -3 -10    0.21    0.17 
   5  -3 -10    0.06    0.10 
  -5   3  10    0.25    0.16 
   4  -3 -10    3.11    0.36 
   4  -3 -10    2.80    0.20 
  -4   3  10    2.44    0.30 
   3  -3 -10   -0.12    0.06 
   3  -3 -10    0.13    0.13 
  -3   3  10    0.05    0.11 
   2  -3 -10    0.13    0.12 
   2  -3 -10    0.21    0.05 
   2  -3 -10    0.12    0.08 
  -2   3  10    0.13    0.11 
   1  -3 -10    0.51    0.13 
   1  -3 -10    0.33    0.13 
   1  -3 -10    0.39    0.12 
  -1   3  10    0.35    0.12 
  -1   3  10    0.26    0.12 
   0  -3 -10    2.11    0.24 
   0  -3 -10    2.25    0.23 
   0  -3 -10    2.63    0.24 
   0  -3 -10    1.96    0.14 
   0   3  10    2.32    0.26 
   0   3  10    2.09    0.23 
  -1  -3 -10    0.53    0.13 
  -1  -3 -10    0.22    0.11 
  -1  -3 -10    0.28    0.11 
   1   3  10    0.15    0.12 
   1   3  10    0.40    0.12 
  -2  -3 -10    2.26    0.25 
  -2  -3 -10    2.20    0.24 
  -2  -3 -10    1.87    0.23 
   2   3  10    1.47    0.21 
   2   3  10    1.92    0.24 
   2   3  10    1.56    0.22 
   2   3  10    1.58    0.20 
  -3  -3 -10    6.34    0.36 
   3   3  10    6.53    0.43 
   3   3  10    6.66    0.39 
   3   3  10    7.20    0.38 
   4   3  10   -0.03    0.11 
   4   3  10   -0.02    0.09 
   4   3  10    0.00    0.15 
   4   3  10    0.01    0.13 
   5   3  10    0.49    0.15 
   5   3  10    0.58    0.17 
   5   3  10    0.61    0.23 
   6  -4 -10    0.28    0.19 
  -6   4  10   -0.20    0.13 
   5  -4 -10   -0.09    0.15 
  -5   4  10    0.04    0.14 
   4  -4 -10    0.08    0.16 
  -4   4  10   -0.31    0.11 
   3  -4 -10    0.65    0.18 
  -3   4  10    0.73    0.18 
   2  -4 -10    5.46    0.37 
   2  -4 -10    4.84    0.30 
   2  -4 -10    4.97    0.30 
  -2   4  10    4.91    0.35 
   1  -4 -10    2.65    0.22 
   1  -4 -10    2.49    0.25 
   1  -4 -10    2.89    0.30 
  -1   4  10    2.95    0.30 
  -1   4  10    2.88    0.24 
   0  -4 -10    1.35    0.18 
   0  -4 -10    1.44    0.19 
   0  -4 -10    1.65    0.22 
   0   4  10    1.56    0.21 
   0   4  10    1.32    0.22 
  -1  -4 -10    0.08    0.08 
  -1  -4 -10   -0.03    0.13 
  -1  -4 -10   -0.05    0.09 
   1   4  10    0.02    0.09 
   1   4  10    0.14    0.11 
  -2  -4 -10    0.19    0.13 
   2   4  10    0.18    0.13 
   2   4  10    0.27    0.22 
   2   4  10    0.10    0.15 
   3   4  10   -0.08    0.13 
   3   4  10   -0.01    0.10 
   3   4  10   -0.01    0.13 
   4   4  10    4.21    0.33 
   4   4  10    4.88    0.42 
   5   4  10   -0.08    0.16 
   5   4  10    0.12    0.13 
   6  -5 -10    0.66    0.23 
  -6   5  10    0.49    0.23 
   5  -5 -10    0.00    0.16 
  -5   5  10    0.14    0.16 
   4  -5 -10    2.01    0.30 
  -4   5  10    1.43    0.26 
   3  -5 -10    0.13    0.13 
  -3   5  10    0.08    0.12 
   2  -5 -10    0.27    0.13 
  -2   5  10   -0.02    0.11 
   1  -5 -10    0.23    0.14 
  -1   5  10    0.19    0.13 
   0  -5 -10    5.94    0.39 
   0   5  10    6.52    0.40 
   0   5  10    6.41    0.41 
   1   5  10    0.10    0.13 
   1   5  10   -0.09    0.11 
   2   5  10    0.04    0.12 
   2   5  10    0.17    0.14 
   3   5  10    2.25    0.26 
   3   5  10    2.50    0.32 
   4   5  10    0.16    0.16 
   4   5  10    0.05    0.12 
  -5   6  10   -0.05    0.14 
  -4   6  10    0.26    0.16 
  -3   6  10    0.57    0.19 
  -2   6  10    0.17    0.15 
  -1   6  10    0.14    0.13 
   0   6  10    0.15    0.13 
   1   6  10   -0.05    0.13 
   1   6  10    0.09    0.12 
   2   6  10    0.67    0.17 
   3   6  10    1.18    0.23 
  -4   7  10   -0.02    0.15 
  -3   7  10    0.38    0.17 
  -2   7  10    1.20    0.23 
  -1   7  10   -0.08    0.11 
   0   7  10    0.34    0.16 
   1   7  10    3.32    0.35 
   2   7  10   -0.03    0.10 
  -1   8  10    0.58    0.17 
   0   8 -11   -0.03    0.10 
   0   8 -11   -0.04    0.11 
  -1   8 -11   -0.10    0.10 
  -1   8 -11   -0.15    0.12 
  -2   8 -11    2.04    0.29 
   2   7 -11    0.08    0.10 
   2   7 -11    0.08    0.11 
  -2  -7  11    0.03    0.11 
   1   7 -11    0.01    0.11 
   1   7 -11    0.11    0.10 
  -1  -7  11    0.14    0.12 
   0   7 -11    0.13    0.11 
   0   7 -11    0.06    0.11 
   0  -7  11   -0.02    0.10 
  -1   7 -11    1.00    0.20 
  -1   7 -11    0.63    0.18 
  -2   7 -11    2.13    0.28 
  -3   7 -11    0.93    0.22 
   3   6 -11   -0.09    0.08 
   3   6 -11    0.13    0.12 
  -3  -6  11    0.28    0.13 
   2   6 -11    0.14    0.10 
   2   6 -11   -0.06    0.10 
  -2  -6  11    0.01    0.09 
   1   6 -11    0.01    0.10 
   1   6 -11    0.00    0.09 
  -1  -6  11    0.05    0.11 
   0   6 -11    0.17    0.12 
   0   6 -11    0.17    0.11 
   0  -6  11    0.24    0.12 
  -1   6 -11    0.30    0.15 
  -1   6 -11    0.50    0.16 
   1  -6  11    0.34    0.14 
  -2   6 -11   -0.03    0.12 
  -3   6 -11    0.19    0.16 
  -4   6 -11    0.37    0.20 
   4   5 -11    0.22    0.15 
  -4  -5  11    0.18    0.11 
   3   5 -11    2.38    0.30 
  -3  -5  11    1.98    0.22 
   2   5 -11   -0.05    0.09 
   2   5 -11   -0.02    0.10 
  -2  -5  11    0.04    0.10 
   1   5 -11    0.04    0.10 
   1   5 -11   -0.13    0.08 
  -1  -5  11   -0.15    0.08 
   0   5 -11    0.13    0.11 
   0   5 -11    0.15    0.11 
   0  -5  11    0.08    0.11 
  -1   5 -11    1.08    0.19 
  -1   5 -11    0.82    0.17 
   1  -5  11    0.71    0.17 
  -2   5 -11    0.05    0.12 
  -2   5 -11   -0.07    0.07 
   2  -5  11   -0.01    0.11 
  -3   5 -11    0.34    0.16 
   3  -5  11   -0.04    0.09 
  -4   5 -11    0.45    0.20 
   4  -5  11    0.26    0.12 
  -5   5 -11    0.70    0.23 
   5  -5  11    0.29    0.15 
   5   4 -11    0.12    0.15 
   5   4 -11    0.08    0.20 
   4   4 -11    0.39    0.16 
  -4  -4  11    0.14    0.11 
   3   4 -11    0.02    0.10 
  -3  -4  11    0.01    0.09 
   2   4 -11   -0.01    0.11 
   2   4 -11    0.11    0.11 
  -2  -4  11   -0.02    0.09 
   1   4 -11   -0.05    0.08 
   1   4 -11   -0.10    0.09 
  -1  -4  11    0.17    0.10 
   0   4 -11    0.32    0.13 
   0   4 -11    0.36    0.13 
   0  -4  11    0.28    0.15 
   0  -4  11    0.23    0.12 
  -1   4 -11   -0.08    0.09 
  -1   4 -11   -0.10    0.11 
   1  -4  11    0.04    0.10 
   1  -4  11    0.15    0.12 
  -2   4 -11    0.00    0.11 
  -2   4 -11   -0.21    0.10 
   2  -4  11   -0.06    0.12 
   2  -4  11    0.15    0.14 
  -3   4 -11   -0.06    0.12 
  -3   4 -11    0.48    0.11 
   3  -4  11    0.31    0.12 
   3  -4  11    0.09    0.15 
  -4   4 -11    0.61    0.19 
   4  -4  11    0.31    0.13 
   4  -4  11    0.41    0.19 
  -5   4 -11   -0.29    0.16 
   5  -4  11   -0.03    0.12 
   5   3 -11    0.22    0.16 
   5   3 -11    0.27    0.19 
   4   3 -11    0.06    0.14 
   3   3 -11    0.04    0.10 
  -3  -3  11    0.13    0.11 
   2   3 -11    0.35    0.13 
  -2  -3  11    0.41    0.13 
  -2  -3  11    0.33    0.15 
   1   3 -11    0.39    0.14 
   1   3 -11    0.83    0.18 
  -1  -3  11    0.76    0.16 
  -1  -3  11    0.57    0.14 
   0   3 -11    1.48    0.21 
   0   3 -11    1.23    0.19 
   0   3 -11    1.17    0.12 
   0  -3  11    1.78    0.23 
   0  -3  11    1.23    0.19 
  -1   3 -11    0.12    0.05 
  -1   3 -11   -0.02    0.10 
  -1   3 -11    0.06    0.11 
   1  -3  11    0.02    0.11 
   1  -3  11    0.01    0.10 
  -2   3 -11    0.59    0.17 
  -2   3 -11    0.73    0.18 
   2  -3  11    0.36    0.15 
   2  -3  11    0.39    0.14 
  -3   3 -11    0.01    0.12 
   3  -3  11    0.13    0.14 
   3  -3  11    0.04    0.10 
  -4   3 -11    0.36    0.18 
   4  -3  11    0.29    0.13 
   4  -3  11    0.14    0.18 
  -5   3 -11    1.12    0.27 
   5  -3  11    0.86    0.25 
   5  -3  11    1.01    0.20 
  -6   3 -11    1.28    0.31 
   6  -3  11    1.53    0.33 
   6  -3  11    1.28    0.24 
   6   2 -11   -0.01    0.18 
   6   2 -11    0.02    0.16 
   5   2 -11    1.01    0.24 
   5   2 -11    0.73    0.23 
   4   2 -11    0.93    0.23 
   4   2 -11    0.74    0.20 
   3   2 -11    0.58    0.17 
  -3  -2  11    0.72    0.16 
  -3  -2  11    0.83    0.16 
   2   2 -11    0.02    0.11 
  -2  -2  11    0.01    0.08 
  -2  -2  11    0.08    0.10 
   1   2 -11    1.05    0.18 
   1   2 -11    0.75    0.17 
  -1  -2  11    1.36    0.20 
  -1  -2  11    0.87    0.17 
   0   2 -11    0.35    0.08 
   0   2 -11    0.40    0.13 
   0   2 -11    0.26    0.13 
   0  -2  11    0.41    0.13 
   0  -2  11    0.62    0.16 
  -1   2 -11    2.32    0.27 
  -1   2 -11    2.45    0.26 
  -1   2 -11    2.68    0.17 
   1  -2  11    2.41    0.25 
   1  -2  11    2.62    0.28 
  -2   2 -11   -0.01    0.12 
  -2   2 -11    0.07    0.05 
  -2   2 -11   -0.04    0.10 
   2  -2  11    0.04    0.13 
   2  -2  11    0.01    0.10 
  -3   2 -11    1.71    0.25 
  -3   2 -11    1.46    0.24 
   3  -2  11    1.88    0.28 
   3  -2  11    1.71    0.22 
  -4   2 -11    0.55    0.19 
   4  -2  11    0.89    0.18 
   4  -2  11    0.77    0.23 
  -5   2 -11    4.65    0.46 
   5  -2  11    3.93    0.44 
   5  -2  11    3.93    0.33 
  -6   2 -11    1.19    0.45 
   6  -2  11    0.93    0.22 
   6  -2  11    1.37    0.35 
   6   1 -11   -0.20    0.14 
   6   1 -11    0.00    0.16 
   5   1 -11   -0.07    0.14 
   5   1 -11    0.35    0.18 
   4   1 -11    0.11    0.14 
   4   1 -11   -0.19    0.11 
  -4  -1  11   -0.04    0.11 
   3   1 -11    0.00    0.11 
  -3  -1  11   -0.02    0.11 
   2   1 -11    1.03    0.20 
  -2  -1  11    1.17    0.19 
  -2  -1  11    1.04    0.17 
   1   1 -11    0.43    0.15 
   1   1 -11    0.44    0.13 
  -1  -1  11    0.23    0.11 
  -1  -1  11    0.60    0.15 
   0   1 -11    3.64    0.21 
   0   1 -11    3.94    0.29 
   0   1 -11    4.07    0.31 
   0  -1  11    3.70    0.27 
   0  -1  11    3.40    0.29 
  -1   1 -11    2.21    0.26 
  -1   1 -11    2.04    0.25 
  -1   1 -11    2.07    0.17 
   1  -1  11    2.36    0.27 
   1  -1  11    2.62    0.28 
  -2   1 -11    0.10    0.12 
  -2   1 -11    0.13    0.07 
  -2   1 -11    0.01    0.11 
   2  -1  11    0.10    0.11 
   2  -1  11    0.16    0.11 
   2  -1  11    0.28    0.15 
  -3   1 -11    6.71    0.41 
  -3   1 -11    7.21    0.42 
   3  -1  11    7.24    0.39 
   3  -1  11    7.31    0.46 
  -4   1 -11    0.28    0.16 
  -4   1 -11    0.40    0.17 
   4  -1  11    0.63    0.16 
   4  -1  11    0.60    0.20 
  -5   1 -11    0.91    0.21 
  -5   1 -11    0.77    0.24 
   5  -1  11    0.98    0.29 
   5  -1  11    0.97    0.20 
   6  -1  11    1.13    0.23 
   6  -1  11    1.52    0.32 
   6   0 -11   -0.12    0.16 
   6   0 -11   -0.21    0.13 
   5   0 -11   -0.25    0.14 
   5   0 -11    0.20    0.15 
   4   0 -11   -0.01    0.12 
   4   0 -11   -0.18    0.12 
  -4   0  11   -0.03    0.12 
   3   0 -11    0.83    0.20 
  -3   0  11    0.43    0.16 
   2   0 -11    1.00    0.21 
  -2   0  11    0.81    0.16 
  -2   0  11    0.71    0.16 
   1   0 -11    0.33    0.11 
   1   0 -11    0.18    0.13 
  -1   0  11    0.52    0.13 
  -1   0  11    0.48    0.15 
   0   0 -11    0.97    0.18 
   0   0 -11    1.33    0.16 
   0   0 -11    1.52    0.21 
   0   0  11    1.01    0.17 
   0   0  11    1.31    0.22 
  -1   0 -11    4.46    0.32 
  -1   0 -11    4.06    0.30 
  -1   0 -11    4.31    0.25 
   1   0  11    4.96    0.33 
   1   0  11    4.31    0.34 
  -2   0 -11    8.08    0.43 
  -2   0 -11    9.05    0.44 
  -2   0 -11    7.80    0.36 
   2   0  11    8.66    0.48 
   2   0  11    9.19    0.47 
   2   0  11    8.58    0.42 
  -3   0 -11    0.27    0.14 
  -3   0 -11    0.14    0.14 
   3   0  11    0.42    0.17 
   3   0  11    0.37    0.14 
  -4   0 -11    0.12    0.13 
  -4   0 -11    0.23    0.15 
   4   0  11    0.30    0.14 
   4   0  11    0.10    0.15 
  -5   0 -11    1.83    0.27 
   5   0  11    2.19    0.35 
   5   0  11    1.84    0.25 
   6   0  11    0.34    0.17 
   6   0  11    0.25    0.24 
   6  -1 -11    0.14    0.18 
   6  -1 -11    0.18    0.15 
   5  -1 -11    0.56    0.16 
   5  -1 -11    0.31    0.21 
  -5   1  11    0.30    0.16 
   4  -1 -11    0.62    0.16 
   4  -1 -11    0.75    0.22 
  -4   1  11    0.38    0.16 
   3  -1 -11    0.34    0.11 
   3  -1 -11    0.19    0.15 
  -3   1  11    0.13    0.13 
   2  -1 -11    1.88    0.27 
  -2   1  11    1.36    0.22 
   1  -1 -11    0.29    0.12 
   1  -1 -11    0.18    0.09 
   1  -1 -11    0.09    0.11 
  -1   1  11    0.12    0.11 
  -1   1  11    0.08    0.09 
   0  -1 -11    1.70    0.21 
   0  -1 -11    1.48    0.17 
   0  -1 -11    1.69    0.24 
   0   1  11    1.02    0.19 
   0   1  11    1.12    0.18 
  -1  -1 -11    7.97    0.37 
  -1  -1 -11    8.06    0.40 
  -1  -1 -11    8.02    0.43 
   1   1  11    8.22    0.42 
   1   1  11    8.34    0.45 
  -2  -1 -11    2.66    0.29 
  -2  -1 -11    2.52    0.24 
  -2  -1 -11    2.28    0.26 
   2   1  11    1.95    0.26 
   2   1  11    2.54    0.25 
  -3  -1 -11    1.00    0.19 
  -3  -1 -11    0.94    0.19 
   3   1  11    0.98    0.18 
   3   1  11    0.80    0.20 
  -4  -1 -11    0.14    0.13 
   4   1  11    0.10    0.12 
   4   1  11    0.06    0.14 
   4   1  11    0.09    0.14 
  -5  -1 -11    0.48    0.18 
   5   1  11    0.22    0.16 
   5   1  11    0.42    0.22 
   5   1  11    0.35    0.16 
   6  -2 -11   -0.01    0.17 
   6  -2 -11    0.43    0.16 
  -6   2  11    0.05    0.18 
   5  -2 -11    1.13    0.27 
   5  -2 -11    1.22    0.20 
  -5   2  11    1.16    0.24 
   4  -2 -11    1.62    0.19 
   4  -2 -11    1.77    0.30 
  -4   2  11    1.29    0.23 
   3  -2 -11    0.29    0.16 
   3  -2 -11    0.24    0.10 
  -3   2  11    0.07    0.11 
   2  -2 -11    0.09    0.14 
   2  -2 -11    0.28    0.08 
  -2   2  11    0.33    0.14 
   1  -2 -11    2.69    0.22 
   1  -2 -11    2.44    0.25 
   1  -2 -11    3.03    0.31 
  -1   2  11    1.94    0.23 
  -1   2  11    1.92    0.24 
   0  -2 -11   -0.06    0.08 
   0  -2 -11   -0.08    0.05 
   0  -2 -11   -0.13    0.09 
   0   2  11   -0.09    0.08 
   0   2  11    0.08    0.12 
  -1  -2 -11    0.08    0.10 
  -1  -2 -11   -0.02    0.10 
  -1  -2 -11   -0.01    0.07 
   1   2  11    0.11    0.12 
   1   2  11    0.01    0.11 
  -2  -2 -11    0.86    0.16 
  -2  -2 -11    0.94    0.18 
  -2  -2 -11    0.89    0.19 
   2   2  11    0.74    0.18 
  -3  -2 -11    0.13    0.11 
   3   2  11   -0.05    0.13 
   3   2  11   -0.08    0.11 
  -4  -2 -11    0.08    0.13 
   4   2  11    0.24    0.17 
   4   2  11    0.13    0.16 
   4   2  11    0.11    0.12 
   5   2  11    1.03    0.27 
   5   2  11    1.17    0.22 
   6  -3 -11   -0.01    0.17 
  -6   3  11    0.00    0.18 
   5  -3 -11    1.23    0.28 
  -5   3  11    1.19    0.24 
   4  -3 -11    5.49    0.44 
  -4   3  11    4.93    0.40 
   3  -3 -11    0.42    0.16 
  -3   3  11    0.31    0.15 
   2  -3 -11   -0.05    0.08 
   2  -3 -11    0.06    0.13 
   2  -3 -11    0.01    0.07 
  -2   3  11   -0.06    0.10 
   1  -3 -11    0.01    0.08 
   1  -3 -11   -0.09    0.07 
   1  -3 -11    0.13    0.13 
  -1   3  11    0.01    0.12 
   0  -3 -11    2.47    0.27 
   0  -3 -11    2.75    0.26 
   0  -3 -11    3.12    0.26 
   0   3  11    2.08    0.25 
  -1  -3 -11    0.07    0.10 
  -1  -3 -11    0.13    0.10 
  -1  -3 -11    0.06    0.10 
   1   3  11    0.14    0.12 
  -2  -3 -11    0.74    0.19 
  -2  -3 -11    0.76    0.18 
   2   3  11    0.56    0.19 
   3   3  11    0.13    0.15 
   3   3  11    0.22    0.13 
   3   3  11    0.20    0.15 
   4   3  11    1.42    0.27 
   4   3  11    1.70    0.24 
   5   3  11    0.11    0.14 
   5   3  11    0.05    0.18 
   6  -4 -11   -0.01    0.19 
  -6   4  11   -0.13    0.17 
   5  -4 -11    0.16    0.17 
  -5   4  11    0.14    0.16 
   4  -4 -11    0.58    0.22 
  -4   4  11    0.33    0.17 
   3  -4 -11    1.59    0.28 
  -3   4  11    0.68    0.18 
   2  -4 -11    1.39    0.19 
   2  -4 -11    1.67    0.26 
  -2   4  11    1.67    0.25 
   1  -4 -11    2.32    0.28 
   1  -4 -11    1.67    0.20 
  -1   4  11    1.98    0.26 
   0  -4 -11   -0.04    0.10 
   0   4  11    0.05    0.11 
  -1  -4 -11    0.11    0.11 
   1   4  11    0.02    0.11 
   2   4  11    0.82    0.20 
   2   4  11    1.37    0.23 
   3   4  11   -0.02    0.15 
   3   4  11    0.00    0.12 
   4   4  11    0.67    0.18 
   4   4  11    0.48    0.21 
   5  -5 -11   -0.07    0.17 
  -5   5  11   -0.12    0.14 
   4  -5 -11    0.91    0.24 
  -4   5  11    0.84    0.21 
   3  -5 -11   -0.09    0.13 
  -3   5  11   -0.04    0.13 
   2  -5 -11    0.27    0.16 
  -2   5  11    0.18    0.14 
   1  -5 -11    0.29    0.15 
  -1   5  11    0.10    0.14 
   0   5  11    0.20    0.13 
   1   5  11    0.01    0.12 
   2   5  11    0.49    0.17 
   3   5  11    0.00    0.16 
  -4   6  11    0.41    0.19 
  -3   6  11   -0.23    0.12 
  -2   6  11    0.04    0.13 
  -1   6  11    0.54    0.17 
   0   6  11    0.90    0.20 
   1   6  11   -0.03    0.13 
   2   6  11   -0.11    0.12 
  -3   7  11   -0.12    0.15 
  -2   7  11    1.03    0.23 
  -1   7  11    0.19    0.14 
   0   7  11    0.06    0.14 
   1   7 -12    0.06    0.10 
   1   7 -12   -0.04    0.12 
  -1  -7  12    0.02    0.11 
   0   7 -12    0.05    0.12 
   0   7 -12    0.06    0.11 
   0  -7  12   -0.11    0.12 
  -1   7 -12    0.13    0.14 
  -1   7 -12   -0.06    0.13 
  -2   7 -12    0.88    0.22 
  -2   7 -12    1.09    0.23 
   3   6 -12    0.09    0.13 
   3   6 -12    0.15    0.11 
   2   6 -12   -0.05    0.09 
   2   6 -12   -0.10    0.10 
  -2  -6  12    0.00    0.11 
   1   6 -12   -0.13    0.10 
   1   6 -12    0.06    0.12 
  -1  -6  12   -0.02    0.11 
   0   6 -12    0.09    0.12 
   0   6 -12   -0.02    0.11 
   0  -6  12    0.03    0.12 
  -1   6 -12    0.35    0.15 
  -1   6 -12    0.44    0.16 
   1  -6  12    0.36    0.17 
  -2   6 -12    0.43    0.18 
  -2   6 -12    0.72    0.20 
  -3   6 -12   -0.03    0.16 
   4   5 -12    0.53    0.19 
  -4  -5  12    0.26    0.14 
   3   5 -12    0.72    0.18 
   3   5 -12    0.33    0.16 
  -3  -5  12    0.41    0.14 
   2   5 -12   -0.03    0.11 
   2   5 -12    0.33    0.14 
  -2  -5  12    0.11    0.11 
   1   5 -12    0.03    0.11 
   1   5 -12   -0.10    0.09 
  -1  -5  12    0.01    0.10 
   0   5 -12    1.40    0.23 
   0   5 -12    1.51    0.22 
   0  -5  12    1.54    0.23 
  -1   5 -12   -0.02    0.10 
  -1   5 -12    0.01    0.12 
   1  -5  12    0.30    0.15 
  -2   5 -12    0.28    0.16 
  -2   5 -12   -0.03    0.12 
  -3   5 -12    0.26    0.16 
  -4   5 -12    0.76    0.24 
   4   4 -12    0.56    0.20 
   3   4 -12    0.11    0.13 
  -3  -4  12    0.07    0.11 
   2   4 -12    0.00    0.10 
   2   4 -12   -0.05    0.10 
  -2  -4  12   -0.02    0.09 
   1   4 -12    0.14    0.12 
   1   4 -12    0.00    0.11 
  -1  -4  12    0.06    0.11 
   0   4 -12    2.66    0.30 
   0   4 -12    2.74    0.28 
   0  -4  12    2.51    0.27 
  -1   4 -12    0.24    0.13 
  -1   4 -12    0.04    0.12 
   1  -4  12    0.10    0.13 
  -2   4 -12    0.35    0.17 
  -2   4 -12    0.29    0.16 
  -3   4 -12    0.83    0.21 
  -3   4 -12    1.54    0.27 
  -4   4 -12    0.14    0.18 
   4  -4  12    0.15    0.13 
  -5   4 -12    0.12    0.21 
   5  -4  12    0.11    0.15 
   5   3 -12   -0.11    0.15 
   5   3 -12    0.30    0.18 
   4   3 -12   -0.07    0.11 
   3   3 -12   -0.01    0.12 
  -3  -3  12    0.18    0.12 
   2   3 -12    0.08    0.12 
   2   3 -12    0.32    0.13 
  -2  -3  12    0.19    0.11 
   1   3 -12   -0.10    0.09 
   1   3 -12   -0.10    0.10 
  -1  -3  12   -0.09    0.08 
   0   3 -12    0.20    0.13 
   0   3 -12   -0.03    0.05 
   0   3 -12    0.00    0.10 
   0  -3  12    0.01    0.12 
   0  -3  12    0.06    0.11 
  -1   3 -12    0.00    0.05 
  -1   3 -12    0.01    0.11 
  -1   3 -12    0.15    0.12 
   1  -3  12    0.02    0.12 
   1  -3  12    0.02    0.13 
  -2   3 -12    1.06    0.21 
  -2   3 -12    0.96    0.20 
   2  -3  12    1.22    0.24 
  -3   3 -12    0.86    0.21 
  -3   3 -12    0.83    0.21 
   3  -3  12    0.46    0.15 
   3  -3  12    0.77    0.21 
  -4   3 -12    1.16    0.25 
  -4   3 -12    1.12    0.24 
   4  -3  12    0.99    0.27 
   4  -3  12    0.66    0.17 
  -5   3 -12    0.15    0.20 
   5  -3  12   -0.06    0.13 
   5  -3  12    0.08    0.21 
   5   2 -12    0.24    0.21 
   5   2 -12    0.11    0.17 
   4   2 -12    0.08    0.14 
   4   2 -12   -0.19    0.13 
   3   2 -12    0.70    0.20 
   2   2 -12    0.76    0.19 
   2   2 -12    1.32    0.20 
  -2  -2  12    0.75    0.17 
  -2  -2  12    0.78    0.16 
   1   2 -12    0.84    0.17 
   1   2 -12    0.62    0.18 
  -1  -2  12    0.91    0.18 
  -1  -2  12    1.06    0.19 
   0   2 -12    0.07    0.11 
   0   2 -12    0.12    0.12 
   0   2 -12    0.01    0.05 
   0  -2  12    0.20    0.13 
   0  -2  12    0.18    0.12 
  -1   2 -12    1.58    0.23 
  -1   2 -12    1.30    0.14 
  -1   2 -12    1.71    0.25 
   1  -2  12    1.33    0.23 
  -2   2 -12    0.17    0.14 
  -2   2 -12    0.49    0.17 
  -2   2 -12    0.33    0.09 
   2  -2  12    0.52    0.19 
  -3   2 -12    1.18    0.23 
  -3   2 -12    0.77    0.20 
   3  -2  12    0.77    0.17 
   3  -2  12    0.97    0.23 
  -4   2 -12    0.04    0.15 
  -4   2 -12    0.20    0.17 
   4  -2  12    0.28    0.15 
   4  -2  12    0.27    0.20 
  -5   2 -12    0.17    0.20 
  -5   2 -12    0.47    0.19 
   5  -2  12    0.41    0.23 
   5  -2  12    0.35    0.17 
   6   1 -12    0.21    0.20 
   5   1 -12    0.09    0.15 
   5   1 -12   -0.08    0.14 
   4   1 -12    0.53    0.21 
   4   1 -12    0.09    0.14 
   3   1 -12    0.15    0.14 
  -3  -1  12    0.08    0.13 
   2   1 -12   -0.04    0.09 
   2   1 -12    0.04    0.13 
  -2  -1  12   -0.02    0.11 
  -2  -1  12    0.00    0.10 
   1   1 -12    0.78    0.18 
   1   1 -12    0.95    0.20 
  -1  -1  12    0.83    0.17 
  -1  -1  12    0.95    0.19 
   0   1 -12    0.15    0.12 
   0   1 -12    0.12    0.13 
   0   1 -12    0.14    0.07 
   0  -1  12    0.04    0.12 
   0  -1  12    0.18    0.11 
  -1   1 -12    0.39    0.15 
  -1   1 -12    0.33    0.09 
  -1   1 -12    0.58    0.16 
   1  -1  12    0.53    0.17 
  -2   1 -12    0.22    0.14 
  -2   1 -12    0.34    0.15 
  -2   1 -12    0.22    0.09 
   2  -1  12    0.40    0.16 
  -3   1 -12    0.24    0.15 
  -3   1 -12    0.38    0.16 
   3  -1  12    0.32    0.13 
   3  -1  12    0.61    0.20 
  -4   1 -12    0.35    0.18 
  -4   1 -12    0.33    0.17 
   4  -1  12    0.16    0.19 
   4  -1  12    0.35    0.16 
  -5   1 -12   -0.20    0.14 
   5  -1  12    0.07    0.15 
   5  -1  12   -0.46    0.16 
   6   0 -12    0.20    0.20 
   6   0 -12    0.19    0.19 
   5   0 -12    0.46    0.18 
   5   0 -12    0.15    0.19 
   4   0 -12    0.59    0.18 
   4   0 -12    0.92    0.24 
  -4   0  12    0.38    0.16 
   3   0 -12   -0.02    0.12 
  -3   0  12    0.03    0.12 
   2   0 -12    1.02    0.22 
   2   0 -12    0.77    0.17 
  -2   0  12    0.57    0.17 
   1   0 -12   -0.04    0.13 
   1   0 -12    0.12    0.12 
   1   0 -12   -0.05    0.06 
  -1   0  12   -0.03    0.12 
   0   0 -12    0.55    0.12 
   0   0 -12    0.72    0.17 
   0   0 -12    0.74    0.19 
   0   0  12    0.65    0.18 
  -1   0 -12    5.17    0.29 
  -1   0 -12    5.32    0.35 
  -1   0 -12    5.10    0.36 
   1   0  12    4.99    0.38 
  -2   0 -12    4.59    0.28 
  -2   0 -12    4.80    0.36 
  -2   0 -12    4.67    0.34 
   2   0  12    4.75    0.39 
  -3   0 -12    0.97    0.21 
  -3   0 -12    0.83    0.20 
   3   0  12    1.24    0.24 
   3   0  12    1.18    0.21 
  -4   0 -12    0.01    0.14 
  -4   0 -12   -0.02    0.13 
   4   0  12    0.18    0.17 
   4   0  12    0.56    0.17 
  -5   0 -12    2.87    0.34 
   5   0  12    3.31    0.43 
   5   0  12    3.16    0.33 
   6  -1 -12   -0.09    0.13 
   6  -1 -12    0.18    0.20 
   5  -1 -12   -0.02    0.12 
   5  -1 -12   -0.01    0.17 
   4  -1 -12    1.02    0.19 
   4  -1 -12    1.22    0.28 
  -4   1  12    1.04    0.21 
   3  -1 -12    0.13    0.10 
   3  -1 -12   -0.15    0.12 
  -3   1  12    0.00    0.12 
   2  -1 -12    0.12    0.11 
   2  -1 -12    0.13    0.14 
  -2   1  12   -0.04    0.10 
   1  -1 -12   -0.02    0.11 
   1  -1 -12   -0.05    0.09 
   1  -1 -12   -0.04    0.06 
  -1   1  12   -0.12    0.10 
   0  -1 -12    1.34    0.18 
   0  -1 -12    1.55    0.22 
   0  -1 -12    1.39    0.24 
   0   1  12    1.55    0.25 
  -1  -1 -12    5.98    0.33 
  -1  -1 -12    7.10    0.42 
  -1  -1 -12    6.48    0.38 
   1   1  12    6.34    0.42 
  -2  -1 -12    0.15    0.14 
  -2  -1 -12    0.01    0.08 
  -2  -1 -12    0.09    0.12 
   2   1  12   -0.05    0.12 
  -3  -1 -12    0.57    0.18 
  -3  -1 -12    0.97    0.20 
   3   1  12    0.48    0.19 
   3   1  12    0.75    0.19 
  -4  -1 -12    0.05    0.13 
   4   1  12    0.02    0.13 
   4   1  12    0.00    0.15 
   5   1  12    1.03    0.29 
   5   1  12    0.99    0.22 
   6  -2 -12    0.42    0.23 
   5  -2 -12    0.39    0.21 
   5  -2 -12    0.54    0.21 
  -5   2  12    0.40    0.18 
   4  -2 -12    0.01    0.15 
   4  -2 -12    0.00    0.10 
  -4   2  12    0.06    0.13 
   3  -2 -12    0.59    0.12 
   3  -2 -12    0.45    0.19 
  -3   2  12    0.72    0.19 
   2  -2 -12    0.17    0.15 
   2  -2 -12    0.33    0.12 
   2  -2 -12    0.28    0.13 
   2  -2 -12    0.30    0.10 
  -2   2  12    0.20    0.14 
   1  -2 -12    1.94    0.28 
   1  -2 -12    2.00    0.22 
   1  -2 -12    1.62    0.22 
  -1   2  12    1.54    0.23 
   0  -2 -12    0.46    0.14 
   0  -2 -12    0.35    0.11 
   0  -2 -12    0.19    0.13 
   0   2  12    0.22    0.14 
  -1  -2 -12    3.51    0.29 
  -1  -2 -12    3.20    0.26 
  -1  -2 -12    3.10    0.32 
   1   2  12    3.71    0.37 
  -2  -2 -12   -0.05    0.11 
  -2  -2 -12   -0.02    0.08 
  -2  -2 -12    0.04    0.12 
   2   2  12   -0.02    0.13 
  -3  -2 -12    1.80    0.26 
   3   2  12    1.70    0.24 
   3   2  12    1.77    0.30 
   4   2  12    0.54    0.17 
   4   2  12    0.32    0.20 
   5  -3 -12    1.61    0.33 
  -5   3  12    0.76    0.23 
   4  -3 -12    0.16    0.17 
  -4   3  12    0.40    0.17 
   3  -3 -12   -0.05    0.14 
  -3   3  12    0.05    0.13 
   2  -3 -12    0.00    0.09 
   2  -3 -12    0.14    0.15 
  -2   3  12   -0.08    0.11 
   1  -3 -12    0.36    0.16 
   1  -3 -12    0.27    0.12 
  -1   3  12    0.24    0.15 
   0  -3 -12    0.14    0.13 
   0  -3 -12   -0.12    0.09 
   0   3  12    0.01    0.11 
  -1  -3 -12    0.42    0.16 
   1   3  12    0.65    0.19 
  -2  -3 -12    0.31    0.15 
   2   3  12    0.21    0.16 
   3   3  12    0.61    0.18 
   3   3  12    0.23    0.19 
   4   3  12    0.86    0.26 
   4   3  12    0.74    0.20 
   5  -4 -12    0.77    0.25 
  -5   4  12    0.44    0.22 
   4  -4 -12   -0.06    0.16 
  -4   4  12   -0.02    0.15 
   3  -4 -12    0.21    0.17 
  -3   4  12    0.22    0.15 
   2  -4 -12    0.10    0.15 
  -2   4  12    0.31    0.15 
   1  -4 -12    3.87    0.37 
  -1   4  12    3.21    0.34 
   0  -4 -12   -0.15    0.10 
   0   4  12   -0.14    0.11 
   1   4  12    0.83    0.20 
   2   4  12    1.78    0.28 
   3   4  12   -0.10    0.15 
   4  -5 -12    0.59    0.23 
  -4   5  12    0.52    0.21 
   3  -5 -12    0.25    0.18 
  -3   5  12    0.22    0.16 
  -2   5  12    0.41    0.17 
  -1   5  12    0.19    0.14 
   0   5  12    0.12    0.14 
   1   5  12    0.79    0.21 
   2   5  12   -0.14    0.13 
  -3   6  12    0.60    0.20 
  -2   6  12    0.04    0.14 
  -1   6  12    0.16    0.15 
   0   6  12    0.57    0.20 
   1   6  12    0.18    0.15 
   1   6 -13    0.06    0.13 
   1   6 -13   -0.03    0.13 
   0   6 -13    0.95    0.21 
   0   6 -13    0.70    0.21 
  -1   6 -13    0.09    0.14 
  -1   6 -13   -0.01    0.14 
  -2   6 -13    0.01    0.15 
  -2   6 -13   -0.13    0.14 
   3   5 -13    0.01    0.14 
   3   5 -13   -0.05    0.12 
   2   5 -13    0.09    0.12 
   2   5 -13    0.05    0.13 
   1   5 -13    0.12    0.13 
   1   5 -13   -0.05    0.12 
   0   5 -13    0.15    0.13 
   0   5 -13    0.27    0.15 
  -1   5 -13    0.24    0.14 
  -1   5 -13    0.20    0.14 
  -2   5 -13    0.16    0.16 
  -2   5 -13   -0.03    0.15 
  -3   5 -13   -0.13    0.15 
  -3   5 -13   -0.09    0.15 
   3   4 -13   -0.01    0.12 
   3   4 -13    0.03    0.13 
   2   4 -13    0.22    0.14 
   2   4 -13   -0.16    0.10 
   1   4 -13   -0.22    0.10 
   1   4 -13   -0.09    0.11 
   0   4 -13    0.14    0.14 
   0   4 -13    0.27    0.15 
  -1   4 -13   -0.01    0.13 
  -1   4 -13    0.02    0.13 
  -2   4 -13   -0.10    0.13 
  -2   4 -13    0.30    0.15 
  -3   4 -13    1.00    0.24 
  -3   4 -13    0.77    0.22 
  -4   4 -13   -0.08    0.19 
  -4   4 -13   -0.05    0.16 
   4  -4  13   -0.04    0.12 
   4   3 -13    0.11    0.16 
   3   3 -13   -0.03    0.14 
   2   3 -13    0.14    0.12 
   2   3 -13   -0.09    0.11 
   1   3 -13    0.24    0.15 
   1   3 -13    0.36    0.15 
   0   3 -13    0.10    0.12 
   0   3 -13    0.07    0.13 
  -1   3 -13    0.47    0.18 
  -1   3 -13    0.28    0.15 
  -2   3 -13   -0.06    0.12 
  -2   3 -13    0.09    0.14 
  -3   3 -13    0.35    0.18 
  -3   3 -13    1.11    0.24 
  -4   3 -13    0.68    0.23 
  -4   3 -13    0.39    0.20 
   4  -3  13    0.44    0.16 
   4   2 -13    0.06    0.17 
   4   2 -13   -0.06    0.14 
   3   2 -13    0.23    0.16 
   2   2 -13   -0.04    0.12 
   2   2 -13    0.01    0.12 
   1   2 -13    0.12    0.14 
   1   2 -13   -0.04    0.11 
  -1  -2  13   -0.03    0.13 
   0   2 -13   -0.12    0.11 
   0   2 -13   -0.02    0.11 
   0   2 -13    0.03    0.06 
   0  -2  13    0.05    0.13 
  -1   2 -13    1.74    0.27 
  -1   2 -13    2.38    0.29 
   1  -2  13    2.47    0.32 
  -2   2 -13    1.28    0.25 
  -2   2 -13    0.74    0.20 
   2  -2  13    1.16    0.24 
  -3   2 -13    0.69    0.21 
  -3   2 -13    0.35    0.17 
   3  -2  13    0.37    0.19 
  -4   2 -13   -0.07    0.15 
  -4   2 -13    0.03    0.16 
   4  -2  13    0.04    0.20 
   4  -2  13    0.22    0.14 
   5   1 -13    0.58    0.21 
   5   1 -13    0.04    0.18 
   4   1 -13    0.20    0.17 
   4   1 -13   -0.02    0.16 
   3   1 -13    0.56    0.20 
   2   1 -13    0.24    0.17 
   2   1 -13    0.12    0.12 
  -2  -1  13    0.11    0.14 
   1   1 -13   -0.14    0.11 
   1   1 -13   -0.04    0.07 
   1   1 -13   -0.01    0.13 
  -1  -1  13   -0.17    0.11 
   0   1 -13    0.32    0.15 
   0   1 -13    0.23    0.09 
   0   1 -13    0.05    0.13 
   0  -1  13    0.33    0.15 
  -1   1 -13    3.62    0.24 
  -1   1 -13    4.40    0.34 
  -1   1 -13    3.70    0.36 
   1  -1  13    3.53    0.36 
  -2   1 -13    0.70    0.19 
  -2   1 -13    0.33    0.17 
  -2   1 -13    0.29    0.11 
   2  -1  13    0.37    0.19 
  -3   1 -13    0.96    0.22 
  -3   1 -13    0.95    0.23 
   3  -1  13    0.87    0.19 
   3  -1  13    1.12    0.25 
  -4   1 -13    1.26    0.27 
  -4   1 -13    1.15    0.25 
   4  -1  13    1.17    0.23 
   4  -1  13    1.27    0.31 
   5   0 -13    0.39    0.18 
   5   0 -13    0.11    0.19 
   4   0 -13    0.06    0.18 
   4   0 -13    0.08    0.13 
   3   0 -13    0.98    0.25 
   3   0 -13    1.08    0.20 
  -3   0  13    0.62    0.19 
   2   0 -13   -0.09    0.10 
   2   0 -13    0.00    0.13 
  -2   0  13   -0.07    0.12 
   1   0 -13    1.74    0.19 
   1   0 -13    1.67    0.24 
   1   0 -13    2.36    0.31 
  -1   0  13    1.47    0.24 
   0   0 -13   -0.12    0.10 
   0   0 -13    0.08    0.07 
   0   0 -13    0.20    0.15 
   0   0  13    0.14    0.14 
  -1   0 -13    1.33    0.25 
  -1   0 -13    1.18    0.22 
  -1   0 -13    1.31    0.17 
   1   0  13    1.51    0.26 
  -2   0 -13    1.23    0.24 
  -2   0 -13    0.98    0.21 
  -2   0 -13    0.92    0.16 
   2   0  13    1.04    0.25 
  -3   0 -13    0.95    0.22 
  -3   0 -13    1.53    0.25 
   3   0  13    1.39    0.23 
   3   0  13    1.06    0.24 
  -4   0 -13    0.11    0.15 
   4   0  13    0.04    0.17 
   4   0  13    0.29    0.17 
   5  -1 -13    0.86    0.20 
   5  -1 -13    0.18    0.22 
   4  -1 -13   -0.06    0.15 
   4  -1 -13    0.04    0.12 
  -4   1  13   -0.14    0.13 
   3  -1 -13    0.19    0.16 
   3  -1 -13    0.06    0.11 
  -3   1  13    0.03    0.13 
   2  -1 -13    0.50    0.20 
   2  -1 -13    0.10    0.11 
  -2   1  13    0.36    0.15 
   1  -1 -13    0.00    0.07 
   1  -1 -13   -0.04    0.11 
   1  -1 -13   -0.22    0.11 
  -1   1  13   -0.12    0.11 
   0  -1 -13    0.21    0.09 
   0  -1 -13    0.25    0.14 
   0  -1 -13    0.40    0.17 
   0   1  13   -0.01    0.12 
  -1  -1 -13    0.29    0.10 
  -1  -1 -13    0.41    0.16 
  -1  -1 -13    0.67    0.19 
   1   1  13    0.12    0.15 
  -2  -1 -13   -0.05    0.08 
  -2  -1 -13    0.02    0.14 
  -2  -1 -13    0.04    0.13 
   2   1  13   -0.01    0.13 
  -3  -1 -13    1.02    0.21 
   3   1  13    0.86    0.19 
   3   1  13    0.44    0.19 
  -4  -1 -13    1.73    0.30 
   4   1  13    2.01    0.33 
   4   1  13    1.73    0.26 
   5  -2 -13    0.91    0.29 
   4  -2 -13    0.15    0.20 
  -4   2  13    0.25    0.17 
   3  -2 -13   -0.08    0.16 
  -3   2  13    0.03    0.13 
   2  -2 -13   -0.09    0.14 
   2  -2 -13    0.06    0.10 
  -2   2  13   -0.09    0.13 
   1  -2 -13    0.46    0.18 
   1  -2 -13    0.16    0.12 
  -1   2  13    0.26    0.16 
   0  -2 -13    0.34    0.17 
   0  -2 -13    0.31    0.15 
   0   2  13    0.34    0.16 
  -1  -2 -13    0.05    0.11 
  -1  -2 -13    0.15    0.14 
   1   2  13   -0.04    0.12 
  -2  -2 -13    0.60    0.18 
   2   2  13    0.51    0.18 
  -3  -2 -13    0.54    0.27 
   3   2  13    0.56    0.22 
   4  -3 -13    0.35    0.20 
  -4   3  13    0.18    0.18 
   3  -3 -13    1.00    0.25 
  -3   3  13    0.44    0.18 
   2  -3 -13    1.13    0.25 
   2  -3 -13    1.09    0.21 
  -2   3  13    0.64    0.20 
   1  -3 -13   -0.05    0.13 
   1  -3 -13    0.01    0.13 
  -1   3  13    0.10    0.13 
   0  -3 -13   -0.04    0.12 
   0   3  13    0.06    0.13 
  -1  -3 -13    0.38    0.16 
   1   3  13    0.35    0.17 
   2   3  13    0.10    0.15 
   3   3  13    1.43    0.30 
   4  -4 -13   -0.12    0.17 
  -4   4  13    0.19    0.18 
   3  -4 -13   -0.01    0.16 
  -3   4  13   -0.05    0.14 
   2  -4 -13   -0.04    0.14 
  -2   4  13    0.05    0.14 
   1  -4 -13    1.73    0.29 
  -1   4  13    1.13    0.24 
   0   4  13   -0.01    0.14 
   1   4  13    0.00    0.14 
   2   4  13    0.22    0.18 
  -3   5  13   -0.10    0.15 
  -2   5  13    0.02    0.14 
  -1   5  13   -0.08    0.13 
   0   5  13    0.00    0.14 
   1   5  13    0.03    0.15 
   1   5 -14    0.05    0.13 
   1   5 -14   -0.11    0.13 
   0   5 -14    0.06    0.16 
   0   5 -14   -0.07    0.13 
  -1   5 -14    0.07    0.15 
  -1   5 -14    0.11    0.15 
   2   4 -14   -0.02    0.12 
   2   4 -14    0.23    0.16 
   1   4 -14    0.01    0.14 
   1   4 -14    0.31    0.16 
   0   4 -14    0.03    0.14 
   0   4 -14    0.24    0.15 
  -1   4 -14    0.00    0.14 
  -1   4 -14    0.01    0.14 
  -2   4 -14    0.24    0.18 
  -2   4 -14   -0.18    0.13 
   3   3 -14   -0.03    0.13 
   3   3 -14    0.03    0.15 
   2   3 -14   -0.04    0.14 
   2   3 -14    0.03    0.14 
   1   3 -14    0.32    0.16 
   1   3 -14    0.40    0.18 
   0   3 -14    0.10    0.14 
   0   3 -14   -0.10    0.12 
  -1   3 -14    0.18    0.14 
  -1   3 -14    0.68    0.20 
  -2   3 -14   -0.07    0.14 
  -2   3 -14    0.17    0.16 
  -3   3 -14    0.16    0.16 
  -3   3 -14    0.13    0.18 
   4   2 -14    0.01    0.18 
   3   2 -14    0.27    0.15 
   3   2 -14   -0.08    0.14 
   2   2 -14    0.20    0.15 
   2   2 -14    0.29    0.16 
   1   2 -14   -0.01    0.14 
   1   2 -14    0.03    0.12 
   0   2 -14    0.95    0.22 
   0   2 -14    0.27    0.17 
  -1   2 -14    0.07    0.13 
  -1   2 -14    0.16    0.15 
   1  -2  14    0.04    0.19 
  -2   2 -14    0.62    0.19 
  -2   2 -14    1.08    0.23 
   2  -2  14    0.55    0.23 
  -3   2 -14    0.40    0.21 
  -3   2 -14    0.18    0.18 
   3  -2  14    0.55    0.22 
   4   1 -14   -0.15    0.15 
   4   1 -14    0.09    0.18 
   3   1 -14    0.19    0.18 
   3   1 -14    0.06    0.13 
   2   1 -14    0.11    0.14 
   2   1 -14   -0.01    0.15 
   1   1 -14   -0.03    0.13 
   1   1 -14    0.03    0.08 
   1   1 -14    0.20    0.14 
  -1  -1  14    0.23    0.16 
   0   1 -14    1.52    0.25 
   0   1 -14    1.14    0.15 
   0   1 -14    1.47    0.26 
   0  -1  14    1.23    0.25 
  -1   1 -14    3.61    0.38 
  -1   1 -14    4.41    0.37 
   1  -1  14    4.59    0.44 
  -2   1 -14    0.00    0.15 
  -2   1 -14   -0.03    0.13 
   2  -1  14   -0.04    0.15 
  -3   1 -14    0.01    0.14 
  -3   1 -14    0.19    0.17 
   3  -1  14   -0.05    0.16 
   4   0 -14   -0.11    0.14 
   4   0 -14   -0.12    0.17 
   3   0 -14    0.00    0.15 
   3   0 -14    0.15    0.15 
   3   0 -14    0.23    0.14 
   2   0 -14   -0.04    0.12 
   2   0 -14    0.15    0.17 
  -2   0  14    0.17    0.16 
   1   0 -14    0.22    0.15 
   1   0 -14    0.46    0.20 
  -1   0  14    0.33    0.16 
   0   0 -14    0.72    0.22 
   0   0 -14    0.73    0.14 
   0   0 -14    0.51    0.17 
   0   0  14    0.51    0.18 
  -1   0 -14    0.57    0.18 
  -1   0 -14    0.66    0.21 
  -1   0 -14    0.41    0.12 
   1   0  14    0.30    0.18 
  -2   0 -14    0.12    0.15 
  -2   0 -14    0.18    0.15 
   2   0  14    0.07    0.16 
  -3   0 -14    0.19    0.18 
   3   0  14   -0.06    0.18 
   4  -1 -14    0.21    0.20 
   3  -1 -14    0.16    0.16 
   3  -1 -14    0.20    0.18 
  -3   1  14   -0.14    0.13 
   2  -1 -14    0.61    0.21 
   2  -1 -14    0.38    0.16 
  -2   1  14    0.57    0.18 
   1  -1 -14   -0.03    0.14 
   1  -1 -14   -0.04    0.12 
  -1   1  14   -0.08    0.12 
   0  -1 -14    0.27    0.16 
   0  -1 -14   -0.05    0.13 
   0   1  14    0.21    0.15 
  -1  -1 -14    0.43    0.16 
  -1  -1 -14    0.22    0.17 
   1   1  14    0.20    0.17 
  -2  -1 -14    0.07    0.15 
   2   1  14   -0.22    0.14 
  -3  -1 -14   -0.04    0.15 
   3   1  14    0.05    0.18 
   4  -2 -14    0.12    0.19 
  -4   2  14   -0.01    0.16 
   3  -2 -14   -0.04    0.13 
   3  -2 -14   -0.01    0.17 
  -3   2  14    0.09    0.15 
   2  -2 -14    0.29    0.19 
   2  -2 -14    0.21    0.14 
  -2   2  14    0.19    0.16 
   1  -2 -14    1.76    0.26 
   1  -2 -14    1.97    0.30 
  -1   2  14    1.36    0.25 
   0  -2 -14   -0.10    0.12 
   0   2  14    0.05    0.14 
  -1  -2 -14    0.21    0.17 
   1   2  14    0.27    0.18 
  -2  -2 -14    0.53    0.21 
   2   2  14    0.59    0.21 
   3  -3 -14    0.14    0.18 
  -3   3  14    0.07    0.15 
   2  -3 -14    0.52    0.21 
  -2   3  14    0.37    0.19 
   1  -3 -14    0.00    0.14 
  -1   3  14   -0.17    0.12 
   0  -3 -14    0.16    0.16 
   0   3  14    0.01    0.14 
   1   3  14   -0.08    0.14 
   2  -4 -14   -0.03    0.21 
  -2   4  14   -0.22    0.14 
  -1   4  14    0.23    0.17 
   0   4  14   -0.22    0.14 
   1   3 -15   -0.02    0.13 
   1   3 -15    0.01    0.17 
   0   3 -15    0.16    0.16 
   0   3 -15    0.14    0.18 
  -1   3 -15    0.68    0.23 
  -1   3 -15    0.45    0.20 
   2   2 -15    0.04    0.17 
   2   2 -15    0.01    0.14 
   1   2 -15    0.19    0.15 
   1   2 -15    0.04    0.16 
   0   2 -15    0.02    0.16 
   0   2 -15   -0.13    0.13 
  -1   2 -15   -0.01    0.14 
  -1   2 -15   -0.01    0.16 
  -2   2 -15   -0.09    0.16 
  -2   2 -15   -0.10    0.15 
   2   1 -15   -0.18    0.14 
   2   1 -15    0.08    0.16 
   1   1 -15    0.09    0.15 
   1   1 -15    0.12    0.17 
   0   1 -15    0.37    0.19 
   0   1 -15    0.18    0.18 
  -1   1 -15    0.62    0.21 
  -1   1 -15    0.67    0.22 
   1  -1  15    0.69    0.24 
  -2   1 -15    0.55    0.21 
  -2   1 -15    0.96    0.24 
   2  -1  15    0.50    0.22 
   3   0 -15    0.16    0.15 
   2   0 -15    0.05    0.13 
   2   0 -15    0.20    0.18 
   1   0 -15    0.21    0.19 
   1   0 -15    0.02    0.14 
  -1   0  15    0.00    0.16 
   0   0 -15    2.01    0.32 
   0   0 -15    1.51    0.26 
   0   0  15    1.23    0.26 
  -1   0 -15    0.03    0.16 
  -1   0 -15    0.03    0.14 
   1   0  15   -0.04    0.16 
  -2   0 -15   -0.04    0.16 
   2   0  15    0.08    0.18 
   2  -1 -15    0.35    0.18 
   2  -1 -15    0.56    0.21 
  -2   1  15    0.50    0.21 
   1  -1 -15   -0.03    0.16 
   1  -1 -15   -0.04    0.13 
  -1   1  15    0.11    0.16 
   0  -1 -15    0.62    0.19 
   0  -1 -15    0.53    0.21 
   0   1  15    0.42    0.21 
  -1  -1 -15    0.04    0.15 
   1   1  15   -0.07    0.17 
   2  -2 -15   -0.11    0.16 
  -2   2  15   -0.21    0.13 
   1  -2 -15    0.05    0.18 
  -1   2  15   -0.27    0.14 
   0  -2 -15    0.08    0.17 
   0   2  15   -0.14    0.13 
   0   0   0    0.00    0.00 
;
_shelx_hkl_checksum              65127
loop_
_space_group_symop_operation_xyz
'x, y, z'
'-x, -y, -z'
loop_
_atom_site_label
_atom_site_type_symbol
_atom_site_fract_x
_atom_site_fract_y
_atom_site_fract_z
_atom_site_U_iso_or_equiv
_atom_site_adp_type
_atom_site_occupancy
_atom_site_site_symmetry_order
_atom_site_calc_flag
_atom_site_refinement_flags_posn
_atom_site_refinement_flags_adp
C8 C 0.5988(4) 0.3954(3) 0.6588(2) 0.0488(6) Uani 1 1 d . .
C9 C 0.3179(4) 0.2964(3) 0.5390(2) 0.0459(6) Uani 1 1 d . .
C10 C 0.2391(3) 0.1507(3) 0.46156(19) 0.0398(5) Uani 1 1 d . .
C11 C 0.0548(3) 0.1382(3) 0.39881(18) 0.0372(5) Uani 1 1 d . .
C12 C 0.0118(4) 0.0126(3) 0.3200(2) 0.0477(6) Uani 1 1 d . .
H12 H 0.0974 -0.0579 0.3101 0.057 Uiso 1 1 calc R U
C13 C -0.1547(4) -0.0089(3) 0.2567(2) 0.0545(7) Uani 1 1 d . .
H13 H -0.1826 -0.0933 0.2043 0.065 Uiso 1 1 calc R U
C14 C -0.2801(3) 0.0972(3) 0.2723(2) 0.0479(6) Uani 1 1 d . .
C15 C -0.2446(3) 0.2203(3) 0.3498(2) 0.0465(6) Uani 1 1 d . .
H15 H -0.3319 0.2894 0.3595 0.056 Uiso 1 1 calc R U
C16 C -0.0768(3) 0.2412(3) 0.4139(2) 0.0423(6) Uani 1 1 d . .
H16 H -0.0516 0.3244 0.4674 0.051 Uiso 1 1 calc R U
Cl1 Cl -0.48902(11) 0.07081(11) 0.19005(8) 0.0832(3) Uani 1 1 d . .
N1 N 0.4866(3) 0.2794(3) 0.59122(17) 0.0463(5) Uani 1 1 d . .
O1 O 0.7526(3) 0.3409(2) 0.69431(16) 0.0605(6) Uani 1 1 d . .
O2 O 0.5640(3) 0.5254(2) 0.6807(2) 0.0834(8) Uani 1 1 d . .
O3 O 0.2409(3) 0.4115(2) 0.5502(2) 0.0782(7) Uani 1 1 d . .
O4 O 0.3367(2) 0.0472(2) 0.45312(15) 0.0558(5) Uani 1 1 d . .
C6 C 0.9827(4) 0.3751(3) 0.8486(2) 0.0510(7) Uani 1 1 d . .
C7 C 0.8953(5) 0.4542(4) 0.7579(3) 0.0799(11) Uani 1 1 d . .
H7A H 0.8366 0.5407 0.7885 0.096 Uiso 1 1 calc R U
H7B H 0.9932 0.4986 0.7103 0.096 Uiso 1 1 calc R U
C1 C 0.8761(6) 0.2739(4) 0.9133(3) 0.0782(10) Uani 1 1 d . .
H1 H 0.7453 0.2493 0.8988 0.094 Uiso 1 1 calc R U
C5 C 1.1758(5) 0.4107(4) 0.8680(4) 0.0884(12) Uani 1 1 d . .
H5 H 1.2488 0.4783 0.8230 0.106 Uiso 1 1 calc R U
C4 C 1.2641(8) 0.3445(6) 0.9569(6) 0.151(3) Uani 1 1 d . .
H4 H 1.3945 0.3674 0.9731 0.182 Uiso 1 1 calc R U
C3 C 1.1449(11) 0.2441(7) 1.0176(5) 0.151(3) Uani 1 1 d . .
H3 H 1.1988 0.1980 1.0760 0.181 Uiso 1 1 calc R U
C2 C 0.9577(10) 0.2087(5) 0.9983(3) 0.1232(19) Uani 1 1 d . .
H2 H 0.8841 0.1403 1.0425 0.148 Uiso 1 1 calc R U
H1N H 0.522(3) 0.197(3) 0.580(2) 0.039(7) Uiso 1 1 d . .
loop_
_atom_site_aniso_label
_atom_site_aniso_U_11
_atom_site_aniso_U_22
_atom_site_aniso_U_33
_atom_site_aniso_U_23
_atom_site_aniso_U_13
_atom_site_aniso_U_12
C8 0.0501(15) 0.0456(14) 0.0516(15) -0.0035(12) -0.0054(12) 0.0142(12)
C9 0.0462(14) 0.0419(13) 0.0513(15) -0.0014(11) -0.0066(11) 0.0158(11)
C10 0.0431(13) 0.0372(12) 0.0420(13) 0.0039(10) 0.0006(10) 0.0151(10)
C11 0.0389(12) 0.0336(11) 0.0405(12) 0.0032(10) 0.0003(10) 0.0105(9)
C12 0.0482(14) 0.0456(14) 0.0520(15) -0.0074(11) -0.0042(11) 0.0210(11)
C13 0.0542(16) 0.0539(15) 0.0544(16) -0.0140(12) -0.0105(12) 0.0145(13)
C14 0.0384(13) 0.0531(15) 0.0519(15) 0.0040(12) -0.0057(11) 0.0089(11)
C15 0.0382(13) 0.0424(13) 0.0615(16) 0.0039(12) 0.0003(11) 0.0145(11)
C16 0.0408(13) 0.0361(12) 0.0512(14) -0.0020(10) -0.0002(11) 0.0119(10)
Cl1 0.0550(5) 0.1025(7) 0.0900(6) -0.0149(5) -0.0306(4) 0.0218(4)
N1 0.0489(13) 0.0389(12) 0.0524(13) -0.0063(10) -0.0111(10) 0.0168(10)
O1 0.0652(12) 0.0429(10) 0.0712(13) -0.0093(9) -0.0328(10) 0.0156(9)
O2 0.0735(14) 0.0561(13) 0.1197(19) -0.0334(12) -0.0317(13) 0.0294(11)
O3 0.0659(13) 0.0555(12) 0.1136(18) -0.0315(12) -0.0345(12) 0.0323(11)
O4 0.0532(11) 0.0474(10) 0.0701(12) -0.0111(9) -0.0154(9) 0.0272(9)
C6 0.0562(16) 0.0421(14) 0.0536(15) -0.0121(12) -0.0155(13) 0.0146(12)
C7 0.091(2) 0.0486(16) 0.090(2) 0.0021(16) -0.0449(19) -0.0049(16)
C1 0.099(3) 0.067(2) 0.074(2) 0.0026(17) 0.0118(19) 0.0290(19)
C5 0.063(2) 0.067(2) 0.128(3) -0.038(2) -0.024(2) 0.0108(16)
C4 0.104(4) 0.106(4) 0.233(7) -0.100(4) -0.111(4) 0.051(3)
C3 0.226(8) 0.111(4) 0.122(4) -0.063(3) -0.118(5) 0.100(5)
C2 0.231(7) 0.093(3) 0.059(2) 0.007(2) 0.008(3) 0.068(4)
loop_
_atom_type_symbol
_atom_type_description
_atom_type_scat_dispersion_real
_atom_type_scat_dispersion_imag
_atom_type_scat_source
C C 0.0033 0.0016 'International Tables Vol C Tables 4.2.6.8 and 6.1.1.4'
H H 0.0000 0.0000 'International Tables Vol C Tables 4.2.6.8 and 6.1.1.4'
N N 0.0061 0.0033 'International Tables Vol C Tables 4.2.6.8 and 6.1.1.4'
O O 0.0106 0.0060 'International Tables Vol C Tables 4.2.6.8 and 6.1.1.4'
Cl Cl 0.1484 0.1585 'International Tables Vol C Tables 4.2.6.8 and 6.1.1.4'
loop_
_geom_angle_atom_site_label_1
_geom_angle_atom_site_label_2
_geom_angle_atom_site_label_3
_geom_angle
O2 C8 O1 125.2(2)
O2 C8 N1 125.5(2)
O1 C8 N1 109.4(2)
O3 C9 N1 124.7(2)
O3 C9 C10 123.6(2)
N1 C9 C10 111.7(2)
O4 C10 C11 121.3(2)
O4 C10 C9 116.8(2)
C11 C10 C9 121.90(19)
C12 C11 C16 118.7(2)
C12 C11 C10 116.4(2)
C16 C11 C10 124.9(2)
C13 C12 C11 121.1(2)
C13 C12 H12 119.5
C11 C12 H12 119.5
C12 C13 C14 118.7(2)
C12 C13 H13 120.6
C14 C13 H13 120.6
C15 C14 C13 122.0(2)
C15 C14 Cl1 119.69(19)
C13 C14 Cl1 118.4(2)
C14 C15 C16 119.2(2)
C14 C15 H15 120.4
C16 C15 H15 120.4
C15 C16 C11 120.4(2)
C15 C16 H16 119.8
C11 C16 H16 119.8
C9 N1 C8 125.0(2)
C9 N1 H1N 116.2(18)
C8 N1 H1N 118.8(18)
C8 O1 C7 116.2(2)
C1 C6 C5 120.1(3)
C1 C6 C7 122.0(3)
C5 C6 C7 117.9(3)
O1 C7 C6 110.4(2)
O1 C7 H7A 109.6
C6 C7 H7A 109.6
O1 C7 H7B 109.6
C6 C7 H7B 109.6
H7A C7 H7B 108.1
C2 C1 C6 121.0(4)
C2 C1 H1 119.5
C6 C1 H1 119.5
C6 C5 C4 119.9(5)
C6 C5 H5 120.1
C4 C5 H5 120.1
C3 C4 C5 115.8(4)
C3 C4 H4 122.1
C5 C4 H4 122.1
C2 C3 C4 124.4(5)
C2 C3 H3 117.8
C4 C3 H3 117.8
C3 C2 C1 118.9(5)
C3 C2 H2 120.6
C1 C2 H2 120.6
loop_
_geom_bond_atom_site_label_1
_geom_bond_atom_site_label_2
_geom_bond_distance
C8 O2 1.195(3)
C8 O1 1.322(3)
C8 N1 1.382(3)
C9 O3 1.203(3)
C9 N1 1.369(3)
C9 C10 1.539(3)
C10 O4 1.211(3)
C10 C11 1.479(3)
C11 C12 1.390(3)
C11 C16 1.395(3)
C12 C13 1.370(3)
C12 H12 0.9300
C13 C14 1.382(4)
C13 H13 0.9300
C14 C15 1.362(4)
C14 Cl1 1.739(2)
C15 C16 1.384(3)
C15 H15 0.9300
C16 H16 0.9300
N1 H1N 0.79(2)
O1 C7 1.456(3)
C6 C1 1.363(4)
C6 C5 1.370(4)
C6 C7 1.489(4)
C7 H7A 0.9700
C7 H7B 0.9700
C1 C2 1.355(5)
C1 H1 0.9300
C5 C4 1.417(7)
C5 H5 0.9300
C4 C3 1.375(9)
C4 H4 0.9300
C3 C2 1.329(8)
C3 H3 0.9300
C2 H2 0.9300
loop_
_geom_torsion_atom_site_label_1
_geom_torsion_atom_site_label_2
_geom_torsion_atom_site_label_3
_geom_torsion_atom_site_label_4
_geom_torsion
O3 C9 C10 O4 175.6(3)
N1 C9 C10 O4 -3.2(3)
O3 C9 C10 C11 -3.4(4)
N1 C9 C10 C11 177.8(2)
O4 C10 C11 C12 -8.0(4)
C9 C10 C11 C12 171.0(2)
O4 C10 C11 C16 171.4(2)
C9 C10 C11 C16 -9.6(4)
C16 C11 C12 C13 1.1(4)
C10 C11 C12 C13 -179.4(2)
C11 C12 C13 C14 0.2(4)
C12 C13 C14 C15 -1.2(4)
C12 C13 C14 Cl1 178.9(2)
C13 C14 C15 C16 0.8(4)
Cl1 C14 C15 C16 -179.25(19)
C14 C15 C16 C11 0.5(4)
C12 C11 C16 C15 -1.5(4)
C10 C11 C16 C15 179.2(2)
O3 C9 N1 C8 -4.3(5)
C10 C9 N1 C8 174.6(2)
O2 C8 N1 C9 0.0(5)
O1 C8 N1 C9 -179.0(2)
O2 C8 O1 C7 -4.9(4)
N1 C8 O1 C7 174.1(3)
C8 O1 C7 C6 142.6(3)
C1 C6 C7 O1 -44.7(4)
C5 C6 C7 O1 137.3(3)
C5 C6 C1 C2 0.9(5)
C7 C6 C1 C2 -177.1(3)
C1 C6 C5 C4 -1.2(5)
C7 C6 C5 C4 176.9(3)
C6 C5 C4 C3 1.0(6)
C5 C4 C3 C2 -0.6(8)
C4 C3 C2 C1 0.3(8)
C6 C1 C2 C3 -0.5(6)
