#------------------------------------------------------------------------------
#$Date: 2017-05-05 00:22:31 +0300 (Fri, 05 May 2017) $
#$Revision: 196078 $
#$URL: file:///home/coder/svn-repositories/cod/cif/1/54/59/1545944.cif $
#------------------------------------------------------------------------------
#
# This file is available in the Crystallography Open Database (COD),
# http://www.crystallography.net/
#
# All data on this site have been placed in the public domain by the
# contributors.
#
data_1545944
loop_
_publ_author_name
'Haidasz, Evan A.'
'Pratt, Derek A.'
_publ_section_title
;
 Diazaphenoxazines and Diazaphenothiazines: Synthesis of the
 &quot;Correct&quot; Isomers Reveals They Are Highly Reactive
 Radical-Trapping&#x00A0;Antioxidants.
;
_journal_issue                   7
_journal_name_full               'Organic letters'
_journal_page_first              1854
_journal_page_last               1857
_journal_paper_doi               10.1021/acs.orglett.7b00615
_journal_volume                  19
_journal_year                    2017
_chemical_formula_sum            'C14 H14 N4 S'
_chemical_formula_weight         270.35
_space_group_crystal_system      monoclinic
_space_group_IT_number           4
_space_group_name_Hall           'P 2yb'
_space_group_name_H-M_alt        'P 1 21 1'
_symmetry_space_group_name_Hall  'P 2yb'
_symmetry_space_group_name_H-M   'P 1 21 1'
_atom_sites_solution_hydrogens   mixed
_audit_creation_method           SHELXL-2014/7
_cell_angle_alpha                90
_cell_angle_beta                 96.71(3)
_cell_angle_gamma                90
_cell_formula_units_Z            2
_cell_length_a                   10.013(3)
_cell_length_b                   5.4697(17)
_cell_length_c                   11.876(4)
_cell_measurement_reflns_used    1305
_cell_measurement_temperature    296(2)
_cell_measurement_theta_max      22.94
_cell_measurement_theta_min      2.52
_cell_volume                     646.0(4)
_computing_cell_refinement       'APEX II (Bruker, 2009)'
_computing_data_collection       'APEX II (Bruker, 2009)'
_computing_data_reduction        'SAINT (Bruker)'
_computing_molecular_graphics    'Mercury (Macrae et al., 2008)'
_computing_publication_material  'CIFTAB (Sheldrick, 1997)'
_computing_structure_refinement  'SHELXL-2014/7 (Sheldrick, 2014)'
_computing_structure_solution    'XT (Sheldrick, 2014)'
_diffrn_ambient_temperature      296(2)
_diffrn_measured_fraction_theta_full 1.000
_diffrn_measured_fraction_theta_max 0.995
_diffrn_measurement_device_type  'Bruker APEX-II CCD'
_diffrn_measurement_method       '\f and \w scans'
_diffrn_radiation_type           MoK\a
_diffrn_radiation_wavelength     0.71073
_diffrn_reflns_av_R_equivalents  0.0288
_diffrn_reflns_av_unetI/netI     0.0428
_diffrn_reflns_Laue_measured_fraction_full 1.000
_diffrn_reflns_Laue_measured_fraction_max 0.995
_diffrn_reflns_limit_h_max       12
_diffrn_reflns_limit_h_min       -11
_diffrn_reflns_limit_k_max       6
_diffrn_reflns_limit_k_min       -5
_diffrn_reflns_limit_l_max       14
_diffrn_reflns_limit_l_min       -11
_diffrn_reflns_number            4861
_diffrn_reflns_point_group_measured_fraction_full 0.890
_diffrn_reflns_point_group_measured_fraction_max 0.881
_diffrn_reflns_theta_full        25.242
_diffrn_reflns_theta_max         25.475
_diffrn_reflns_theta_min         1.726
_exptl_absorpt_coefficient_mu    0.242
_exptl_absorpt_correction_T_max  0.7452
_exptl_absorpt_correction_T_min  0.6505
_exptl_absorpt_correction_type   multi-scan
_exptl_absorpt_process_details   'SADABS, Bruker (2003)'
_exptl_crystal_colour            yellow
_exptl_crystal_density_diffrn    1.390
_exptl_crystal_description       needle
_exptl_crystal_F_000             284
_exptl_crystal_size_max          0.710
_exptl_crystal_size_mid          0.149
_exptl_crystal_size_min          0.048
_refine_diff_density_max         0.168
_refine_diff_density_min         -0.203
_refine_diff_density_rms         0.042
_refine_ls_abs_structure_details
;
 Flack x determined using 491 quotients [(I+)-(I-)]/[(I+)+(I-)]
 (Parsons, Flack and Wagner, Acta Cryst. B69 (2013) 249-259).
;
_refine_ls_abs_structure_Flack   0.17(5)
_refine_ls_extinction_method     none
_refine_ls_goodness_of_fit_ref   1.044
_refine_ls_hydrogen_treatment    mixed
_refine_ls_matrix_type           full
_refine_ls_number_parameters     175
_refine_ls_number_reflns         2114
_refine_ls_number_restraints     1
_refine_ls_restrained_S_all      1.044
_refine_ls_R_factor_all          0.0717
_refine_ls_R_factor_gt           0.0432
_refine_ls_shift/su_max          0.000
_refine_ls_shift/su_mean         0.000
_refine_ls_structure_factor_coef Fsqd
_refine_ls_weighting_details
'w=1/[\s^2^(Fo^2^)+(0.0449P)^2^+0.2206P] where P=(Fo^2^+2Fc^2^)/3'
_refine_ls_weighting_scheme      calc
_refine_ls_wR_factor_gt          0.0968
_refine_ls_wR_factor_ref         0.1086
_reflns_Friedel_coverage         0.591
_reflns_Friedel_fraction_full    0.752
_reflns_Friedel_fraction_max     0.738
_reflns_number_gt                1534
_reflns_number_total             2114
_reflns_threshold_expression     'I > 2\s(I)'
_cod_data_source_file            ol7b00615_si_003.cif
_cod_data_source_block           shelx
_cod_database_code               1545944
_shelx_shelxl_version_number     2014/7
_shelx_space_group_comment
;
The symmetry employed for this shelxl refinement is uniquely defined
by the following loop, which should always be used as a source of
symmetry information in preference to the above space-group names.
They are only intended as comments.
;
_shelx_estimated_absorpt_t_min   0.847
_shelx_estimated_absorpt_t_max   0.988
_shelx_res_file
;

    shelx.res created by SHELXL-2014/7

TITL dp017 in P2(1)
CELL  0.71073  10.0126   5.4697  11.8765   90.000   96.715   90.000
ZERR     2.00   0.0034   0.0017   0.0044    0.000    0.025    0.000
LATT  -1
SYMM  - X, 1/2 + Y, - Z
SFAC  C    H    N    S
UNIT  28 28 8 2
MERG   2
OMIT    -3.00 180.00
EQIV $1 -x+1, y-1/2, -z+1
HTAB C9 N2_$1
HTAB N1 N2_$1
HTAB C9 N2_$1
HTAB N1 N2_$1
FMAP   2
PLAN    3
SIZE     0.048   0.149   0.710
ACTA
BOND   $H
CONF
L.S.  10
TEMP    23.00
WGHT    0.044900    0.220600
FVAR       1.10945
S1    4    0.450437    0.285634    0.875804    11.00000    0.07086    0.06520 =
         0.03789    0.00608    0.00347   -0.01411
C1    1    0.334871    0.097980    0.792969    11.00000    0.04658    0.04151 =
         0.04727    0.00035    0.01146    0.00212
C2    1    0.281121   -0.095828    0.846260    11.00000    0.05769    0.06062 =
         0.05921    0.01528    0.00832   -0.00132
AFIX  43
H2    2    0.308492   -0.124289    0.922680    11.00000   -1.20000
AFIX   0
C3    1    0.186923   -0.249312    0.788032    11.00000    0.05635    0.06495 =
         0.08485    0.01625    0.00916   -0.01424
AFIX  43
H3    2    0.150583   -0.377820    0.825720    11.00000   -1.20000
AFIX   0
C4    1    0.147823   -0.212469    0.676579    11.00000    0.05313    0.05470 =
         0.09535   -0.00909    0.00741   -0.01185
AFIX  43
H4    2    0.085474   -0.317168    0.637545    11.00000   -1.20000
AFIX   0
C5    1    0.199823   -0.020590    0.620419    11.00000    0.04919    0.05201 =
         0.06814   -0.01045    0.01171   -0.00669
AFIX  43
H5    2    0.172170    0.003630    0.543725    11.00000   -1.20000
AFIX   0
C6    1    0.293500    0.137326    0.677707    11.00000    0.03976    0.04213 =
         0.04958   -0.00254    0.01057    0.00323
C7    1    0.506368    0.476176    0.774196    11.00000    0.04209    0.04388 =
         0.03638    0.00235    0.00713    0.00117
C8    1    0.450102    0.473190    0.660883    11.00000    0.03983    0.04703 =
         0.03086   -0.00410    0.00528   -0.00118
C9    1    0.508064    0.632772    0.590756    11.00000    0.05530    0.05140 =
         0.03380   -0.00054    0.00146   -0.00516
AFIX  43
H9    2    0.473638    0.636967    0.514581    11.00000   -1.20000
AFIX   0
C10   1    0.653968    0.773131    0.736050    11.00000    0.04670    0.04399 =
         0.03521   -0.00202   -0.00020   -0.00106
C11   1    0.806117    1.109412    0.701149    11.00000    0.04862    0.05648 =
         0.05881   -0.00100    0.00481   -0.00726
AFIX  23
H11A  2    0.734608    1.216521    0.668555    11.00000   -1.20000
H11B  2    0.847391    1.032178    0.640325    11.00000   -1.20000
AFIX   0
C12   1    0.910045    1.250747    0.779779    11.00000    0.05727    0.06511 =
         0.08606   -0.00945    0.00561   -0.01167
AFIX  23
H12A  2    1.000408    1.198625    0.769449    11.00000   -1.20000
H12B  2    0.902289    1.424928    0.765106    11.00000   -1.20000
AFIX   0
C13   1    0.879884    1.194469    0.894397    11.00000    0.10620    0.08931 =
         0.07885   -0.00856   -0.00427   -0.04088
AFIX  23
H13A  2    0.824699    1.322819    0.921229    11.00000   -1.20000
H13B  2    0.962631    1.183999    0.945536    11.00000   -1.20000
AFIX   0
C14   1    0.806329    0.954665    0.891957    11.00000    0.06742    0.06580 =
         0.05250   -0.00097   -0.01039   -0.00926
AFIX  23
H14A  2    0.866796    0.821878    0.917090    11.00000   -1.20000
H14B  2    0.733783    0.960069    0.939349    11.00000   -1.20000
AFIX   0
N2    3    0.611086    0.782442    0.625597    11.00000    0.05362    0.05482 =
         0.03583    0.00055    0.00150   -0.01110
N3    3    0.608106    0.622903    0.812237    11.00000    0.04706    0.04931 =
         0.03344    0.00263    0.00018   -0.00136
N4    3    0.755068    0.927633    0.774173    11.00000    0.05479    0.05515 =
         0.04308   -0.00074   -0.00421   -0.01194
N1    3    0.342406    0.330290    0.619014    11.00000    0.05415    0.05803 =
         0.03678   -0.00281    0.00518   -0.01446
H1    2    0.324999    0.323401    0.549430    11.00000   -1.20000
HKLF    4

REM  dp017 in P2(1)
REM R1 =  0.0432 for    1534 Fo > 4sig(Fo)  and  0.0717 for all    2114 data
REM    175 parameters refined using      1 restraints

END

WGHT      0.0446      0.2217

REM Highest difference peak  0.168,  deepest hole -0.203,  1-sigma level  0.042
Q1    1   0.6014  0.5956  0.9598  11.00000  0.05    0.17
Q2    1   0.5574  0.7735  0.9199  11.00000  0.05    0.17
Q3    1   0.8939  1.3302  1.0023  11.00000  0.05    0.16
;
_shelx_res_checksum              43212
_shelx_hkl_file
;
  -1   0   0 4306.37   61.59
  -1   0   0 4234.68   61.99
  -1   0   0 4526.55   61.99
  -2   0   0  415.56    7.20
  -2   0   0  410.16    7.00
  -2   0   0  411.66    8.20
  -3   0   0 1194.08   18.90
  -3   0   0 1207.68   17.90
   3   0   0 1207.28   18.30
  -3   0   0 1189.28   18.00
   4   0   0   14.20    3.60
   4   0   0   11.80    5.50
  -4   0   0   12.40    3.70
  -4   0   0   13.60    2.30
   5   0   0    2.30    4.00
  -5   0   0    1.40    2.40
   5   0   0   -2.00    5.60
   6   0   0  131.69    7.00
   6   0   0  141.59    9.90
  -6   0   0  135.59    5.50
   7   0   0   25.10    7.50
  -7   0   0   28.20    3.10
   7   0   0   27.90    5.10
  -8   0   0   34.80    3.70
   8   0   0   35.20    6.20
   8   0   0   31.40    8.70
   9   0   0    1.60    9.00
   9   0   0    8.60    6.80
  -9   0   0    2.70    3.50
  10   0   0    0.10   10.30
  10   0   0  -11.60    7.00
 -10   0   0    2.60    3.60
  11   0   0   17.40    8.20
  11   0   0   32.90   11.70
   0   1   0   -1.80    1.60
   0   1   0   -2.10    2.90
  -1  -1   0  279.07    4.80
  -1  -1   0  271.17    5.00
  -1  -1   0  275.17    4.50
   1   1   0  274.87    4.60
   1   1   0  259.77    5.20
  -1   1   0  278.17    5.70
  -1   1   0  262.27    6.60
  -2  -1   0 9828.32  139.59
  -2  -1   0 9847.81  138.69
  -2   1   0 9999.00  141.09
   2   1   0 9777.92  137.89
   2   1   0 9552.14  137.29
  -2   1   0 9686.53  139.19
  -3  -1   0  445.76    8.90
  -3  -1   0  455.15    7.80
   3   1   0  446.66    9.90
  -3   1   0  448.56    8.60
   3   1   0  454.85    8.30
   4  -1   0  353.46    8.10
  -4  -1   0  345.27    8.50
  -4  -1   0  353.56    7.10
   4   1   0  349.77   10.00
  -4   1   0  351.36    7.80
   4   1   0  346.17    7.60
   5  -1   0  139.89    9.90
  -5  -1   0  152.88    5.40
   5  -1   0  146.99    6.70
  -5  -1   0  150.28    7.00
  -5   1   0  154.58    5.90
   5   1   0  154.18    6.10
   5   1   0  163.38    8.50
   6  -1   0    4.00    4.40
  -6  -1   0    1.30    2.20
  -6  -1   0   -0.30    4.00
   6  -1   0   -1.00    6.30
  -6   1   0    3.60    3.00
   6   1   0    4.80    4.00
   6   1   0   -7.40    6.00
   7  -1   0   56.59    8.20
   7  -1   0   34.50    5.40
  -7  -1   0   34.30    3.00
   7   1   0   51.39    7.30
  -7   1   0   30.30    3.70
   7   1   0   47.00    5.20
  -8  -1   0   83.69    5.70
   8  -1   0   76.09    9.40
   8  -1   0   68.99    6.80
  -8   1   0   82.69    7.10
   8   1   0   67.49    8.50
   8   1   0   75.69    6.50
   9  -1   0   25.30   10.30
   9  -1   0   37.10    7.20
   9   1   0   36.70    7.00
  -9   1   0   30.30    4.40
   9   1   0   28.70    9.60
  10  -1   0    1.10    7.20
  10  -1   0    3.50   10.20
 -10   1   0   -3.50    4.10
  11  -1   0   25.10   12.00
  11  -1   0   33.60    8.60
 -11   1   0   13.50    4.80
   0   2   0  994.90   16.30
   0   2   0  938.71   16.20
   0   2   0  934.91   15.00
  -1  -2   0   57.99    1.90
  -1  -2   0   58.49    2.60
   1   2   0   70.59    3.80
  -1   2   0   38.10    4.10
   1   2   0   51.19    4.70
  -1   2   0   53.79    4.70
   1   2   0   69.09    5.30
  -2  -2   0  320.87    6.30
  -2  -2   0  327.97    5.60
   2   2   0  321.87    8.40
  -2   2   0  311.67    8.80
  -2   2   0  341.07    7.60
  -3  -2   0   56.99    4.60
  -3  -2   0   50.09    3.20
   3   2   0   56.89    4.10
  -3   2   0   38.60    4.70
  -3   2   0   59.09    5.30
   3   2   0   53.79    3.70
   4  -2   0  708.43   12.60
  -4  -2   0  711.33   11.60
   4  -2   0  704.43   14.50
  -4  -2   0  698.73   12.80
   4   2   0  716.83   11.80
  -4   2   0  687.23   13.80
  -4   2   0  708.53   13.10
   4   2   0  705.53   13.40
  -5  -2   0   17.00    2.90
   5  -2   0    4.40    5.90
   5  -2   0   10.90    4.20
  -5  -2   0   13.20    3.90
   5   2   0    4.90    3.40
   5   2   0   13.20    5.20
  -5   2   0    9.70    4.40
  -5   2   0    7.20    3.40
   6  -2   0   30.40    5.00
  -6  -2   0   26.10    4.60
   6  -2   0   24.00    7.00
   6   2   0   26.50    6.60
   6   2   0   30.90    4.40
  -6   2   0   25.50    5.00
  -6   2   0   23.70    3.80
   7  -2   0   26.70    5.60
   7  -2   0   35.80    8.20
  -7   2   0   28.30    4.30
  -7   2   0   25.20    5.60
   8  -2   0   -8.50    8.60
   8  -2   0   -1.20    6.20
  -8   2   0    0.60    4.10
  -8   2   0   -3.60    5.60
   9  -2   0   49.40   10.10
   9  -2   0   19.50    6.70
  -9   2   0   38.50    5.10
  -9   2   0   39.10    6.60
  10  -2   0   62.29   11.10
  10  -2   0   57.79    8.10
 -10   2   0   59.49    5.70
  11  -2   0   20.20   11.30
  11  -2   0   -4.60    7.70
 -11   2   0    6.30    5.20
   0   3   0   -0.90    2.50
   0   3   0   -9.20    4.40
   0   3   0   -2.70    4.00
   1  -3   0   91.09    3.90
   1  -3   0   94.29    2.90
   1  -3   0   91.49    3.10
  -1   3   0   84.29    7.50
  -1   3   0   76.39    7.50
   1   3   0   99.09    4.70
  -1   3   0  100.79    5.50
   1   3   0   93.49    7.20
   1   3   0   98.09    6.50
   2  -3   0  224.28    5.20
  -2  -3   0  224.58    5.00
   2  -3   0  223.88    6.40
  -2  -3   0  221.78    4.30
   2  -3   0  222.18    5.40
   2  -3   0  223.28    4.50
  -2   3   0  222.98    7.10
  -2   3   0  215.98    9.10
   2   3   0  209.38    8.40
  -3  -3   0  104.09    3.60
   3  -3   0  102.49    6.70
   3  -3   0  110.99    5.10
  -3  -3   0  105.79    4.80
  -3   3   0  100.09    6.30
  -3   3   0  109.09    8.00
   3   3   0  110.79    7.30
  -4  -3   0   43.10    3.80
   4  -3   0   46.10    5.60
  -4  -3   0   44.10    3.60
   4  -3   0   36.30    4.10
  -4   3   0   41.20    5.60
  -4   3   0   45.80    4.30
  -5  -3   0   28.90    4.10
   5  -3   0   30.10    4.60
   5  -3   0   32.80    6.40
  -5   3   0   24.00    5.80
  -5   3   0   25.90    4.40
   6  -3   0   11.10    5.10
   6  -3   0   11.60    7.00
  -6   3   0   13.60    4.60
  -6   3   0   16.90    6.00
   7  -3   0    5.70    7.90
   7  -3   0   22.20    5.70
  -7   3   0   28.40    6.50
  -7   3   0   16.60    4.80
   8  -3   0   32.80    8.80
   8  -3   0   44.50    6.40
  -8   3   0   39.80    5.20
  -8   3   0   50.99    6.90
   9  -3   0    0.10    6.50
   9  -3   0   -2.20    8.80
  -9   3   0   -3.80    4.60
  -9   3   0    0.40    6.30
  10  -3   0   10.40    6.90
  10  -3   0    9.90    9.50
 -10   3   0    3.60    6.40
 -10   3   0    4.20    5.10
   0   4   0   89.89    6.00
   0   4   0   88.69    8.60
   0   4   0   63.39    6.60
   1  -4   0   74.99    3.50
   1   4   0   89.59    9.00
   1   4   0   89.59    8.40
   1   4   0   83.49    5.90
  -1   4   0   80.79    7.30
  -1   4   0   70.19    4.60
  -1   4   0   81.49    7.10
   2  -4   0  123.49    4.20
   2  -4   0  116.39    5.60
  -2   4   0  135.59    7.20
   2   4   0  130.59    9.30
  -2   4   0  126.49   10.10
  -2   4   0  118.99   11.30
   3  -4   0  208.58    5.90
   3  -4   0  200.48    7.70
  -3   4   0  204.68    8.50
  -3   4   0  198.48   12.10
  -3   4   0  200.78   10.90
   3   4   0  183.98   11.20
   4  -4   0  122.69    6.10
   4  -4   0  111.29    8.30
  -4   4   0  127.19    8.10
  -4   4   0  119.39    9.00
  -4   4   0  117.89   10.60
   4   4   0  125.69   10.60
   5  -4   0    1.70    4.30
   5  -4   0   17.80    6.30
  -5   4   0   10.30    6.90
  -5   4   0   12.80    4.60
   6  -4   0   11.00    4.90
   6  -4   0   10.70    6.90
  -6   4   0    7.00    6.80
  -6   4   0   10.70    4.60
   7  -4   0   -7.70    7.40
   7  -4   0    5.00    5.30
  -7   4   0    6.60    4.70
  -7   4   0    4.70    6.80
   8  -4   0    6.60    5.90
   8  -4   0    2.00    8.20
  -8   4   0    8.50    5.00
  -8   4   0   14.60    7.00
   9  -4   0   12.90    6.40
   9  -4   0    8.60    8.90
  -9   4   0   31.40    7.70
  -9   4   0   14.50    5.30
   0   5   0   -5.90    4.10
   0   5   0   -5.00    7.80
   0   5   0   -1.40    7.50
  -1   5   0   24.00    8.00
   1   5   0   27.40    8.10
  -1   5   0   35.30    4.90
  -1   5   0   41.00    8.60
  -2   5   0  218.18   10.20
  -2   5   0  241.38   14.90
   2   5   0  201.58   12.50
  -2   5   0  239.18   13.20
  -3   5   0   76.39    6.00
  -3   5   0   81.99    9.80
  -3   5   0   74.09    8.60
   3   5   0   68.69    8.80
   4  -5   0   15.20    4.90
   4  -5   0    9.30    5.90
  -4   5   0    7.70    5.20
   4   5   0   10.00    7.90
  -4   5   0   15.50    8.60
  -4   5   0   19.70    7.70
   5  -5   0    8.60    5.90
   5  -5   0   12.90    4.30
  -5   5   0   15.20    5.40
  -5   5   0   28.90    9.00
  -5   5   0   13.10    7.60
   6  -5   0   15.70    6.90
   6  -5   0   11.00    4.70
  -6   5   0   13.50    5.40
  -6   5   0   14.30    9.10
  -6   5   0    7.90    7.50
   7  -5   0    2.20    5.20
   7  -5   0    5.50    7.40
  -7   5   0    1.40    7.50
  -7   5   0   -1.60    5.20
  -7   5   0   -1.10    8.50
   0   6   0  225.28   15.40
  -1   6   0   66.79    9.30
   1   6   0   88.99   10.50
   2   6   0   13.10    9.80
  -2   6   0    9.50    5.10
  -2   6   0   17.40    9.30
  -2   6   0   12.60    8.50
  -3   6   0   23.10    9.90
  -3   6   0   15.70    5.50
   3   6   0    8.00    9.50
  -3   6   0   13.60    8.80
  -4   6   0   -3.30    5.90
  -4   6   0    2.90   10.30
   4   6   0  -13.20    9.20
  -4   6   0    8.60    8.70
  -5   6   0   11.30    8.70
  12   0  -1   12.40   11.90
  11   0  -1   13.40    8.20
  11   0  -1   23.60   11.50
  10   0  -1   11.70    7.20
  10   0  -1   23.80   11.10
  -9   0   1   16.70    3.60
   9   0  -1   18.90    6.70
   9   0  -1   21.50    9.40
  -8   0   1   13.20    3.20
   8   0  -1    7.50    5.90
   8   0  -1   14.20    8.20
   7   0  -1  245.98    9.00
  -7   0   1  247.98    9.30
  -7   0   1  262.87    7.10
   7   0  -1  278.47   12.10
  -6   0   1  191.78    8.50
  -6   0   1  211.98    6.00
  -6   0   1  205.88    6.20
  -5   0   1   27.30    2.60
  -5   0   1   33.30    3.10
  -5   0   1   32.00    4.50
  -4   0   1   78.09    4.20
  -4   0   1   86.19    5.90
  -4   0   1   85.39    4.30
  -3   0   1    0.30    2.10
  -3   0   1    2.30    1.80
  -3   0   1    6.40    3.50
  -2   0   1  587.54    9.30
  -2   0   1  591.24    9.40
  -2   0   1  594.44   10.40
  -1   0   1   32.60    1.70
  -1   0   1   30.60    2.90
  -1   0   1   33.60    2.00
  -1   0   1   35.40    2.30
   0   0   1   30.00    1.40
   1   0   1  198.78    4.90
   1   0   1  197.28    4.10
   2   0   1  145.89    5.40
   2   0   1  150.18    7.70
   3   0   1  260.47    8.40
   3   0   1  252.37    6.50
   4   0   1   -5.20    5.50
   4   0   1    2.90    3.70
   5   0   1    9.70    4.10
   5   0   1   10.30    6.20
  -5   0  -1    9.30    2.60
  -6   0  -1 1102.29   17.80
   6   0   1 1099.29   18.70
   6   0   1 1111.69   21.10
   7   0   1  880.11   19.30
  -7   0  -1  857.71   15.20
   7   0   1  876.41   16.40
   8   0   1   12.40    5.80
  -8   0  -1    3.10    3.30
   8   0   1    0.90    8.40
  -9   0  -1   13.40    3.90
   9   0   1    0.20    6.30
   9   0   1   -9.30    9.30
  10   0   1   11.30   10.40
 -10   0  -1   -3.70    3.80
  10   0   1   -7.50    7.10
  11   0   1  -10.20    7.30
  11   0   1   10.30   11.30
  11  -1  -1    0.10    7.90
  11  -1  -1    5.00   11.50
 -11   1   1    6.30    4.50
  10  -1  -1   -1.90    7.20
  10  -1  -1   -1.90   10.30
  10   1  -1   -2.70   15.20
 -10   1   1   -6.60    4.00
  10   1  -1    5.10   10.20
   9  -1  -1   75.59   10.80
   9  -1  -1  101.89    7.80
   9   1  -1  101.69   10.30
  -9   1   1   91.99    7.60
   9   1  -1   95.99    7.50
  -8  -1   1  117.39    8.70
   8  -1  -1  123.09    8.90
   8  -1  -1  146.99   12.60
  -8   1   1  119.19    7.30
   8   1  -1  130.59   11.90
   8   1  -1  118.09    8.30
   7  -1  -1   72.99    5.90
  -7  -1   1   75.79    4.60
  -7  -1   1   77.19    5.60
  -7  -1   1   86.49    6.20
  -7   1   1   66.79    5.70
   7   1  -1   78.39    7.80
   7   1  -1   73.09    5.60
  -6  -1   1   81.79    4.10
  -6  -1   1   76.49    6.80
  -6  -1   1   78.49    4.80
  -6   1   1   76.99    5.40
   6   1  -1   72.29    6.00
  -6   1   1   75.59    6.50
   6   1  -1   74.09    6.80
  -5  -1   1   32.20    2.80
  -5  -1   1   34.90    4.40
  -5   1   1   25.70    4.20
  -5   1   1   29.60    3.10
  -5   1   1   30.70    3.10
  -4  -1   1  355.26    8.70
  -4  -1   1  380.66    6.30
  -4  -1   1  345.97    7.10
  -4   1   1  366.16    8.60
  -4   1   1  348.97    7.20
  -4   1   1  348.17    7.80
  -3  -1   1  272.87    4.60
  -3  -1   1  279.87    7.00
  -3  -1   1  272.47    5.60
  -3   1   1  272.37    6.50
  -3   1   1  270.37    5.60
  -3   1   1  277.67    6.70
  -3   1   1  272.27    6.70
  -2  -1   1 7068.99  101.79
  -2  -1   1 7258.67  101.59
  -2   1   1 7192.28  100.89
  -2   1   1 7202.28  101.99
  -2   1   1 7323.87  101.99
  -2   1   1 7038.40  100.79
  -1  -1   1 1005.10   15.10
  -1  -1   1 1008.20   15.50
   1  -1  -1 1042.90   15.10
   1  -1  -1 1065.29   15.60
  -1   1   1 1065.39   15.90
  -1   1   1 1078.29   17.10
  -1   1   1 1043.80   16.40
  -1   1   1 1033.90   15.00
  -1   1   1 1043.80   15.40
   1   1  -1 1061.19   14.90
   0  -1  -1  526.45    8.00
   0  -1   1  516.85    8.20
   0  -1  -1  517.15    7.60
   0  -1   1  526.25    7.80
   0   1   1  496.15    9.70
   0   1   1  524.55    9.50
   0   1  -1  517.05    8.20
   0   1   1  514.85    8.50
   1  -1   1 1709.43   25.50
  -1  -1  -1 1812.22   24.90
  -1  -1  -1 1744.53   25.30
   1  -1   1 1737.73   24.90
  -1   1  -1 1761.02   25.30
   1   1   1 1734.63   24.80
   1   1   1 1718.03   25.80
   1   1   1 1727.03   25.10
   2  -1   1 1725.53   25.40
   2  -1   1 1721.43   26.20
   2   1   1 1772.12   25.20
  -2   1  -1 1748.43   25.60
   2   1   1 1738.13   25.80
   3  -1   1   22.90    4.90
   3  -1   1   19.10    3.30
   3   1   1   23.40    3.00
   3   1   1   22.70    4.40
  -3   1  -1   18.80    2.70
   4  -1   1  911.91   17.20
   4  -1   1  934.01   15.20
   4   1   1  909.91   14.90
   4   1   1  908.11   16.70
  -4   1  -1  907.31   15.20
   5  -1   1  945.81   16.40
   5  -1   1  977.30   18.90
   5   1   1  954.90   16.00
  -5   1  -1  971.40   16.10
   5   1   1  962.30   17.90
   6  -1   1   12.70    4.60
   6  -1   1   13.40    6.70
   6   1   1   15.70    6.40
  -6   1  -1    6.70    3.10
   6   1   1   13.40    4.30
   7  -1   1   16.60    5.30
  -7  -1  -1    8.40    2.80
   7  -1   1   -2.30    7.70
   7   1   1   19.50    5.10
  -7   1  -1   12.00    3.40
   7   1   1   18.30    7.40
   8  -1   1   75.89   10.10
   8  -1   1   62.59    6.90
  -8  -1  -1   75.99    5.70
   8   1   1   74.09    9.10
  -8   1  -1   65.99    4.70
   8   1   1   62.89    6.40
   9  -1   1   55.49    7.50
   9  -1   1   45.30   10.50
  -9   1  -1   52.49    4.90
   9   1   1   50.59    9.60
   9   1   1   48.00    7.00
  10  -1   1    5.10    7.20
  10  -1   1   -6.90   10.40
 -10   1  -1    3.80    4.30
  11  -1   1   18.90    7.90
  11  -1   1   10.80   11.40
 -11   1  -1   16.00    4.90
  11  -2  -1   -5.90    7.60
  11  -2  -1   17.00   11.20
 -11   2   1    3.60    4.80
  10  -2  -1   14.00   10.40
  10  -2  -1    0.70    7.40
 -10   2   1    9.00    4.70
   9  -2  -1   20.50    9.80
   9  -2  -1   13.00    6.90
  -9   2   1    3.50    5.60
  -9   2   1    7.20    4.50
  -8  -2   1   70.39    6.30
   8  -2  -1   62.79    6.80
   8  -2  -1   55.69    9.20
  -8   2   1   75.59    6.50
  -8   2   1   49.20    4.90
  -7  -2   1   20.50    5.00
   7  -2  -1   11.70    5.40
   7  -2  -1    5.50    7.50
  -7  -2   1   10.30    3.50
  -7   2   1    8.10    4.90
  -7   2   1   11.30    4.00
  -6  -2   1    5.90    2.80
  -6  -2   1    3.30    4.30
  -6   2   1    2.50    3.40
   6   2  -1    2.60    5.80
  -6   2   1   -4.70    4.40
   6   2  -1    3.40    4.00
  -5  -2   1   76.89    6.10
  -5  -2   1   84.79    4.20
  -5   2   1   75.89    6.00
  -5   2   1   83.39    7.00
   5   2  -1   74.49    5.80
   5   2  -1   82.69    4.90
  -4  -2   1 1361.46   21.50
  -4  -2   1 1373.76   20.50
   4   2  -1 1336.17   20.50
   4   2  -1 1329.77   21.90
  -4   2   1 1377.86   21.80
  -4   2   1 1371.66   22.30
  -3  -2   1  842.92   14.10
  -3  -2   1  840.22   13.20
  -3   2   1  860.71   15.40
   3   2  -1  859.71   13.30
  -3   2   1  863.11   14.70
   3   2  -1  875.21   14.40
   3   2  -1  863.71   14.60
  -2  -2   1   48.20    3.80
  -2  -2   1   43.30    2.80
  -2   2   1   38.00    5.10
   2   2  -1   53.99    5.60
   2   2  -1   45.60    2.60
  -2   2   1   44.50    3.30
   2   2  -1   46.80    3.90
  -2   2   1   46.90    4.50
  -1  -2   1  127.29    3.00
  -1  -2   1  123.99    3.70
   1  -2  -1  128.59    3.60
   1  -2  -1  122.99    2.90
   1   2  -1  129.39    4.00
  -1   2   1  135.69    5.20
  -1   2   1  134.69    7.20
   1   2  -1  129.39    5.50
  -1   2   1  127.99    6.40
   0  -2   1  118.49    2.90
   0  -2  -1  117.39    2.90
   0  -2   1  113.89    3.50
   0   2   1  142.19    7.10
   0   2   1  131.39    5.00
   0   2  -1  113.09    6.30
   1  -2   1   10.40    2.10
   1  -2   1   15.30    2.80
  -1  -2  -1   10.70    2.30
  -1  -2  -1   13.90    1.60
  -1   2  -1    6.50    2.50
   2  -2   1  447.66    9.20
   2  -2   1  459.65    8.00
   2   2   1  456.75    9.80
  -2   2  -1  456.55    9.00
   2   2   1  429.76    7.90
  -2   2  -1  453.45   10.20
   2   2   1  434.76    7.20
   3  -2   1  695.73   13.10
   3  -2   1  654.33   11.50
  -3   2  -1  662.13   12.20
   3   2   1  674.03   11.80
  -3   2  -1  674.33   13.20
   3   2   1  649.24   10.70
   4  -2   1  127.39    8.50
   4  -2   1  134.39    5.90
   4   2   1  134.69    7.10
  -4   2  -1  126.39    7.50
  -4   2  -1  143.59    6.40
   4   2   1  131.29    5.20
   5  -2   1   45.70    6.40
   5  -2   1   43.40    4.40
   5   2   1   35.60    5.50
  -5   2  -1   45.30    4.00
   5   2   1   42.80    4.00
   6  -2   1   43.20    7.40
   6  -2   1   49.80    5.20
   6   2   1   55.99    5.40
   6   2   1   45.00    8.70
  -6   2  -1   46.10    4.40
   7  -2   1  117.39    8.60
   7  -2   1   96.59    8.90
  -7   2  -1  123.49    7.70
   8  -2   1    8.20    8.80
   8  -2   1   14.20    6.40
  -8   2  -1   10.20    4.40
   9  -2   1   55.99   10.40
   9  -2   1   48.60    7.10
  -9   2  -1   45.60    5.20
  10  -2   1   18.20    7.60
  10  -2   1   19.10   10.60
 -10   2  -1   11.40    5.00
  11  -2   1   13.80    8.10
  11  -2   1   14.00   11.20
 -11   2  -1    9.60    5.40
  10  -3  -1    4.00    6.70
  10  -3  -1   11.00    9.50
 -10   3   1   -4.30    4.60
   9  -3  -1   14.80    9.00
   9  -3  -1   32.80    6.90
  -9   3   1   33.50    6.80
  -9   3   1   17.90    4.80
   8  -3  -1   17.20    8.50
   8  -3  -1   -3.10    5.90
  -8   3   1   10.30    6.10
  -8   3   1    4.60    4.40
   7  -3  -1   47.70    8.40
   7  -3  -1   47.20    6.20
  -7  -3   1   63.99    5.80
  -7  -3   1   51.79    4.20
  -7   3   1   52.19    5.20
  -7   3   1   51.59    6.90
   6  -3  -1  755.02   14.80
  -6  -3   1  783.72   15.10
  -6  -3   1  733.13   13.20
  -6   3   1  758.42   16.60
  -6   3   1  771.22   15.50
  -5  -3   1  253.17    7.80
  -5  -3   1  254.37    6.20
  -5   3   1  271.67   10.40
  -5   3   1  264.07    8.70
  -4  -3   1   74.09    3.90
  -4  -3   1   77.39    5.30
  -4   3   1   73.99    6.30
   4   3  -1   70.09    7.20
  -4   3   1   67.69    6.10
  -4   3   1   68.39    6.60
  -3  -3   1   67.39    3.30
  -3  -3   1   65.79    4.50
  -3   3   1   70.59    6.00
  -3   3   1   64.69    6.60
   3   3  -1   63.39    5.40
  -3   3   1   58.19    5.80
  -2  -3   1   10.70    1.70
   2  -3  -1    7.70    1.80
  -2  -3   1    9.30    2.30
   2  -3  -1   10.30    2.50
  -2   3   1   10.30    3.20
   2   3  -1   13.70    3.40
  -2   3   1    1.40    4.70
  -2   3   1   11.70    5.30
   2   3  -1   16.00    4.90
   2   3  -1    9.50    2.10
  -1  -3   1  105.59    2.70
   1  -3  -1  106.59    2.70
   1  -3  -1  105.69    3.40
  -1  -3   1  110.39    3.50
  -1   3   1  103.39    7.80
  -1   3   1  100.49    7.40
   1   3  -1  109.09    6.70
   1   3  -1  112.79    4.60
   1   3  -1  109.99    7.00
  -1   3   1  108.19    5.90
   0  -3   1   11.80    2.00
   0   3   1    6.40    2.80
   0   3  -1   10.20    2.60
   0   3  -1    2.10    4.50
   0   3  -1    9.90    4.40
   0   3   1    9.80    4.40
   0   3   1   13.80    4.50
   1  -3   1   26.70    2.00
  -1  -3  -1   24.70    2.20
   1  -3   1   25.40    2.80
   1   3   1   17.60    4.60
  -1   3  -1   14.30    5.20
   1   3   1   23.70    4.50
  -1   3  -1   17.60    3.00
   1   3   1   17.50    2.70
  -2  -3  -1  116.09    3.60
   2  -3   1  118.59    5.50
   2  -3   1  113.29    4.10
  -2  -3  -1  115.29    4.80
  -2   3  -1  105.99    6.00
  -2   3  -1   89.39    7.80
   2   3   1  102.39    8.30
   3  -3   1  109.99    5.10
   3  -3   1  119.49    6.80
  -3   3  -1  120.19    6.50
  -3   3  -1  104.49    8.20
   3   3   1  106.39    8.00
   4  -3   1   92.89    5.80
   4  -3   1   93.99    8.20
  -4   3  -1  102.99    6.70
  -4   3  -1   93.29    8.40
   5  -3   1  128.79    7.10
   5  -3   1  134.29    9.90
  -5   3  -1  128.09    9.10
  -5   3  -1  125.79    7.60
   6  -3   1   56.99    7.70
   6  -3   1   56.89    5.60
  -6   3  -1   59.69    5.30
  -6   3  -1   63.89    6.90
   7  -3   1   14.40    5.70
   7  -3   1   14.80    8.40
  -7   3  -1    9.90    6.10
  -7   3  -1    8.00    4.60
   8  -3   1   11.50    8.70
   8  -3   1   20.60    6.20
  -8   3  -1   19.30    6.50
  -8   3  -1   14.00    4.80
   9  -3   1  -13.50    9.00
   9  -3   1   -1.40    6.60
  -9   3  -1   -4.40    4.60
  -9   3  -1   -1.30    6.30
  10  -3   1    4.60    7.00
  10  -3   1   -6.10    9.50
 -10   3  -1   -2.10    6.40
 -10   3  -1   10.50    5.40
   9  -4  -1  -17.90    8.30
   9  -4  -1   -4.80    6.00
  -9   4   1    7.80    5.00
  -9   4   1   -1.50    8.40
  -9   4   1   10.10    6.90
   8  -4  -1   -7.90    5.80
   8  -4  -1   -3.20    8.10
  -8   4   1    8.80    6.90
  -8   4   1    3.70    4.80
  -8   4   1   -0.70    7.90
   7  -4  -1    6.60    7.70
   7  -4  -1    7.30    5.40
  -7   4   1    7.80    6.60
  -7   4   1    6.90    4.80
  -7   4   1    4.60    8.10
   6  -4  -1   -5.10    4.80
   6  -4  -1    5.80    6.70
  -6  -4   1   -0.40    4.20
  -6   4   1   11.20    7.90
  -6   4   1    7.20    4.70
  -6   4   1    4.40    6.80
  -5  -4   1  118.09    6.80
   5  -4  -1  104.89    9.30
  -5  -4   1  109.29    5.10
   5  -4  -1  109.99    6.90
  -5   4   1  113.99    8.40
  -5   4   1  116.99   10.70
  -5   4   1  117.89    9.60
   4  -4  -1  546.05   12.80
   4  -4  -1  550.64   10.80
  -4  -4   1  536.95    9.60
  -4  -4   1  551.64   10.80
  -4   4   1  580.44   16.40
  -4   4   1  560.04   15.30
   4   4  -1  543.95   13.80
  -4   4   1  564.94   13.00
  -3  -4   1   93.79    4.90
  -3  -4   1   96.49    3.70
  -3   4   1   86.39    7.50
  -3   4   1   98.19    9.90
  -3   4   1   99.69    8.40
   3   4  -1   93.59    9.10
  -2  -4   1   31.50    2.60
  -2  -4   1   33.40    2.60
   2   4  -1   27.00    6.20
  -2   4   1   34.30    6.90
  -2   4   1   26.30    4.30
  -2   4   1   30.40    6.50
   1   4  -1   94.29    5.70
   1   4  -1  103.99    8.50
   1   4  -1   87.79    8.80
  -1   4   1   99.09    7.70
  -1   4   1   96.39    9.00
  -1   4   1  104.39    6.90
   0   4   1   17.20    5.80
   0   4   1   13.00    6.10
   0   4  -1    6.10    5.80
   0   4   1   12.10    3.30
   0   4  -1    4.30    5.60
   0   4  -1   16.60    3.50
   1  -4   1   19.10    2.90
   1  -4   1   18.50    2.00
  -1   4  -1   15.50    6.30
  -1   4  -1   18.80    3.70
   1   4   1   17.20    5.80
  -1   4  -1   19.20    6.50
   1   4   1   16.70    6.00
   1   4   1   20.70    3.40
   2  -4   1  136.89    5.90
   2  -4   1  135.89    4.50
   2   4   1  133.59    9.90
  -2   4  -1  124.29   10.00
  -2   4  -1  127.39   10.80
  -2   4  -1  141.49    7.30
   3  -4   1    6.60    3.20
   3  -4   1    7.10    4.40
   3   4   1    2.40    6.30
  -3   4  -1    4.80    3.90
  -3   4  -1   12.80    6.40
   4  -4   1  138.29    6.40
   4  -4   1  141.89    8.50
  -4   4  -1  144.39    8.60
  -4   4  -1  141.49   11.00
   5  -4   1    2.20    4.30
   5  -4   1    6.80    6.20
  -5   4  -1    0.70    4.60
  -5   4  -1    0.90    6.70
   6  -4   1   34.50    5.30
   6  -4   1   38.90    7.50
  -6   4  -1   35.00    7.30
  -6   4  -1   44.40    5.50
   7  -4   1   11.20    5.50
   7  -4   1    9.40    7.60
  -7   4  -1   10.90    5.30
  -7   4  -1   27.40    7.40
   8  -4   1   25.40    6.00
   8  -4   1   20.30    8.50
  -8   4  -1   20.40    7.30
  -8   4  -1    9.50    5.40
   9  -4   1   13.60    8.90
   9  -4   1    6.60    6.30
  -9   4  -1   19.60    5.70
  -9   4  -1   21.40    7.60
   7  -5  -1    5.20    5.30
   7  -5  -1   12.70    7.40
  -7   5   1   12.80    5.60
  -7   5   1   23.50    7.90
  -7   5   1    5.20    8.90
   6  -5  -1    9.50    6.50
   6  -5  -1   -1.00    4.60
  -6   5   1    8.20    8.80
  -6   5   1   17.90    7.60
  -6   5   1    1.60    5.30
   5  -5  -1    1.50    4.20
   5  -5  -1   12.00    6.00
  -5   5   1    1.40    8.90
  -5   5   1    8.10    5.30
  -5   5   1    6.80    7.70
   4  -5  -1    2.60    7.10
  -4   5   1   15.80    8.50
   4   5  -1    5.90    7.50
  -4   5   1    9.20    7.30
  -4   5   1   11.70    5.20
  -3   5   1   31.00    5.60
  -3   5   1   31.60    9.10
  -3   5   1   47.90    8.30
   3   5  -1   29.80    7.70
  -2   5   1  152.68   12.30
  -2   5   1  147.99   12.80
  -2   5   1  143.99    8.60
   2   5  -1  141.39   12.70
  -1   5   1    7.20    4.60
  -1   5   1    8.90    7.90
   1   5  -1   -1.30    7.40
  -1   5   1    2.20    7.80
   0   5  -1   37.80    5.30
   0   5  -1   51.09   10.20
   0   5   1   38.70    8.30
   0   5   1   35.60    4.80
   0   5  -1   45.10    8.20
   0   5   1   30.70    8.00
  -1   5  -1  128.29    9.80
  -1   5  -1  123.19   13.00
   1   5   1  123.29   11.50
  -1   5  -1  127.19    8.80
   2   5   1  135.29   12.90
  -2   5  -1  126.59    9.20
  -2   5  -1  143.19   12.20
  -2   5  -1  130.79   10.30
  -3   5  -1   21.20    7.90
  -3   5  -1   20.50    8.60
  -3   5  -1    9.80    4.80
   3   5   1    0.80    7.80
   4  -5   1   90.89    8.10
   4  -5   1   95.59    6.10
  -4   5  -1  107.29   10.50
  -4   5  -1   84.29    9.00
  -4   5  -1   82.59    6.30
   5  -5   1   44.60    4.70
   5  -5   1   29.30    6.20
  -5   5  -1   25.40    5.30
  -5   5  -1   32.90    9.20
  -5   5  -1   29.20    8.20
   6  -5   1   -3.10    6.50
   6  -5   1   -4.90    4.80
  -6   5  -1    5.50    5.30
  -6   5  -1    3.20    7.70
   7  -5   1    3.80    7.20
   7  -5   1   -2.10    5.30
  -7   5  -1    5.20    7.80
  -7   5  -1    8.20    5.60
  -5   6   1    0.20    8.60
  -4   6   1   -5.90    9.60
  -4   6   1   10.20    8.80
   4   6  -1    0.90    8.90
  -4   6   1    0.70    5.50
   3   6  -1   -6.90    9.00
  -3   6   1   -0.60    9.50
  -3   6   1    9.30    8.60
  -3   6   1    5.70    5.60
   2   6  -1   -7.50    9.50
  -2   6   1   12.00    9.30
  -2   6   1    1.80    8.60
  -2   6   1    2.30    5.00
  -1   6   1    4.00    6.90
  -1   6   1    7.80    8.80
   1   6  -1    2.20    9.50
  -1   6   1   -9.60   13.50
   0   6   1   17.00    9.30
   0   6  -1    9.60    8.60
  -1   6  -1   26.70    8.80
   1   6   1   20.20    9.10
   2   6   1    1.80    9.40
  -2   6  -1    1.00    8.50
  -2   6  -1  -10.40    8.50
  -2   6  -1   12.70   12.40
  -3   6  -1   -2.90    9.70
  -3   6  -1    0.00    5.70
  -3   6  -1    3.00    8.60
   3   6   1    5.00   10.20
  -4   6  -1   -6.70    9.60
  -4   6  -1    3.30    8.70
  -4   6  -1   -6.90    5.50
  12   0  -2    1.60   12.60
  11   0  -2    0.70    8.10
  11   0  -2   -1.10   11.10
  10   0  -2   -5.00   10.10
  10   0  -2   14.70    7.30
  -9   0   2    1.40    3.30
   9   0  -2   -6.80    8.90
  -9   0   2    5.60    5.70
   9   0  -2    3.10    6.80
  -8   0   2   -2.10    3.90
  -8   0   2   -2.50    5.10
  -8   0   2   -0.10    2.90
  -7   0   2   -0.50    2.50
  -7   0   2   -1.70    4.30
  -7   0   2   -0.90    3.10
  -6   0   2   25.20    3.10
  -6   0   2   25.80    4.50
  -6   0   2   23.20    2.60
  -5   0   2  244.68    6.20
  -5   0   2  233.88    8.20
  -5   0   2  240.58    6.30
  -4   0   2  185.28    5.00
  -4   0   2  182.68    5.30
  -4   0   2  177.18    6.90
  -3   0   2   83.89    5.40
  -3   0   2   75.09    3.70
  -3   0   2   83.49    5.50
  -3   0   2   81.49    3.50
  -2   0   2 3296.97   47.70
  -2   0   2 3280.67   46.70
  -2   0   2 3349.66   47.30
  -2   0   2 3307.17   47.00
  -1   0   2 1166.48   17.50
  -1   0   2 1227.18   18.30
   0   0   2 7494.45  108.39
   0   0   2 7802.52  109.99
   1   0   2  184.88    6.70
   1   0   2  188.58    5.20
   2   0   2  175.68    7.30
   2   0   2  182.68    5.40
   3   0   2   49.20    5.40
   3   0   2   42.60    3.80
   4   0   2   64.59    5.40
   4   0   2   72.99    6.60
   5   0   2  276.57    8.00
   5   0   2  287.67   10.50
  -6   0  -2  101.59    5.80
   6   0   2  101.69    6.50
   6   0   2  102.69    7.90
   7   0   2   85.39    6.10
  -7   0  -2   78.49    5.80
   7   0   2   98.49    9.10
   8   0   2   -1.50    8.60
   8   0   2   -7.40    5.90
  -8   0  -2    0.50    3.60
  -9   0  -2    6.10    3.90
   9   0   2    4.80    6.50
   9   0   2   -2.00    9.60
  10   0   2    3.80    7.40
 -10   0  -2    1.20    4.30
  10   0   2    3.90   10.70
  11   0   2    1.10    8.00
  11   0   2    7.00   11.30
  11  -1  -2   19.70    8.30
  11  -1  -2    4.90   11.50
  10  -1  -2   58.69   11.30
  10  -1  -2   65.79    8.00
 -10  -1   2   76.79    7.30
  10   1  -2   66.29   15.70
  10   1  -2   39.30    9.60
 -10   1   2   58.49    5.00
   9  -1  -2   12.30    7.10
  -9  -1   2   20.70    5.90
  -9  -1   2   20.10    4.70
   9  -1  -2   -2.20    9.70
   9   1  -2   17.40    9.10
   9   1  -2    8.50    6.50
  -9   1   2   11.70    4.00
  -8  -1   2    7.50    3.80
  -8  -1   2   -4.80    5.00
  -8   1   2    2.00    3.50
   8   1  -2    0.70    5.90
   8   1  -2    6.60    8.10
  -8   1   2   -2.90    4.90
  -7  -1   2   29.10    2.50
  -7  -1   2   35.70    5.10
  -7  -1   2   38.80    3.60
  -7   1   2   31.20    4.50
  -7   1   2   42.00    3.90
  -7   1   2   25.20    3.50
  -7   1   2   29.00    5.10
  -6  -1   2   66.99    5.40
  -6  -1   2   59.39    3.70
  -6  -1   2   57.49    3.60
  -6   1   2   59.29    4.70
  -6   1   2   54.79    4.90
  -6   1   2   61.59    5.60
  -6   1   2   54.89    4.40
  -5  -1   2   37.70    3.00
  -5  -1   2   36.00    3.00
  -5  -1   2   35.60    4.50
  -5   1   2   41.10    4.20
  -5   1   2   34.10    3.10
  -5   1   2   36.70    3.80
  -5   1   2   40.90    3.00
  -4  -1   2  269.77    4.90
  -4  -1   2  267.67    6.10
  -4  -1   2  265.07    7.60
  -4   1   2  270.87    7.50
  -4   1   2  256.97    7.00
  -4   1   2  267.67    7.00
  -4   1   2  272.37    6.10
  -3  -1   2  668.53   11.90
  -3  -1   2  668.53   10.80
  -3   1   2  650.43   13.00
  -3   1   2  661.53   11.40
  -3   1   2  667.33   10.70
  -3   1   2  664.43   11.40
  -3   1   2  681.03   11.90
  -2  -1   2 6905.61   97.39
  -2  -1   2 7003.80   97.59
  -2   1   2 6938.41   97.39
  -2   1   2 6864.91   97.89
  -2   1   2 6929.41   97.69
  -2   1   2 6944.10   97.59
  -2   1   2 6817.72   98.19
  -1  -1   2  334.87    6.80
  -1  -1   2  330.07    5.90
  -1   1   2  330.87    7.00
  -1   1   2  336.47    6.70
  -1   1   2  321.87    8.30
  -1   1   2  319.77    5.80
  -1   1   2  327.07    6.40
   0  -1   2  842.32   12.50
   0  -1   2  837.72   13.10
   0   1   2  820.12   12.30
   0   1   2  828.42   13.40
   0   1   2  823.52   12.90
   1  -1   2  286.87    7.00
   1  -1   2  287.17    5.90
   1   1   2  285.57    5.40
   1   1   2  287.67    6.50
   2  -1   2  254.67    7.90
   2  -1   2  252.67    6.30
   2   1   2  263.67    7.00
   2   1   2  271.57    5.60
  -2   1  -2  263.27    6.00
   3  -1   2  931.11   15.00
   3  -1   2  916.51   16.60
   3   1   2  941.91   16.00
   3   1   2  912.51   14.60
  -3   1  -2  913.51   14.90
   4  -1   2  349.37   10.60
   4  -1   2  347.07    8.30
   4   1   2  348.87    8.20
  -4   1  -2  350.36    8.00
   4   1   2  353.66    9.80
   5  -1   2  390.06   12.00
   5  -1   2  376.86    9.10
   5   1   2  385.86   10.90
  -5   1  -2  384.86    8.90
   5   1   2  384.26    8.80
   6  -1   2    4.70    6.90
   6  -1   2   13.20    4.70
   6   1   2   11.40    6.20
  -6   1  -2    5.10    3.00
   6   1   2    7.80    4.50
   7  -1   2   -0.90    5.50
   7  -1   2   -1.30    7.70
  -7   1  -2    3.00    3.50
   7   1   2    2.90    7.20
   7   1   2    8.20    5.20
   8  -1   2    8.60    6.30
  -8  -1  -2    1.60    3.30
   8  -1   2   11.10    9.10
   8   1   2  -11.30    8.10
   8   1   2    8.60    6.10
  -8   1  -2    7.20    4.00
   9  -1   2   40.20   10.20
   9  -1   2   55.79    7.70
  -9  -1  -2   44.10    4.20
   9   1   2   53.49    9.80
  -9   1  -2   50.39    5.10
   9   1   2   49.30    6.70
  10  -1   2   23.90   10.70
  10  -1   2   13.40    7.50
 -10   1  -2   11.00    4.70
  11  -1   2    1.20    8.10
  11  -1   2   -0.50   11.60
 -11   1  -2    0.70    4.70
  11  -2  -2    9.80   10.80
  11  -2  -2   21.10    8.10
 -11   2   2   18.30    4.80
  10  -2  -2   26.00   10.60
 -10  -2   2   17.40    6.10
  10  -2  -2   19.40    7.70
 -10   2   2   22.00    4.50
   9  -2  -2   -2.80    6.80
   9  -2  -2    0.80    9.50
  -9  -2   2    5.00    5.70
  -9  -2   2    9.20    4.20
  -9   2   2    2.60    4.00
  -8  -2   2  258.27   10.30
  -8  -2   2  249.58    7.90
  -8   2   2  241.38    9.90
  -8   2   2  254.67    9.10
  -7  -2   2   84.89    5.40
  -7  -2   2   89.49    7.80
  -7   2   2   92.29    6.80
  -7   2   2   87.69    7.80
  -6  -2   2  106.89    7.30
  -6  -2   2  100.89    5.30
  -6   2   2  107.59    7.60
  -6   2   2  109.89    6.70
   6   2  -2  101.49    7.50
   6   2  -2  112.79    6.20
  -6   2   2  102.59    6.50
  -5  -2   2  517.05   11.00
  -5  -2   2  511.35    9.50
  -5   2   2  511.45   11.10
  -5   2   2  501.95    9.30
  -5   2   2  506.15   10.90
  -5   2   2  518.65   10.80
  -4  -2   2 1864.01   27.60
  -4  -2   2 1859.31   28.60
  -4   2   2 1888.11   30.70
  -4   2   2 1853.01   29.20
  -4   2   2 1858.41   27.40
  -4   2   2 1883.91   28.40
  -4   2   2 1863.11   28.80
  -3  -2   2  121.79    4.20
  -3  -2   2  123.09    5.50
  -3   2   2  121.99    3.80
  -3   2   2  120.79    8.40
  -3   2   2  124.39    6.80
  -3   2   2  123.39    5.00
   3   2  -2  127.59    5.90
  -3   2   2  115.59    5.80
  -2  -2   2  737.03   12.20
  -2  -2   2  739.13   11.40
  -2   2   2  741.53   13.00
   2   2  -2  746.93   11.50
  -2   2   2  732.33   13.60
   2   2  -2  738.73   10.90
   2   2  -2  728.73   13.00
  -2   2   2  729.03   14.70
  -2   2   2  711.53   11.10
  -2   2   2  728.93   11.70
   1  -2  -2  739.43   11.50
  -1  -2   2  733.33   11.10
  -1  -2   2  725.43   11.70
   1  -2  -2  729.93   10.90
  -1   2   2  716.53   12.50
   1   2  -2  714.43   13.10
  -1   2   2  703.13   13.40
   1   2  -2  746.83   11.30
  -1   2   2  719.93   14.00
   0  -2  -2   42.70    2.40
   0  -2   2   42.90    3.00
   0  -2   2   44.10    3.90
   0  -2  -2   43.70    3.20
   0   2  -2   34.80    4.10
   0   2   2   36.70    4.70
   0   2   2   30.60    2.70
   0   2   2   43.50    4.40
   0   2  -2   35.50    2.50
  -1  -2  -2   17.40    2.90
   1  -2   2   22.00    2.50
   1  -2   2   14.20    3.30
  -1  -2  -2   17.40    2.10
   1   2   2   21.10    3.80
  -1   2  -2   17.00    4.00
  -1   2  -2   18.20    2.50
   2  -2   2  510.55    9.10
   2  -2   2  498.75   10.30
  -2   2  -2  511.55   11.10
   2   2   2  511.75    9.30
   2   2   2  518.65    8.40
  -2   2  -2  498.25    9.90
   3  -2   2  499.15   11.10
   3  -2   2  480.75    9.50
   3   2   2  503.45    8.70
   3   2   2  504.45    9.90
  -3   2  -2  483.55   10.00
   4  -2   2  277.17    7.60
   4  -2   2  279.87    9.90
   4   2   2  273.27    6.50
   4   2   2  281.07    8.50
  -4   2  -2  276.27    7.90
   5  -2   2  430.96   12.80
   5  -2   2  449.86   10.20
  -5   2  -2  439.96   10.30
   5   2   2  439.56    9.20
   5   2   2  421.56   11.10
   6  -2   2   22.00    5.00
   6  -2   2   25.00    7.30
  -6   2  -2   25.50    4.10
   7  -2   2  117.29    8.30
   7  -2   2   77.29    9.00
  -7   2  -2   91.89    7.80
   8  -2   2    3.60    8.80
   8  -2   2   16.70    6.50
  -8   2  -2    6.90    4.40
   9  -2   2   12.40    9.30
   9  -2   2    7.20    6.70
  -9   2  -2   12.80    4.50
  10  -2   2   20.00   10.30
  10  -2   2   10.50    7.60
 -10   2  -2    2.40    5.00
  11  -2   2  -12.30    8.10
  11  -2   2    5.20   11.10
 -11   2  -2   -2.50    5.20
  10  -3  -2    8.70    7.00
  10  -3  -2    8.10    9.50
 -10   3   2    6.60    8.10
 -10   3   2   -1.50    4.70
  -9  -3   2    3.90    5.50
   9  -3  -2    8.20    9.10
   9  -3  -2    2.10    6.50
  -9  -3   2    0.60    3.90
  -9   3   2    0.30    7.70
  -9   3   2   -0.80    4.40
  -8  -3   2   -0.40    5.10
   8  -3  -2    1.90    6.00
  -8  -3   2    8.00    3.90
  -8   3   2   14.00    6.00
  -8   3   2    1.70    7.50
  -8   3   2    1.10    4.40
  -7  -3   2   75.89    6.00
  -7  -3   2   77.29    5.60
  -7   3   2   66.69    8.50
  -7   3   2   75.09    7.10
  -7   3   2   70.79    5.50
  -6  -3   2  173.88    6.20
  -6  -3   2  188.48    8.40
  -6   3   2  193.38   12.10
  -6   3   2  192.68    9.60
  -6   3   2  187.88    8.70
  -5  -3   2   63.09    4.30
  -5  -3   2   72.49    6.40
  -5   3   2   50.89    4.50
  -5   3   2   64.29    7.20
  -5   3   2   83.29    8.10
  -4  -3   2    3.70    2.30
  -4  -3   2    0.90    3.30
  -4   3   2    0.20    4.80
   4   3  -2    1.50    4.20
  -4   3   2    3.40    5.80
  -4   3   2    3.70    3.20
  -3  -3   2   18.10    3.20
  -3  -3   2   21.90    2.30
   3   3  -2   17.60    4.70
  -3   3   2   16.80    3.60
  -3   3   2   19.10    5.20
  -3   3   2   15.90    5.70
   2  -3  -2    5.50    2.80
  -2  -3   2    9.20    2.10
  -2  -3   2   11.30    2.80
   2  -3  -2   10.20    2.10
  -2   3   2    0.70    4.70
  -2   3   2   11.00    5.30
   2   3  -2    4.00    4.60
   2   3  -2    6.70    3.20
  -2   3   2   11.70    3.30
   2   3  -2    8.10    1.90
  -1  -3   2   24.00    2.80
  -1  -3   2   23.90    2.00
   1  -3  -2   27.00    2.50
   1  -3  -2   21.20    1.90
   1   3  -2   26.40    4.10
  -1   3   2   23.90    3.20
   1   3  -2   24.40    2.60
  -1   3   2   24.80    5.20
  -1   3   2   26.30    5.10
   1   3  -2   26.20    4.80
   0  -3  -2  953.60   13.90
   0  -3   2  954.00   14.80
   0  -3  -2  953.20   14.40
   0  -3   2  969.20   14.20
   0   3   2  942.11   17.70
   0   3  -2  964.20   15.70
   0   3   2  963.40   17.90
   0   3   2  953.70   16.00
   0   3  -2  936.21   17.70
   1  -3   2  664.53   11.30
   1  -3   2  641.54   10.40
  -1  -3  -2  651.03   10.60
  -1  -3  -2  661.03   10.00
   1   3   2  650.63   14.10
  -1   3  -2  641.84   12.00
  -1   3  -2  657.33   14.00
   2  -3   2   59.69    3.90
   2  -3   2   55.79    4.30
  -2   3  -2   70.89    5.50
   2   3   2   48.70    5.00
  -2   3  -2   48.10    5.50
   3  -3   2   65.59    4.90
   3  -3   2   59.59    5.10
  -3   3  -2   61.99    6.20
  -3   3  -2   59.09    4.20
   4  -3   2    9.00    3.90
   4  -3   2    5.70    5.40
  -4   3  -2    4.00    5.10
  -4   3  -2    6.20    3.70
   5  -3   2   41.40    6.80
   5  -3   2   48.10    4.90
  -5   3  -2   52.69    6.50
  -5   3  -2   46.70    4.80
   6  -3   2   34.50    5.30
   6  -3   2   37.30    7.30
  -6   3  -2   27.50    4.70
  -6   3  -2   32.80    6.50
   7  -3   2  182.18   12.60
   7  -3   2  184.78    9.60
  -7   3  -2  171.98   10.80
  -7   3  -2  192.58    9.20
   8  -3   2   42.20    8.90
   8  -3   2   39.30    6.50
  -8   3  -2   39.60    5.20
  -8   3  -2   46.40    7.30
   9  -3   2  -14.30    6.40
   9  -3   2   12.30    8.90
  -9   3  -2   -0.30    5.10
  -9   3  -2    0.00    6.40
  10  -3   2    8.00    9.60
  10  -3   2   -6.10    7.20
 -10   3  -2    0.20    5.30
 -10   3  -2    1.20    6.90
   9  -4  -2    3.00    8.70
   9  -4  -2    5.00    6.30
  -9   4   2   12.50    7.00
  -9   4   2    4.50    8.30
  -9   4   2   -1.30    4.80
   8  -4  -2    2.70    8.10
  -8  -4   2   13.10    5.40
  -8  -4   2   13.20    3.90
   8  -4  -2    1.20    6.00
  -8   4   2    3.30    4.90
  -8   4   2   12.90    7.00
  -8   4   2    3.00    8.00
   7  -4  -2   21.10    7.80
  -7  -4   2   22.60    3.80
  -7  -4   2   16.50    5.10
   7  -4  -2   28.60    5.70
  -7   4   2   19.40    6.90
  -7   4   2   14.80    5.00
  -7   4   2   13.40    7.30
  -6  -4   2   -0.10    4.20
  -6  -4   2    2.10    3.00
  -6   4   2   13.90    7.50
  -6   4   2   -3.70    6.30
  -6   4   2   12.90    4.70
  -5  -4   2   57.89    4.70
  -5  -4   2   60.09    4.80
  -5   4   2   58.59    5.50
  -5   4   2   70.19    8.70
  -5   4   2   57.09    7.40
  -4  -4   2  290.57    6.60
  -4  -4   2  296.47    8.10
  -4   4   2  287.77   13.40
  -4   4   2  301.47   10.00
   4   4  -2  310.87   11.50
  -4   4   2  284.77   11.90
  -3  -4   2   67.09    3.80
  -3  -4   2   66.09    5.10
  -3   4   2   62.69    7.00
  -3   4   2   76.29    8.10
   3   4  -2   69.79    6.80
  -3   4   2   61.49    5.10
  -2  -4   2   26.40    2.30
  -2  -4   2   23.30    3.00
  -2   4   2   30.20    6.50
  -2   4   2   12.20    6.70
   2   4  -2   24.90    5.90
  -2   4   2   21.20    4.00
  -1  -4   2   66.59    4.10
  -1  -4   2   73.19    3.10
  -1   4   2   61.39    7.20
   1   4  -2   66.99    6.70
  -1   4   2   60.39    4.60
   1   4  -2   69.59    5.70
   1   4  -2   73.29    6.10
  -1   4   2   70.59    7.10
   0  -4   2    9.80    2.10
   0  -4   2    6.40    2.60
   0   4  -2    7.30    5.90
   0   4  -2   14.10    5.80
   0   4   2    8.10    6.00
   0   4   2   11.70    3.60
   0   4   2    6.80    6.00
   0   4  -2    5.10    3.30
   1  -4   2   18.00    3.30
   1  -4   2   19.40    2.50
   1   4   2   24.10    6.60
  -1   4  -2   15.90    3.80
  -1   4  -2   22.30    6.30
   2  -4   2  287.17    6.50
   2  -4   2  297.37    7.90
  -2   4  -2  298.27   12.00
   2   4   2  294.67   11.70
  -2   4  -2  297.27    9.00
   3  -4   2  153.68    7.70
   3  -4   2  151.18    5.50
  -3   4  -2  141.39   10.80
  -3   4  -2  150.38    8.90
   4  -4   2   12.40    5.80
   4  -4   2   16.30    4.20
  -4   4  -2   14.20    4.80
  -4   4  -2   23.20    7.20
   5  -4   2   50.89    5.10
   5  -4   2   69.69    7.00
  -5   4  -2   69.99    8.00
  -5   4  -2   66.29    5.90
   6  -4   2   29.70    7.20
   6  -4   2   32.80    5.40
  -6   4  -2   44.90    5.70
  -6   4  -2   30.90    7.40
   7  -4   2    2.40    7.30
   7  -4   2    6.70    5.50
  -7   4  -2   14.00    7.00
  -7   4  -2    6.00    5.30
   8  -4   2   -1.60    7.80
   8  -4   2    1.30    6.00
  -8   4  -2   -5.50    5.10
  -8   4  -2    0.00    6.90
   9  -4   2    2.60    6.60
   9  -4   2   -7.30    8.40
  -9   4  -2   16.30    7.70
  -9   4  -2    2.10    5.20
   7  -5  -2    1.10    5.30
   7  -5  -2   -7.50    7.20
  -7   5   2    1.70    7.60
  -7   5   2   12.50    8.90
  -7   5   2   -1.70    5.20
   6  -5  -2   -0.30    6.60
   6  -5  -2    3.40    4.80
  -6  -5   2   -2.90    4.40
  -6  -5   2    4.80    3.20
  -6   5   2   15.90    7.50
  -6   5   2   -1.30    8.00
  -6   5   2    7.00    5.20
   5  -5  -2    9.40    6.00
   5  -5  -2    6.70    4.30
   5   5  -2   -9.10    7.50
  -5   5   2   -1.50    8.50
  -5   5   2    9.80    7.10
  -5   5   2   -2.30    5.10
   4  -5  -2   -4.30    8.50
  -4   5   2    7.40    5.20
  -4   5   2    9.40    7.30
   4   5  -2    5.20    7.60
  -4   5   2    9.10    8.40
  -3   5   2   33.50    8.90
  -3   5   2   32.30    5.20
   3   5  -2   33.70    7.70
  -3   5   2   32.40    7.90
  -2   5   2   63.69    5.50
  -2   5   2   79.59    9.20
  -2   5   2   63.59    8.50
   2   5  -2   50.79    8.30
  -1   5   2   47.00    8.70
  -1   5   2   40.50    5.30
   1   5  -2   52.09    8.30
  -1   5   2   55.79    8.80
   0   5   2   78.69    8.80
   0   5   2   87.59    9.00
   0   5  -2   77.29    8.80
   0   5   2   71.89    5.40
   1   5   2   32.50    7.50
  -1   5  -2   28.40    8.20
  -1   5  -2   29.10    4.80
  -1   5  -2   39.80    8.30
  -2   5  -2   26.10    8.20
  -2   5  -2   31.40    8.40
   2   5   2   19.60    7.90
  -2   5  -2   17.30    4.70
   3  -5   2   -0.20    7.30
   3   5   2    7.50    7.80
  -3   5  -2    5.00    8.50
  -3   5  -2    2.80    4.80
  -3   5  -2    6.30    7.70
   4  -5   2   35.00    4.20
   4  -5   2   37.00    5.70
  -4   5  -2   33.30    5.60
  -4   5  -2   29.60    8.00
   5  -5   2    1.00    4.20
   5  -5   2    3.30    5.90
  -5   5  -2   10.90    7.60
  -5   5  -2    2.50    5.30
   6  -5   2   -0.40    6.70
   6  -5   2    4.30    5.00
  -6   5  -2    7.50    7.70
  -6   5  -2   -8.60    5.30
   7  -5   2   -5.20    5.40
   7  -5   2    4.20    7.50
  -7   5  -2   13.10    8.00
  -7   5  -2   -6.10    5.40
   5   6  -2  -19.00   10.70
  -5   6   2    4.90    8.60
  -4   6   2    9.80    5.60
  -4   6   2   19.60    9.80
  -4   6   2   14.70    8.80
   4   6  -2    1.30    9.10
  -3   6   2   16.10    9.70
  -3   6   2   11.40    5.80
  -3   6   2    7.60    8.80
   3   6  -2   12.30    9.30
   2   6  -2   30.30    9.40
  -2   6   2   26.50    8.70
  -2   6   2   59.89   10.20
  -2   6   2   32.20    5.70
  -1   6   2   37.00    5.80
   1   6  -2   34.90    9.00
  -1   6   2   28.70    9.30
  -1   6   2   40.40    9.90
   0   6  -2   56.59    9.40
   0   6   2   24.30    9.50
   1   6   2    1.90    9.90
  -1   6  -2   11.30    8.50
   2   6   2   -5.30    9.30
  -2   6  -2    0.80    8.50
   3   6   2  -11.70   10.60
  -3   6  -2   10.60    5.70
  -3   6  -2   10.00    8.70
  -3   6  -2    2.80    9.90
  -4   6  -2    1.60   10.00
  -4   6  -2    2.40    9.10
  -4   6  -2   -2.10    5.40
  12   0  -3   13.20   12.40
  11   0  -3   -2.40    7.50
  11   0  -3   10.90   11.70
 -10   0   3    7.30    6.00
 -10   0   3    6.90    4.80
  10   0  -3    6.20   10.90
  10   0  -3    3.00    6.90
  -9   0   3   18.40    4.60
  -9   0   3    9.00    6.00
  -8   0   3   87.99    6.00
  -8   0   3   94.19    5.30
  -8   0   3   84.19    6.80
  -7   0   3    9.80    2.70
  -7   0   3   10.20    4.70
  -7   0   3   16.70    3.40
  -6   0   3  133.59    8.00
  -6   0   3  139.99    5.10
  -6   0   3  141.99    7.40
  -6   0   3  137.09    5.70
  -5   0   3  138.59    5.50
  -5   0   3  141.39    6.90
  -5   0   3  145.69    4.90
  -5   0   3  141.69    7.50
  -4   0   3   34.80    2.50
  -4   0   3   36.70    3.80
  -4   0   3   39.00    3.00
  -4   0   3   32.00    4.20
  -3   0   3    4.00    3.70
  -3   0   3   -0.70    1.80
  -3   0   3   -1.30    2.40
  -3   0   3    2.40    3.10
  -2   0   3   62.59    5.50
  -2   0   3   66.99    4.10
  -1   0   3   49.30    4.00
  -1   0   3   45.50    6.10
   0   0   3  174.38    6.20
   1   0   3  901.81   15.20
   1   0   3  902.91   14.10
   2   0   3 1241.48   20.10
   2   0   3 1253.47   19.00
   3   0   3  119.19    7.80
   3   0   3  127.49    5.40
   4   0   3   80.59    6.30
   4   0   3   90.89    6.90
   5   0   3  302.57   11.10
   5   0   3  297.47    8.40
   6   0   3   -2.20    6.50
   6   0   3    3.20    4.90
   7   0   3   -1.20    7.70
   7   0   3    8.60    5.70
  -8   0  -3   91.79    7.10
   8   0   3   96.69   10.30
   8   0   3   94.69    7.30
   9   0   3    6.30    6.70
  -9   0  -3    2.30    4.20
   9   0   3   13.20    9.70
  10   0   3    2.40    7.60
 -10   0  -3   -9.20    4.30
  10   0   3    3.40   10.70
  11   0   3   12.30   11.80
  11   0   3   12.40    8.50
 -11   0  -3   -6.70    4.50
  11  -1  -3   20.30    8.10
  11  -1  -3    3.80   11.70
 -11  -1   3   17.80    6.50
 -10  -1   3  125.39   10.40
 -10  -1   3  152.28    8.50
  10   1  -3  157.28   16.70
 -10   1   3  144.69   12.00
 -10   1   3  136.49    8.10
  10   1  -3  129.79   10.40
  -9  -1   3   59.89    7.00
  -9  -1   3   49.20    5.00
  -9   1   3   54.49    5.10
  -9   1   3   35.20    4.20
  -9   1   3   39.50    7.00
  -9   1   3   50.49    6.60
  -8  -1   3   -4.10    3.40
  -8  -1   3    5.60    5.20
  -8   1   3    5.30    3.80
  -8   1   3    1.70    5.30
  -8   1   3    2.00    5.90
  -8   1   3    2.50    3.40
  -7  -1   3    8.90    4.80
  -7  -1   3    2.70    3.30
  -7   1   3   11.50    5.10
  -7   1   3   -0.80    4.30
  -7   1   3   11.30    3.30
  -7   1   3    3.30    3.10
  -6  -1   3   22.90    4.70
  -6  -1   3   26.70    2.10
  -6  -1   3   26.40    3.20
  -6  -1   3   22.60    3.10
  -6   1   3   24.30    4.40
  -6   1   3   31.40    3.70
  -6   1   3   21.10    4.90
  -6   1   3   22.40    3.10
  -6   1   3   34.10    3.30
  -5  -1   3   67.09    5.10
  -5  -1   3   70.19    3.00
  -5  -1   3   63.69    4.50
  -5  -1   3   62.69    4.00
  -5   1   3   68.09    4.30
  -5   1   3   61.79    5.40
  -5   1   3   72.09    5.30
  -5   1   3   68.29    5.00
  -5   1   3   63.99    4.80
  -4  -1   3  255.17    4.50
  -4  -1   3  257.87    6.20
  -4  -1   3  252.17    5.20
  -4  -1   3  255.77    7.70
  -4   1   3  268.57    6.90
  -4   1   3  250.47    7.00
  -4   1   3  257.27    9.10
  -4   1   3  258.17    6.20
  -4   1   3  273.47    7.80
  -3  -1   3  727.83   11.90
  -3  -1   3  728.73   13.10
  -3   1   3  723.93   12.20
  -3   1   3  733.43   13.00
  -3   1   3  729.63   11.70
  -3   1   3  710.23   13.80
  -3   1   3  748.83   12.60
  -2  -1   3  504.15    8.60
  -2  -1   3  508.05    9.60
  -2   1   3  493.35    8.50
  -2   1   3  506.45    9.70
  -2   1   3  493.05    9.30
  -2   1   3  482.15    9.20
  -2   1   3  489.35   10.80
  -1  -1   3   90.09    3.90
  -1  -1   3   92.89    5.10
  -1   1   3   90.89    3.50
  -1   1   3   96.69    5.10
  -1   1   3  103.59    4.70
   0  -1   3  328.57    7.60
   0  -1   3  332.77    6.40
   0   1   3  342.27    6.30
   0   1   3  331.77    7.50
   1  -1   3  550.54   10.50
   1  -1   3  549.74    9.40
   1   1   3  549.54    9.10
   1   1   3  528.35   10.00
   2  -1   3  239.68    6.10
   2  -1   3  251.97    7.70
   2   1   3  249.78    5.90
   2   1   3  239.08    7.60
   3  -1   3   53.79    5.50
   3  -1   3   61.69    5.20
   3   1   3   57.59    4.80
   3   1   3   56.49    5.30
   4  -1   3  571.24   13.20
   4  -1   3  555.24   11.00
   4   1   3  538.45   10.40
   4   1   3  535.55   12.60
   5  -1   3  109.59    9.30
   5  -1   3  120.39    7.00
   5   1   3  115.99    6.30
  -5   1  -3  115.99    6.10
   5   1   3  104.89    7.20
   6  -1   3   -0.40    7.00
   6  -1   3    4.00    4.80
   6   1   3    5.80    4.70
   6   1   3    1.30    6.50
  -6   1  -3    0.70    3.30
   7  -1   3   69.79    9.00
   7  -1   3   71.79    6.50
   7   1   3   63.99    6.20
   7   1   3   69.59    8.80
  -7   1  -3   50.99    4.30
   8  -1   3   30.00    9.40
   8  -1   3   27.90    6.80
   8   1   3   10.20    9.00
  -8   1  -3   13.90    4.30
   8   1   3   21.40    6.40
   9  -1   3   99.69    8.40
   9  -1   3   93.49   11.30
  -9  -1  -3   88.59    7.30
   9   1   3   89.99   12.10
  -9   1  -3   88.39    5.90
   9   1   3   98.19    8.80
  10  -1   3   22.60   10.90
  10  -1   3   45.70    8.00
 -10   1  -3   47.40    5.40
  11  -1   3   -0.50    8.30
  11  -1   3    8.60   11.40
 -11   1  -3  -15.80    4.70
  11  -2  -3    7.80   10.60
 -11  -2   3   11.70    6.30
  11  -2  -3    3.70    8.10
 -11   2   3    1.80    6.80
 -11   2   3    4.10    4.30
  10  -2  -3   16.60    7.60
 -10  -2   3   20.40    4.80
 -10  -2   3    9.90    6.10
 -10   2   3   17.20    4.30
 -10   2   3   21.00    6.90
  -9  -2   3   47.70    4.80
  -9  -2   3   56.29    6.40
  -9   2   3   52.39    7.40
  -9   2   3   50.39    4.80
  -8  -2   3  340.87   11.70
  -8  -2   3  328.77    8.80
  -8   2   3  332.97   13.70
  -8   2   3  339.37   10.30
  -7  -2   3  142.89    6.50
  -7  -2   3  142.69    8.90
  -7   2   3  146.89    8.20
  -7   2   3  140.19   10.20
  -7   2   3  145.09    7.40
  -6  -2   3  191.38    8.40
  -6  -2   3  202.38    6.20
  -6   2   3  193.08    8.20
  -6   2   3  206.58   10.20
  -6   2   3  208.88    8.30
  -6   2   3  196.48    7.60
  -6   2   3  196.38    6.10
  -5  -2   3   25.00    4.40
  -5  -2   3   27.10    3.00
  -5   2   3   28.30    4.50
  -5   2   3   18.90    3.60
  -5   2   3   23.20    5.50
  -5   2   3   26.80    3.80
  -5   2   3   22.30    2.70
  -4  -2   3  844.32   15.00
  -4  -2   3  839.52   13.80
  -4   2   3  852.81   15.10
  -4   2   3  863.71   17.20
   4   2  -3  850.11   14.00
  -4   2   3  853.81   14.70
  -4   2   3  844.42   13.60
  -4   2   3  858.71   15.50
  -3  -2   3   75.49    4.00
  -3  -2   3   68.39    5.40
  -3   2   3   74.39    6.10
  -3   2   3   74.49    5.00
  -3   2   3   71.49    3.40
  -3   2   3   65.59    6.40
   3   2  -3   79.49    5.30
  -3   2   3   66.79    5.60
  -2  -2   3  459.25    8.20
  -2  -2   3  456.55    9.30
  -2   2   3  457.45    7.70
  -2   2   3  451.85   11.50
   2   2  -3  476.85    7.40
   2   2  -3  456.75    9.70
  -2   2   3  457.55    9.50
  -2   2   3  473.45   10.30
  -2   2   3  469.45    8.80
  -1  -2   3  408.66    8.50
  -1  -2   3  406.36    7.40
  -1   2   3  408.26   10.00
  -1   2   3  404.86    8.50
   1   2  -3  413.66    9.30
  -1   2   3  410.76   11.00
  -1   2   3  417.26    7.80
  -1   2   3  412.26    6.90
   1   2  -3  416.06    7.30
   0  -2   3   13.90    3.40
   0  -2   3   20.10    2.60
   0   2  -3   15.40    2.40
   0   2   3   18.90    4.20
   0   2   3   22.80    2.70
   0   2   3   17.30    1.80
   0   2  -3   14.30    4.00
   1  -2   3   85.29    5.90
   1  -2   3   89.99    4.30
   1   2   3   90.39    3.50
  -1   2  -3   87.99    4.80
  -1   2  -3  102.99    6.60
   1   2   3   95.89    4.80
   2  -2   3  738.03   13.60
   2  -2   3  755.32   12.50
   2   2   3  738.53   12.70
   2   2   3  757.12   11.80
  -2   2  -3  757.02   12.90
   3  -2   3  771.22   13.30
   3  -2   3  788.12   15.00
  -3   2  -3  794.92   13.90
   3   2   3  785.02   12.80
   3   2   3  788.62   14.10
   4  -2   3   95.89    6.00
   4  -2   3   95.89    8.70
   4   2   3   94.79    7.30
   4   2   3  108.09    5.10
  -4   2  -3  107.59    6.20
   5  -2   3   77.89    6.70
   5  -2   3   74.99    6.90
   5   2   3   85.69    6.70
   5   2   3   79.99    5.80
  -5   2  -3   65.69    4.50
   6  -2   3   14.60    5.10
   6  -2   3   15.80    7.10
  -6   2  -3   22.60    3.90
   7  -2   3    5.50    7.80
   7  -2   3    7.10    5.80
  -7   2  -3   19.10    4.30
   8  -2   3    8.40    8.80
   8  -2   3    1.30    6.50
  -8   2  -3   -7.90    4.40
   9  -2   3   25.20    9.60
   9  -2   3   33.90    7.50
  -9   2  -3   37.70    5.40
  10  -2   3   12.60   10.00
  10  -2   3    8.80    7.70
 -10   2  -3   -2.80    5.10
  10  -3  -3    1.60    9.60
  10  -3  -3    0.10    7.00
 -10  -3   3    1.20    5.90
 -10  -3   3    5.80    4.20
 -10   3   3    3.30    6.90
 -10   3   3    3.60    4.40
  -9  -3   3   -0.70    3.80
  -9  -3   3   -7.70    5.40
  -9   3   3   -0.60    4.30
  -9   3   3    1.80    6.90
  -8  -3   3   55.99    6.10
  -8  -3   3   54.89    4.40
  -8   3   3   45.10    6.80
  -8   3   3   34.10    7.60
  -8   3   3   45.10    5.20
  -7  -3   3  106.29    6.20
  -7  -3   3  101.89    8.30
  -7   3   3  105.29    9.50
  -7   3   3   92.09    8.00
  -7   3   3   96.99    8.60
  -6  -3   3 1080.39   18.00
  -6  -3   3 1102.49   19.70
  -6   3   3 1086.79   22.80
  -6   3   3 1094.39   19.90
  -6   3   3 1123.89   21.00
  -5  -3   3  226.88    6.40
  -5  -3   3  234.18    8.30
  -5   3   3  237.38    8.70
  -5   3   3  242.58   10.00
  -5   3   3  223.98   11.50
  -4  -3   3  114.19    6.20
  -4  -3   3  115.29    4.60
   4   3  -3  110.49    7.20
  -4   3   3   96.99    9.40
  -4   3   3  108.99    7.10
  -4   3   3  110.19    7.80
  -3  -3   3  234.38    7.00
  -3  -3   3  230.48    5.70
  -3   3   3  243.08    8.00
  -3   3   3  230.18   10.30
  -3   3   3  237.28    9.00
  -2  -3   3   14.60    3.10
  -2  -3   3   11.20    2.30
  -2   3   3    9.90    5.30
  -2   3   3   14.10    4.80
  -2   3   3    8.50    3.20
   2   3  -3    9.50    2.00
   2   3  -3   11.30    4.50
   2   3  -3    9.20    3.30
  -1  -3   3   96.29    5.00
   1  -3  -3   94.29    6.30
  -1  -3   3   95.49    3.90
  -1   3   3   87.29    5.80
  -1   3   3   91.29    8.40
  -1   3   3   86.89    7.50
   1   3  -3   90.79    4.60
   1   3  -3   91.59    7.10
   0  -3   3  705.43   12.30
   0  -3  -3  735.63   11.40
   0  -3   3  716.53   11.40
   0  -3  -3  724.93   12.00
   0   3  -3  717.33   12.50
   0   3  -3  688.93   14.80
   0   3   3  716.93   14.80
   1  -3   3  502.25    8.90
   1  -3   3  502.35    9.90
   1   3   3  504.95   12.00
  -1   3  -3  497.25   12.10
  -1   3  -3  491.95   10.00
   2  -3   3   21.10    3.10
   2  -3   3   16.00    4.30
  -2   3  -3   26.50    5.40
  -2   3  -3   21.30    3.40
   3  -3   3   67.19    5.20
   3  -3   3   61.19    5.60
  -3   3  -3   57.39    4.20
  -3   3  -3   67.29    6.20
   4  -3   3   11.40    4.10
   4  -3   3   13.60    5.70
  -4   3  -3   19.00    5.60
  -4   3  -3   10.60    4.00
   5  -3   3   79.59    7.50
   5  -3   3   83.19    7.00
  -5   3  -3   94.29    7.90
  -5   3  -3   82.89    7.20
   6  -3   3   32.40    7.40
   6  -3   3   14.60    5.40
  -6   3  -3   23.00    4.70
  -6   3  -3   24.00    6.70
   7  -3   3   12.40    8.00
   7  -3   3   10.60    5.90
  -7   3  -3    4.90    6.90
  -7   3  -3    9.50    4.80
   8  -3   3   23.40    8.40
   8  -3   3   23.20    6.40
  -8   3  -3   22.10    7.10
  -8   3  -3   20.00    5.20
   9  -3   3   23.70    9.10
   9  -3   3   21.70    7.00
  -9   3  -3   26.00    5.70
  -9   3  -3   22.70    7.60
  10  -3   3   -0.30    9.40
 -10   3  -3   -3.80    7.60
 -10   3  -3   -4.50    5.30
  -9  -4   3   16.90    6.00
   9  -4  -3    6.60    6.40
   9  -4  -3    7.70    8.70
  -9  -4   3   15.60    4.20
  -9   4   3    8.50    8.40
  -9   4   3   12.30    5.30
  -8  -4   3   84.49    6.00
  -8  -4   3   84.09    6.70
  -8   4   3   65.39    6.20
  -8   4   3  106.19   11.10
  -8   4   3   82.19    9.80
  -7  -4   3   43.90    4.00
  -7  -4   3   32.20    5.40
  -7   4   3   34.00    7.30
  -7   4   3   40.90    8.70
  -7   4   3   29.30    5.00
  -6  -4   3   23.30    3.60
  -6  -4   3   29.30    5.00
  -6   4   3   15.90    7.60
  -6   4   3   27.60    6.70
  -6   4   3   11.30    4.80
  -5  -4   3    2.30    4.20
  -5  -4   3    3.70    2.90
  -5   4   3   -3.40    4.40
  -5   4   3   -0.60    7.10
  -5   4   3    0.30    6.10
   5   4  -3   -1.60    5.90
  -4  -4   3   60.59    4.70
  -4  -4   3   57.49    4.50
  -4   4   3   68.39    8.40
   4   4  -3   67.09    6.70
  -4   4   3   55.39    5.30
  -4   4   3   52.69    6.90
  -3  -4   3   21.40    3.90
  -3  -4   3   18.30    2.80
  -3   4   3   17.00    4.60
  -3   4   3   11.90    6.40
  -3   4   3   15.40    7.10
   3   4  -3   20.00    6.30
  -2  -4   3   13.10    2.60
  -2  -4   3   14.40    3.50
  -2   4   3    7.80    6.40
   2   4  -3   18.00    5.90
  -2   4   3   14.80    4.20
  -2   4   3    9.10    6.90
  -1  -4   3   16.30    3.40
  -1  -4   3   12.30    2.50
  -1   4   3   12.50    4.00
   1   4  -3    8.20    5.90
  -1   4   3    8.50    6.70
  -1   4   3   27.60    6.60
   0  -4   3    0.50    3.10
   0  -4   3   -0.30    2.50
   0   4  -3    1.50    3.40
   0   4   3   -2.50    5.70
   0   4  -3   10.60    6.10
   1  -4   3   55.49    4.30
   1  -4   3   53.89    4.30
  -1   4  -3   38.60    4.30
  -1   4  -3   63.69    7.30
   1   4   3   42.00    6.70
   2  -4   3   79.49    5.00
   2  -4   3   85.49    6.80
  -2   4  -3   66.99    5.00
   2   4   3   85.69    8.30
  -2   4  -3   81.89    7.80
   3  -4   3  123.99    7.90
   3  -4   3  131.19    6.00
  -3   4  -3  126.89   10.70
  -3   4  -3  137.59    8.70
   4  -4   3   51.49    4.60
   4  -4   3   38.20    6.10
  -4   4  -3   49.20    7.70
  -4   4  -3   46.50    5.20
   5  -4   3   49.90    5.00
   5  -4   3   44.50    6.70
  -5   4  -3   62.19    7.80
  -5   4  -3   44.10    5.50
   6  -4   3   35.00    5.50
   6  -4   3   35.70    7.50
  -6   4  -3   38.20    7.50
  -6   4  -3   33.80    5.30
   7  -4   3   16.40    7.70
   7  -4   3   10.80    5.60
  -7   4  -3    9.70    5.40
  -7   4  -3   15.60    7.00
   8  -4   3    4.80    8.20
   8  -4   3   12.50    6.30
  -8   4  -3   10.00    7.10
  -8   4  -3   -4.20    5.20
  -7  -5   3   16.20    5.30
   7  -5  -3   -3.90    5.30
  -7  -5   3    4.10    3.50
   7  -5  -3   10.00    7.50
  -7   5   3   -3.50    8.60
  -7   5   3    7.00    7.40
  -7   5   3   -5.70    5.40
  -6  -5   3   11.30    3.30
  -6  -5   3   20.00    4.80
  -6   5   3   23.60    8.90
  -6   5   3   18.00    5.50
  -6   5   3   17.80    7.10
  -5  -5   3    1.30    4.00
  -5  -5   3    7.10    3.10
  -5   5   3    2.40    8.20
  -5   5   3   -3.00    5.10
  -5   5   3    4.10    6.80
  -4   5   3    4.50    4.90
  -4   5   3  -10.90    7.90
  -4   5   3    4.10    7.20
   4   5  -3    7.80    7.20
  -3   5   3   12.00    4.90
  -3   5   3    3.70    7.50
  -3   5   3   11.50    8.50
   3   5  -3   -5.90    7.20
   2   5  -3    8.50    7.30
  -2   5   3    4.30    7.40
  -2   5   3   -3.70    8.10
  -2   5   3    8.70    4.90
  -1   5   3   57.99    5.40
  -1   5   3   64.69    9.20
  -1   5   3   45.00    7.70
   1   5  -3   59.49    8.10
   0   5   3    6.70    7.60
   0   5  -3   -3.90    7.40
   1   5   3    1.90    7.10
  -1   5  -3   -0.40    5.10
  -1   5  -3   -6.40    8.30
  -1   5  -3   -0.90    7.60
   2   5   3   11.20    8.10
  -2   5  -3    5.20    4.80
  -2   5  -3   21.20    8.10
   3  -5   3   35.60    5.50
   3  -5   3   41.70    4.00
  -3   5  -3   42.80    5.30
  -3   5  -3   46.00    8.70
   4  -5   3   35.20    4.30
   4  -5   3   28.40    5.70
  -4   5  -3   28.30    7.80
  -4   5  -3   26.20    5.50
   5  -5   3   -2.70    6.00
   5  -5   3    0.30    4.40
  -5   5  -3   -3.30    5.20
  -5   5  -3    3.80    7.50
   6  -5   3    4.50    5.00
   6  -5   3    1.30    6.90
  -6   5  -3   12.50    7.80
  -6   5  -3    4.00    5.60
   7  -5   3   23.70    5.50
   7  -5   3   15.50    7.70
  -7   5  -3   27.90    6.30
  -7   5  -3   33.10    8.70
   4   6  -3    9.70    9.00
  -4   6   3    0.80    5.80
  -4   6   3    6.00    8.50
  -4   6   3   16.50    9.80
  -3   6   3    6.20    5.80
   3   6  -3   -2.00    8.80
  -3   6   3   -2.30    8.60
  -3   6   3    4.60    9.90
  -2   6   3    1.30    8.50
   2   6  -3   -1.00    8.30
  -2   6   3    9.20    5.40
  -2   6   3   12.30    9.60
  -1   6   3    0.80    8.70
   1   6  -3   -1.00    8.50
   0   6   3   16.60    9.60
   0   6  -3   27.40    8.80
  -1   6  -3   12.40    8.70
   1   6   3   10.60    9.30
  -2   6  -3   26.60    8.70
   2   6   3   12.90    9.90
  -3   6  -3   11.80    8.90
  -4   6  -3    7.80    9.20
 -11   0   4   31.30    5.70
  11   0  -4   23.30    8.50
 -11   0   4   30.60    6.80
 -10   0   4   15.20    4.80
 -10   0   4   17.80    6.40
  -9   0   4   35.20    6.50
  -9   0   4   41.80    4.80
  -8   0   4    9.50    5.30
  -8   0   4   11.70    3.00
  -8   0   4   10.10    4.70
  -8   0   4   10.70    3.90
  -7   0   4    5.70    3.40
  -7   0   4    2.30    2.50
  -7   0   4    8.40    4.90
  -7   0   4    0.00    4.10
  -6   0   4  167.08    6.30
  -6   0   4  178.48    8.20
  -6   0   4  173.88    5.60
  -6   0   4  163.88    7.30
  -5   0   4  336.47    9.60
  -5   0   4  329.77    8.50
  -5   0   4  335.17    7.80
  -5   0   4  339.07    7.10
  -4   0   4   24.70    4.80
  -4   0   4   24.80    2.40
  -4   0   4   26.90    3.60
  -4   0   4   26.20    3.10
  -3   0   4    0.60    2.60
  -3   0   4    8.70    4.10
  -2   0   4   -1.30    2.50
  -2   0   4    1.70    3.80
  -1   0   4 1476.75   23.30
  -1   0   4 1534.05   22.40
   0   0   4 2274.17   33.40
   0   0   4 2226.38   32.60
   1   0   4  427.36   10.10
   1   0   4  432.26    8.40
   2   0   4  598.84   12.30
   2   0   4  575.84   10.60
   3   0   4  846.32   14.40
   3   0   4  844.42   16.00
   4   0   4    6.40    5.50
   4   0   4   12.00    3.90
   5   0   4   20.40    6.80
   5   0   4   21.60    4.50
   6   0   4   41.90    7.50
   6   0   4   37.80    5.30
   7   0   4  260.27    9.90
   7   0   4  262.17   13.40
  -8   0  -4  110.29    7.40
   8   0   4   99.99    7.50
   8   0   4  112.59   10.50
  -9   0  -4   -4.00    4.20
   9   0   4   -0.30   10.20
   9   0   4   -0.50    6.70
 -10   0  -4   -4.30    4.60
  10   0   4  -12.40   10.40
  10   0   4   -6.00    7.80
 -11   0  -4   -4.40    5.10
  11   0   4    3.20    7.80
  11   0   4   -0.10   11.40
 -11  -1   4   20.40    5.40
 -11  -1   4   14.60    6.80
 -10  -1   4  116.09    8.30
 -10  -1   4  112.79    8.20
 -10   1   4  114.99   10.40
 -10   1   4  117.59   10.30
 -10   1   4  120.69    8.20
  -9  -1   4   27.10    6.40
  -9  -1   4   35.60    4.70
  -9   1   4   35.80    4.70
  -9   1   4   20.00    3.80
  -9   1   4   31.70    6.40
  -9   1   4   28.70    6.00
  -8  -1   4   17.30    4.10
  -8  -1   4   15.70    6.00
  -8   1   4   12.30    3.40
  -8   1   4    6.80    5.30
  -8   1   4   15.10    5.10
  -8   1   4   17.70    3.80
  -7  -1   4   30.90    3.80
  -7  -1   4   28.80    5.40
  -7   1   4   22.70    5.40
  -7   1   4   22.00    4.90
  -7   1   4   25.60    3.50
  -7   1   4   41.00    4.00
  -6  -1   4    2.60    3.30
  -6  -1   4    1.70    3.00
  -6  -1   4    2.20    4.60
  -6  -1   4    4.30    2.00
  -6   1   4   -0.10    2.70
  -6   1   4    3.20    4.70
  -6   1   4   -4.50    3.90
  -6   1   4   -1.80    2.70
  -5  -1   4   52.99    4.60
  -5  -1   4   55.59    4.90
  -5   1   4   41.20    4.70
  -5   1   4   52.49    4.90
  -5   1   4   47.40    5.20
  -5   1   4   54.59    3.50
  -5   1   4   39.90    3.40
  -4  -1   4  930.41   16.60
  -4  -1   4  928.51   15.30
  -4   1   4  968.70   15.20
  -4   1   4  954.60   16.70
  -4   1   4  933.41   17.10
  -4   1   4  955.40   15.80
  -4   1   4  918.11   15.10
  -3  -1   4 1184.88   18.10
  -3  -1   4 1169.98   19.20
  -3   1   4 1165.68   17.90
  -3   1   4 1172.78   18.00
  -3   1   4 1147.69   18.50
  -3   1   4 1155.08   19.20
  -3   1   4 1127.09   19.90
  -2  -1   4  161.88    6.50
  -2  -1   4  177.38    5.20
  -2   1   4  169.28    4.90
  -2   1   4  169.18    6.70
  -2   1   4  170.78    5.30
  -1  -1   4  330.77    6.90
  -1  -1   4  339.07    8.20
  -1   1   4  343.27    7.90
  -1   1   4  333.37    6.80
   0  -1   4  381.26    7.70
   0  -1   4  396.86    8.90
   0   1   4  383.66    7.40
   0   1   4  387.26    8.50
   1  -1   4    0.60    3.10
   1  -1   4   -0.70    4.10
   1   1   4    6.70    2.70
   1   1   4    0.60    3.80
   2  -1   4  621.64   13.10
   2  -1   4  608.44   11.10
   2   1   4  616.44   12.30
   2   1   4  620.14   10.90
   3  -1   4 1000.30   16.60
   3  -1   4 1020.00   18.40
   3   1   4 1031.50   18.20
   3   1   4 1012.80   16.40
   4  -1   4   73.49    5.50
   4  -1   4   56.29    6.40
   4   1   4   65.29    4.50
   4   1   4   71.79    6.20
   5  -1   4  271.17   11.00
   5  -1   4  246.08    8.00
   5   1   4  250.57    7.80
   5   1   4  256.07   10.20
   6  -1   4  107.49    8.60
   6  -1   4   91.39    7.70
   6   1   4  104.29    7.40
  -6   1  -4  116.89    6.90
   6   1   4  113.39    8.40
   7  -1   4  102.19    8.50
   7  -1   4  114.39    9.90
   7   1   4  114.89    7.90
  -7   1  -4  117.49    7.60
   7   1   4  116.69    9.20
   8  -1   4   26.10    9.70
   8  -1   4   36.30    7.10
   8   1   4   39.30    6.30
  -8   1  -4   28.10    4.50
   8   1   4   44.50    9.30
   9  -1   4   43.00   10.40
   9  -1   4   60.09    8.00
  -9   1  -4   44.50    5.20
 -10  -1  -4   15.00    4.70
  10  -1   4   31.40   11.20
  10  -1   4   19.40    8.10
 -10   1  -4   12.60    4.90
 -11  -2   4    7.90    4.90
 -11  -2   4   -4.50    6.60
 -11   2   4    5.10    7.00
 -11   2   4    0.50    4.20
 -10  -2   4   21.70    4.80
 -10  -2   4   16.60    6.30
 -10   2   4    9.40    6.60
 -10   2   4    6.20    4.00
  -9  -2   4   21.90    6.20
  -9  -2   4   35.90    4.60
  -9   2   4   34.50    7.00
  -9   2   4   18.80    4.10
  -8  -2   4  189.48    7.70
  -8  -2   4  180.68   10.10
  -8   2   4  209.38    8.50
  -8   2   4  178.38   11.60
  -7  -2   4   47.10    5.80
  -7  -2   4   45.70    4.10
  -7   2   4   58.79    6.90
  -7   2   4   53.29    4.40
  -6  -2   4   15.50    3.30
  -6  -2   4   14.90    4.90
  -6   2   4   10.80    4.30
  -6   2   4   15.60    3.00
  -6   2   4   18.20    5.90
  -6   2   4   11.30    3.60
  -6   2   4   18.10    4.50
  -5  -2   4  113.79    5.10
  -5  -2   4  123.39    7.40
  -5   2   4  116.69    6.70
  -5   2   4  109.69    6.70
  -5   2   4  101.39    9.10
  -5   2   4  110.69    7.00
  -5   2   4  113.49    4.70
  -4  -2   4  161.48    5.40
  -4  -2   4  152.98    7.10
  -4   2   4  151.48    7.10
  -4   2   4  151.68    6.50
  -4   2   4  160.48    6.60
  -4   2   4  158.08    4.80
  -4   2   4  142.09    8.80
   4   2  -4  149.49    5.40
  -3  -2   4   19.70    3.00
  -3  -2   4   17.50    4.30
  -3   2   4   22.40    4.30
  -3   2   4   15.70    3.60
  -3   2   4   22.60    3.40
  -3   2   4   21.90    5.30
  -3   2   4   23.90    2.50
   3   2  -4   22.80    3.40
  -2  -2   4  785.82   12.70
  -2  -2   4  773.52   13.80
  -2   2   4  780.62   13.30
  -2   2   4  781.32   13.90
   2   2  -4  783.12   13.70
  -2   2   4  779.22   15.90
  -2   2   4  772.52   14.20
   2   2  -4  769.22   11.80
  -2   2   4  769.02   12.30
  -1  -2   4  703.33   12.80
  -1  -2   4  697.83   11.70
   1   2  -4  722.13   11.30
  -1   2   4  711.73   13.40
   1   2  -4  710.93   13.00
  -1   2   4  718.03   12.20
  -1   2   4  701.63   11.20
   0  -2   4  405.96    8.00
   0  -2   4  398.56    9.40
   0   2  -4  423.56    9.80
   0   2   4  405.06    7.30
   0   2   4  410.26    8.40
   0   2  -4  418.06    7.80
   1  -2   4  647.04   12.30
   1  -2   4  635.54   11.10
   1   2   4  622.24   10.40
   1   2   4  645.94   11.50
  -1   2  -4  638.24   11.20
   2  -2   4  296.77    7.20
   2  -2   4  289.87    8.90
  -2   2  -4  270.87    7.10
   2   2   4  280.67    6.40
   2   2   4  285.77    7.70
   3  -2   4   42.80    5.40
   3  -2   4   43.00    3.90
   3   2   4   37.50    3.30
   3   2   4   41.70    4.80
  -3   2  -4   37.20    3.30
   4  -2   4    4.70    3.90
   4  -2   4    3.00    5.80
  -4   2  -4    5.20    3.10
   4   2   4    6.50    5.10
   4   2   4    6.30    3.50
   5  -2   4   65.19    5.10
   5  -2   4   58.39    7.20
  -5   2  -4   48.90    4.30
   6  -2   4   13.80    7.60
   6  -2   4   10.90    5.30
  -6   2  -4    0.60    3.70
   7  -2   4   22.70    8.50
   7  -2   4   24.90    6.50
  -7   2  -4   23.50    4.70
   8  -2   4   -0.60    8.80
   8  -2   4    3.20    6.70
  -8   2  -4    0.30    4.70
   9  -2   4    3.70    7.30
   9  -2   4   -5.50    9.70
  -9   2  -4    1.00    4.70
  10  -2   4   18.00    8.00
  10  -2   4   21.10   10.30
 -10   2  -4   15.30    5.60
 -10  -3   4    2.90    5.80
 -10  -3   4   12.50    4.30
 -10   3   4    2.90    4.40
 -10   3   4    4.10    7.20
  -9  -3   4    3.80    5.40
  -9  -3   4    4.80    4.00
  -9   3   4    1.30    7.00
  -9   3   4    6.90    4.50
  -8  -3   4   -0.50    3.70
  -8  -3   4    4.10    5.50
  -8   3   4   -0.90    4.30
  -8   3   4   -1.30    7.10
  -7  -3   4    7.40    5.20
  -7  -3   4    4.90    3.50
  -7   3   4    6.00    4.30
  -7   3   4    4.50    6.90
  -7   3   4    9.10    5.90
  -6  -3   4   48.80    5.70
  -6  -3   4   56.09    4.20
  -6   3   4   53.19    7.80
  -6   3   4   40.50    4.80
  -6   3   4   47.50    6.10
  -5  -3   4   77.69    7.00
  -5  -3   4   78.79    5.10
  -5   3   4   71.19    5.10
  -5   3   4   82.79    8.40
  -5   3   4   88.69    7.90
  -4  -3   4   47.60    4.60
  -4  -3   4   41.30    3.40
  -4   3   4   47.10    5.60
   4   3  -4   51.99    4.80
  -4   3   4   44.20    4.50
  -4   3   4   43.00    6.70
  -3  -3   4   36.40    3.20
  -3  -3   4   47.20    4.30
  -3   3   4   46.60    6.30
  -3   3   4   41.90    4.20
  -3   3   4   48.90    5.40
   3   3  -4   42.60    4.80
  -2  -3   4  106.19    6.10
  -2  -3   4  113.29    4.70
   2   3  -4  111.39    7.50
  -2   3   4  129.89    6.70
  -2   3   4  119.69    9.20
  -2   3   4  118.69    7.80
  -1  -3   4   47.20    4.10
  -1  -3   4   45.40    4.30
   1   3  -4   45.50    2.90
  -1   3   4   46.00    5.20
   1   3  -4   46.50    5.40
  -1   3   4   50.09    6.20
  -1   3   4   48.30    3.90
   0  -3   4  329.27    7.00
   0  -3   4  337.07    8.40
   0   3  -4  346.57   10.10
   0   3  -4  340.37    7.70
   0   3   4  345.87   10.40
   1  -3   4  217.38    6.10
   1  -3   4  199.98    7.40
  -1   3  -4  217.88    9.00
  -1   3  -4  224.98    6.90
   2  -3   4   52.99    5.30
   2  -3   4   60.79    3.90
  -2   3  -4   52.29    3.80
  -2   3  -4   54.79    5.80
   3  -3   4   80.49    5.70
   3  -3   4   85.19    7.70
  -3   3  -4   93.69    6.50
  -3   3  -4   91.89    8.50
   4  -3   4   17.50    4.40
   4  -3   4   20.20    6.10
  -4   3  -4   24.00    6.30
  -4   3  -4   22.30    4.20
   5  -3   4   94.79    7.50
   5  -3   4   74.49    7.80
  -5   3  -4   91.99    8.20
  -5   3  -4   91.29    9.80
   6  -3   4   -2.90    5.10
   6  -3   4   -6.00    7.00
  -6   3  -4    1.20    4.60
   7  -3   4   11.90    5.80
   7  -3   4    1.50    7.90
  -7   3  -4    9.10    4.70
   8  -3   4    4.90    8.40
   8  -3   4    9.70    6.30
  -8   3  -4    4.80    4.90
   9  -3   4   -0.40    8.70
   9  -3   4   -2.70    6.50
  -9   3  -4    4.00    5.20
  -9  -4   4   11.90    5.60
  -9  -4   4   12.90    4.10
  -9   4   4   13.00    8.50
  -9   4   4   17.80    5.30
  -8  -4   4   17.60    5.70
  -8  -4   4   21.20    4.00
  -8   4   4   21.90    8.30
  -8   4   4   22.00    5.30
  -7  -4   4   14.60    3.80
  -7  -4   4   20.50    5.50
  -7   4   4   19.10    6.60
  -7   4   4    1.20    7.80
  -7   4   4   18.20    5.20
  -6  -4   4   35.50    3.80
  -6  -4   4   35.30    5.40
  -6   4   4   37.50    5.30
  -6   4   4   21.10    7.40
  -6   4   4   48.90    6.90
  -5  -4   4   47.20    3.80
  -5  -4   4   46.60    5.20
  -5   4   4   40.10    6.90
  -5   4   4   51.29    8.30
  -5   4   4   30.40    5.10
  -4  -4   4   -3.10    4.20
  -4  -4   4   -0.50    3.00
  -4   4   4    5.90    4.30
  -4   4   4   -3.20    5.90
  -4   4   4    2.90    6.80
   4   4  -4   -2.50    5.60
  -3  -4   4   15.30    4.30
  -3  -4   4   13.70    3.00
   3   4  -4   16.30    6.20
  -3   4   4   14.80    4.50
  -3   4   4   12.80    7.30
  -3   4   4   25.70    6.50
  -2  -4   4  134.99    6.60
  -2  -4   4  132.99    5.10
  -2   4   4  138.99   11.60
   2   4  -4  139.79    9.80
  -2   4   4  134.09   10.70
  -2   4   4  146.59    8.20
  -1  -4   4  142.39    6.70
  -1  -4   4  142.39    5.20
   1   4  -4  156.18   10.40
  -1   4   4  152.38   11.40
  -1   4   4  151.48   10.40
  -1   4   4  138.49    8.40
   0  -4   4   42.60    3.40
   0  -4   4   48.20    4.30
   0   4   4   41.90    7.10
   0   4  -4   39.50    4.10
   0   4  -4   64.49    7.00
   1  -4   4   45.00    4.80
   1  -4   4   45.90    3.70
  -1   4  -4   42.60    4.40
   1   4   4   55.19    7.70
  -1   4  -4   37.00    6.90
   2  -4   4    7.60    4.90
   2  -4   4    7.30    3.60
  -2   4  -4    4.10    4.20
  -2   4  -4    8.80    6.70
   3  -4   4   30.90    4.20
   3  -4   4   46.90    5.90
  -3   4  -4   40.20    7.30
  -3   4  -4   37.70    4.90
   4  -4   4    6.10    5.80
   4  -4   4    5.20    4.30
  -4   4  -4   11.10    7.10
  -4   4  -4    6.80    4.40
   5  -4   4   38.70    5.10
   5  -4   4   35.80    6.90
  -5   4  -4   36.20    5.40
  -5   4  -4   46.10    7.50
   6  -4   4   12.70    7.20
   6  -4   4    4.30    5.20
  -6   4  -4   -3.50    4.80
  -6   4  -4    1.30    6.90
   7  -4   4   -1.20    5.50
   7  -4   4    1.30    7.90
  -7   4  -4   10.70    7.30
  -7   4  -4   -0.60    5.30
   8  -4   4   -7.80    7.80
   8  -4   4    1.00    5.70
  -8   4  -4   -0.70    7.20
  -8   4  -4   -0.70    5.20
  -7  -5   4   -2.70    3.50
  -7  -5   4  -10.10    5.00
  -7   5   4   -7.00    7.60
  -7   5   4   -2.00    5.20
  -7   5   4   -0.90    6.90
  -6  -5   4   10.70    3.60
  -6  -5   4   13.10    5.00
  -6   5   4   16.30    7.30
  -6   5   4   14.70    7.90
  -6   5   4    1.00    5.30
  -5  -5   4    2.90    3.10
  -5  -5   4    5.60    4.60
  -5   5   4   16.30    7.10
  -5   5   4   13.70    8.00
  -5   5   4    5.50    5.00
  -4  -5   4   48.90    3.60
  -4  -5   4   60.39    5.10
  -4   5   4   45.20    5.70
  -4   5   4   59.09    9.30
  -4   5   4   44.60    7.90
   4   5  -4   44.70    7.80
  -3   5   4   61.39    5.80
   3   5  -4   51.69    7.90
  -3   5   4   70.29    9.00
  -3   5   4   65.79    8.20
  -2   5   4   56.49    9.60
   2   5  -4   44.70    8.00
  -2   5   4   36.60    5.30
  -2   5   4   49.00    7.90
   1   5  -4   29.60    7.70
  -1   5   4   30.60    7.80
   0   5  -4   20.90    7.70
   0   5   4   26.40    8.00
   1  -5   4    4.00    6.90
  -1   5  -4   15.10    7.70
   1   5   4    4.30    7.40
   2  -5   4    1.00    3.50
   2  -5   4    7.70    4.70
  -2   5  -4   -0.30    4.70
  -2   5  -4    9.60    7.80
   3  -5   4   20.90    4.10
   3  -5   4   24.80    5.40
  -3   5  -4   21.80    7.70
  -3   5  -4   23.70    5.20
   4  -5   4   31.50    4.70
   4  -5   4   30.00    6.40
  -4   5  -4   26.80    5.60
  -4   5  -4   37.20    8.10
   5  -5   4   71.39    7.40
   5  -5   4   75.09    5.60
  -5   5  -4   69.69    6.60
  -5   5  -4   82.19    9.00
   6  -5   4   20.20    7.20
   6  -5   4   14.40    5.30
  -6   5  -4   20.80    6.20
  -6   5  -4   26.90    8.30
  -4   6   4   16.10    8.60
  -4   6   4    4.40    5.80
  -4   6   4   -6.50    9.80
   3   6  -4  -10.00    8.70
  -3   6   4    1.10    8.10
  -3   6   4    3.70   10.10
  -3   6   4   13.50    5.70
  -2   6   4   19.70    9.40
   2   6  -4   19.70    8.40
  -2   6   4   28.80    6.00
  -2   6   4   20.90    8.70
  -1   6   4    2.60    9.30
   1   6  -4    3.60    8.10
   0   6  -4   32.10    8.80
   0   6   4   16.60    8.90
  -1   6  -4   27.90    9.00
   1   6   4   16.50    9.70
  -2   6  -4   18.00    9.00
  -3   6  -4   38.60    9.80
 -11   0   5   57.79    6.10
 -11   0   5   41.80    7.50
 -10   0   5   29.70    6.90
 -10   0   5   35.20    5.00
  -9   0   5   26.30    4.70
  -9   0   5   19.30    6.20
  -8   0   5   53.59    4.80
  -8   0   5   35.60    6.70
  -7   0   5   63.79    6.60
  -7   0   5   63.09    4.90
  -7   0   5   58.69    5.00
  -7   0   5   63.59    4.60
  -6   0   5  200.48    5.80
  -6   0   5  192.28    8.90
  -6   0   5  196.58    6.80
  -6   0   5  192.48    7.60
  -5   0   5  282.77    8.10
  -5   0   5  291.37    6.60
  -5   0   5  287.07    7.30
  -5   0   5  284.07    9.30
  -4   0   5   63.09    5.50
  -4   0   5   61.89    5.10
  -3   0   5  393.76    8.30
  -3   0   5  386.36   10.10
  -2   0   5  177.88    5.70
  -2   0   5  159.08    7.30
  -1   0   5  314.37    7.30
  -1   0   5  314.77    8.60
   0   0   5  131.89    6.80
   0   0   5  132.79    5.40
   1   0   5 1476.45   22.60
   1   0   5 1492.15   23.80
   2   0   5   52.79    4.20
   2   0   5   44.60    5.60
   3   0   5  200.08    7.00
   3   0   5  222.48    9.50
   4   0   5    8.70    5.90
   4   0   5   21.60    4.30
   5   0   5  176.98    7.80
   5   0   5  161.08   10.90
   6   0   5  251.37    9.30
   6   0   5  243.08   12.30
   7   0   5  504.95   17.00
   7   0   5  496.25   12.40
   8   0   5  262.57   10.60
   8   0   5  267.97   16.10
   9   0   5   68.89   10.80
   9   0   5   76.39    7.80
  -9   0  -5   78.79    5.70
  10   0   5   19.20    7.70
 -10   0  -5   22.30    5.00
  10   0   5   15.10   10.60
 -11  -1   5   11.80    6.50
 -11  -1   5   24.70    5.30
 -10  -1   5  104.79    6.30
 -10  -1   5  111.49    9.00
 -10   1   5  103.59    8.10
 -10   1   5  103.39    8.00
  -9  -1   5   26.90    4.90
  -9  -1   5   12.00    6.40
  -9   1   5   19.10    3.70
  -9   1   5   18.50    6.00
  -9   1   5   22.80    4.30
  -9   1   5   15.70    5.70
  -8  -1   5   87.29    7.20
  -8  -1   5  102.39    7.20
  -8   1   5   99.69    6.90
  -8   1   5  105.39    9.80
  -8   1   5  103.79    9.00
  -8   1   5  103.29    6.50
  -7  -1   5  133.99    9.30
  -7  -1   5  118.39    6.70
  -7   1   5  129.99    9.40
  -7   1   5  133.99    6.50
  -7   1   5  131.29    6.60
  -7   1   5  128.79    9.20
  -6  -1   5   62.49    5.80
  -6  -1   5   68.29    4.30
  -6   1   5   52.69    3.80
  -6   1   5   67.69    5.60
  -6   1   5   52.99    5.40
  -6   1   5   64.59    5.20
  -5  -1   5  178.78    8.40
  -5  -1   5  191.88    6.40
  -5   1   5  181.18    8.10
  -5   1   5  173.68    8.30
  -5   1   5  187.08    6.60
  -5   1   5  184.38    6.10
  -4  -1   5  401.26   10.30
  -4  -1   5  405.06    8.60
  -4   1   5  391.36    9.90
  -4   1   5  404.56    8.80
  -4   1   5  402.06    8.00
  -4   1   5  395.06   10.80
  -4   1   5  384.76    8.10
  -3  -1   5  168.58    7.60
  -3  -1   5  179.48    5.80
  -3   1   5  179.38    5.50
  -3   1   5  164.18    7.60
  -3   1   5  180.78    5.80
  -2  -1   5  102.59    7.30
  -2  -1   5  113.59    5.10
  -2   1   5  106.59    4.60
  -2   1   5  103.59    6.30
  -1  -1   5  755.02   12.90
  -1  -1   5  763.92   14.20
  -1   1   5  769.22   13.90
  -1   1   5  775.62   12.60
   0  -1   5  182.38    5.90
   0  -1   5  172.08    7.40
   0   1   5  171.58    7.00
   0   1   5  190.48    5.50
   1  -1   5  395.16    8.60
   1  -1   5  388.86   10.40
   1   1   5  409.36    9.60
   1   1   5  415.56    8.20
   2  -1   5   10.40    3.50
   2  -1   5   21.10    5.40
   2   1   5   13.50    4.70
   2   1   5   22.90    3.60
   3  -1   5   40.80    6.00
   3  -1   5   40.40    4.10
   3   1   5   47.30    4.00
   3   1   5   46.00    5.60
   4  -1   5  257.87    8.20
   4  -1   5  276.27   10.50
   4   1   5  277.97    7.90
   4   1   5  272.57   10.10
   5  -1   5  304.27    9.10
   5  -1   5  313.27   11.60
   5   1   5  307.67   11.30
   5   1   5  301.07    8.80
   6  -1   5  224.28   12.00
   6  -1   5  200.88    9.10
   6   1   5  210.68    8.90
   6   1   5  222.08   11.90
   7  -1   5   79.69    9.90
   7  -1   5   69.79    6.90
   7   1   5   82.29    9.20
   7   1   5   78.59    6.70
  -7   1  -5   61.19    4.90
   8  -1   5    4.90    6.40
   8  -1   5   10.30    9.70
  -8   1  -5    0.80    4.20
   8   1   5    8.00    6.30
   8   1   5    9.70    9.10
   9  -1   5  117.49    8.60
   9  -1   5  117.99   12.00
  -9   1  -5  133.29    9.40
  10  -1   5   30.90    8.20
 -10  -1  -5    6.10    4.40
  10  -1   5   46.00   11.70
 -10   1  -5   19.70    5.50
 -11  -2   5    2.40    6.40
 -11  -2   5    5.50    4.80
 -11   2   5    4.50    8.80
 -11   2   5    1.80    4.50
 -10  -2   5   37.00    5.10
 -10  -2   5   17.10    6.70
 -10   2   5   20.10    7.20
 -10   2   5   29.60    4.50
  -9  -2   5    0.80    6.00
  -9  -2   5    4.80    4.30
  -9   2   5    3.80    6.20
  -9   2   5   -0.70    3.90
  -8  -2   5   26.30    6.00
  -8  -2   5   31.40    4.30
  -8   2   5   15.60    6.50
  -8   2   5   23.60    4.20
  -7  -2   5   -3.60    3.50
  -7  -2   5   -1.00    5.20
  -7   2   5    2.30    3.70
  -7   2   5  -13.00    5.60
  -6  -2   5   54.39    4.10
  -6  -2   5   41.00    5.40
  -6   2   5   49.60    8.30
  -6   2   5   47.90    6.50
  -6   2   5   45.60    4.20
  -5  -2   5   17.20    4.80
  -5  -2   5   12.80    3.30
  -5   2   5    5.80    5.30
  -5   2   5   16.40    3.60
  -5   2   5   19.30    4.20
  -5   2   5   11.90    2.90
  -5   2   5    5.50    4.10
  -4  -2   5   10.20    4.50
  -4  -2   5   19.70    3.20
  -4   2   5    9.50    5.20
  -4   2   5   20.70    2.80
  -4   2   5   19.60    3.50
  -4   2   5   18.40    4.20
  -4   2   5   23.80    4.20
  -3  -2   5  288.57    6.90
  -3  -2   5  303.87    8.70
  -3   2   5  285.37    8.00
   3   2  -5  271.57    7.20
  -3   2   5  298.77   10.70
  -3   2   5  287.77    8.20
  -3   2   5  295.77    6.40
  -3   2   5  297.47    8.50
  -2  -2   5  474.95    9.20
  -2  -2   5  457.95   10.70
  -2   2   5  472.65    8.60
   2   2  -5  484.35    9.80
  -2   2   5  483.65   10.00
  -2   2   5  473.95   10.60
  -1  -2   5  689.63   13.30
  -1  -2   5  697.03   11.90
  -1   2   5  688.73   11.40
   1   2  -5  683.93   12.90
  -1   2   5  719.33   12.60
   0  -2   5  113.99    7.00
   0  -2   5  141.79    5.50
   0   2   5  131.29    6.20
   0   2   5  135.49    4.60
   1  -2   5   95.59    5.30
   1  -2   5   97.49    7.10
   1   2   5   97.29    5.80
   1   2   5   97.29    4.50
   2  -2   5  113.89    5.70
   2  -2   5  109.79    7.80
   2   2   5  109.99    4.90
   2   2   5   99.69    6.70
   3  -2   5    9.60    5.50
   3  -2   5    0.30    3.80
   3   2   5   -1.70    4.70
   3   2   5   10.90    3.40
  -3   2  -5    6.60    3.00
   4  -2   5   79.69    6.50
   4  -2   5   75.19    6.90
   4   2   5   80.99    6.50
  -4   2  -5   92.09    6.30
   5  -2   5   92.79    7.40
   5  -2   5   84.59    7.60
  -5   2  -5   97.89    7.10
   6  -2   5   -2.50    5.30
   6  -2   5    2.50    7.40
  -6   2  -5    1.30    3.80
   7  -2   5   64.59    6.80
   7  -2   5   62.29    9.40
  -7   2  -5   55.69    5.00
   8  -2   5    1.50    6.40
   8  -2   5    7.60    9.00
  -8   2  -5    9.60    4.90
   9  -2   5   18.10   10.30
   9  -2   5   16.00    7.20
  -9   2  -5    6.80    5.10
  10  -2   5   18.60   10.70
  10  -2   5    5.60    7.70
 -10   2  -5    4.80    5.50
 -10  -3   5   10.10    4.40
 -10  -3   5    8.20    6.10
 -10   3   5    6.20    4.50
 -10   3   5    2.30    7.20
  -9  -3   5   14.10    6.00
  -9  -3   5    6.80    4.20
  -9   3   5   -1.60    4.40
  -9   3   5   13.10    7.40
  -8  -3   5   70.69    6.70
  -8  -3   5   73.09    5.10
  -8   3   5   57.79    5.40
  -8   3   5   66.69    8.40
  -7  -3   5   47.00    6.30
  -7  -3   5   54.79    4.50
  -7   3   5   39.20    4.90
  -7   3   5   30.90    7.10
  -6  -3   5   14.30    3.70
  -6  -3   5    8.60    5.40
  -6   3   5   20.50    5.60
  -6   3   5   11.30    6.20
  -6   3   5   14.20    4.40
  -5  -3   5   49.30    4.00
  -5  -3   5   50.49    5.50
  -5   3   5   52.79    7.40
  -5   3   5   45.50    6.00
  -5   3   5   41.00    4.70
  -4  -3   5   34.20    5.10
  -4  -3   5   28.30    3.50
  -4   3   5   22.00    6.50
  -4   3   5   34.30    5.70
  -4   3   5   23.00    4.40
  -3  -3   5   39.70    3.40
  -3  -3   5   41.10    5.00
  -3   3   5   37.60    6.60
  -3   3   5   45.70    5.50
   3   3  -5   40.40    4.70
  -3   3   5   40.80    4.30
  -2  -3   5   20.70    4.40
  -2  -3   5   17.90    3.30
  -2   3   5   20.20    3.80
  -2   3   5   13.40    5.00
  -2   3   5   21.70    5.70
   2   3  -5   22.70    4.90
  -1  -3   5   37.90    4.60
  -1  -3   5   37.30    3.40
   1   3  -5   35.40    5.10
  -1   3   5   25.20    5.10
   1   3  -5   28.80    2.80
   0  -3   5   59.19    4.70
   0  -3   5   50.79    4.80
   0   3  -5   46.10    3.30
   0   3  -5   50.49    5.60
   1  -3   5  204.48    6.70
   1  -3   5  211.88    8.10
  -1   3  -5  215.88    6.60
  -1   3  -5  197.58    8.80
   2  -3   5   76.99    5.90
   2  -3   5   82.29    5.90
  -2   3  -5   74.99    5.90
  -2   3  -5   83.99    8.20
   3  -3   5   75.69    6.80
   3  -3   5   70.39    4.90
  -3   3  -5   88.49    7.20
  -3   3  -5   83.09    6.60
   4  -3   5   10.40    4.50
   4  -3   5   21.50    6.20
  -4   3  -5   13.20    3.90
   5  -3   5   37.50    7.20
   5  -3   5   34.50    5.30
  -5   3  -5   24.50    4.70
   6  -3   5   31.50    7.60
   6  -3   5   42.40    5.90
  -6   3  -5   42.30    5.30
   7  -3   5   18.70    6.00
   7  -3   5   14.50    8.00
  -7   3  -5   15.60    5.00
   8  -3   5  -12.10    8.30
   8  -3   5    1.10    6.30
  -8   3  -5    4.50    5.10
   9  -3   5   -2.00    9.10
   9  -3   5    0.50    6.80
  -9   3  -5   -2.60    5.20
  -9  -4   5   -2.90    5.90
  -9  -4   5    2.50    4.10
  -9   4   5   -2.90    8.00
  -9   4   5   -2.30    4.80
  -8  -4   5   36.40    4.60
  -8  -4   5   40.40    6.40
  -8   4   5   40.20    5.60
  -8   4   5   34.10    8.20
  -7  -4   5    7.10    3.70
  -7  -4   5    1.80    5.50
  -7   4   5    4.40    4.70
  -7   4   5    9.70    7.80
  -7   4   5    8.30   10.10
  -6  -4   5    3.30    3.60
  -6  -4   5   10.70    5.20
  -6   4   5    8.50    6.20
  -6   4   5    4.90    6.80
  -6   4   5    8.90    4.90
  -5  -4   5   18.20    3.60
  -5  -4   5   24.20    5.20
  -5   4   5   20.10    6.80
  -5   4   5   20.00    4.90
  -5   4   5   19.00    7.70
  -4  -4   5   72.89    5.60
  -4  -4   5   71.09    5.60
  -4   4   5   64.39    7.50
  -4   4   5   68.49    8.60
  -4   4   5   60.59    5.60
  -3  -4   5  143.49    6.00
  -3  -4   5  142.49    7.80
   3   4  -5  146.59   10.00
  -3   4   5  140.79    8.70
  -3   4   5  137.59   10.70
  -2  -4   5   77.69    7.00
  -2  -4   5   79.79    5.20
   2   4  -5   83.29    7.10
  -2   4   5   70.59    7.40
  -2   4   5   89.19    7.90
  -2   4   5   72.99    8.40
  -1  -4   5   84.69    5.30
  -1  -4   5   86.49    7.20
   1   4  -5   83.29    7.50
  -1   4   5   80.69    7.70
   0  -4   5   29.00    4.70
   0  -4   5   27.40    3.60
   0   4  -5   24.50    6.70
   0   4   5   16.90    7.00
   1  -4   5   81.69    7.10
   1  -4   5   72.99    5.50
  -1   4  -5   76.09    7.50
  -1   4  -5   84.49    7.20
   2  -4   5   29.80    5.50
   2  -4   5   21.90    4.00
  -2   4  -5   22.90    4.40
  -2   4  -5   21.10    6.90
   3  -4   5   56.79    4.80
   3  -4   5   69.59    6.60
  -3   4  -5   61.29    5.30
  -3   4  -5   70.09    8.00
   4  -4   5   40.20    6.80
   4  -4   5   35.90    5.10
  -4   4  -5   33.30    5.10
  -4   4  -5   27.20    7.30
   5  -4   5   -2.90    4.80
   5  -4   5    9.50    6.60
  -5   4  -5   -1.60    4.90
  -5   4  -5   -2.00    6.60
   6  -4   5    3.80    5.30
   6  -4   5    0.80    6.90
  -6   4  -5    1.20    6.90
  -6   4  -5    8.00    5.30
   7  -4   5   15.70    5.80
   7  -4   5   23.50    8.00
  -7   4  -5   18.40    5.60
  -7   4  -5   23.60    7.80
   8  -4   5   16.90    8.40
  -8   4  -5    6.70    5.70
  -8   4  -5   17.90    8.00
  -7  -5   5   21.30    4.20
  -7  -5   5   26.80    6.00
  -7   5   5   16.60    7.70
  -7   5   5   35.60    5.80
  -7   5   5   10.50    8.50
  -6  -5   5   25.10    5.70
  -6  -5   5   23.20    3.90
  -6   5   5   20.10    5.50
  -6   5   5   28.70    7.50
  -6   5   5   23.20    8.90
  -5  -5   5   13.40    3.70
  -5  -5   5   12.70    5.10
  -5   5   5   21.10    5.60
  -5   5   5   15.10    7.10
  -5   5   5    5.70    8.30
  -4  -5   5   12.70    3.40
  -4  -5   5   11.30    4.80
  -4   5   5   12.50    8.50
  -4   5   5   16.00    7.10
  -4   5   5    6.20    5.30
  -3  -5   5    4.90    4.50
  -3  -5   5    7.00    3.20
   3   5  -5    1.90    6.90
  -3   5   5   11.50    7.10
  -3   5   5   27.60    9.00
  -3   5   5   -0.30    4.90
  -2  -5   5   10.60    3.30
  -2  -5   5    9.70    4.70
   2   5  -5    9.80    7.20
  -2   5   5   18.80    7.60
  -1  -5   5   10.70    4.60
  -1  -5   5   11.70    3.40
  -1   5   5    9.50    7.50
   1   5  -5   26.30    7.40
   0  -5   5    2.70    4.50
   0  -5   5    3.60    3.40
   0   5  -5   -0.70    7.40
   0   5   5    2.80    7.70
   1  -5   5   23.80    4.70
   1  -5   5   23.60    3.60
  -1   5  -5   32.20    7.90
   2  -5   5    1.80    3.70
   2  -5   5    7.10    5.00
  -2   5  -5   -5.00    7.90
  -2   5  -5   12.20    7.60
   3  -5   5   12.90    5.80
   3  -5   5    9.40    4.10
  -3   5  -5   12.00    7.80
  -3   5  -5   13.10    5.10
   4  -5   5   22.50    4.70
   4  -5   5   25.80    6.40
  -4   5  -5   38.50    8.20
  -4   5  -5   22.00    5.60
   5  -5   5   25.90    7.20
   5  -5   5   29.30    5.30
  -5   5  -5   31.60    5.80
  -5   5  -5   54.59    8.80
   6  -5   5   25.10    7.70
   6  -5   5    9.30    5.30
  -6   5  -5   20.40    8.10
  -6   5  -5   11.50    6.00
  -3   6   5    9.70    5.70
  -3   6   5    4.30    9.60
  -3   6   5   -1.20    8.10
  -2   6   5   -1.60    8.20
   2   6  -5   -1.50    8.30
   1   6  -5    7.60    8.30
  -1   6   5   -7.10    8.30
   0   6  -5    6.90    8.10
   0   6   5  -12.40    8.80
  -1   6  -5   12.80    8.60
  -2   6  -5    8.10    8.60
 -11   0   6   16.50    7.80
 -11   0   6   14.30    5.40
 -10   0   6   13.90    7.20
 -10   0   6   17.70    5.00
  -9   0   6    0.60    6.50
  -9   0   6    3.90    4.40
  -8   0   6   -2.50    5.80
  -8   0   6    0.60    4.00
  -7   0   6   19.20    2.80
  -7   0   6   25.90    4.50
  -7   0   6   21.70    5.80
  -7   0   6   14.40    4.00
  -6   0   6  472.05   10.40
  -6   0   6  469.85   13.00
  -6   0   6  490.25    9.40
  -5   0   6  769.52   15.90
  -5   0   6  792.12   14.10
  -4   0   6  170.28    8.40
  -4   0   6  169.38    6.30
  -3   0   6  713.63   12.70
  -3   0   6  725.23   14.40
  -2   0   6  514.65   10.20
  -2   0   6  511.35   11.90
  -1   0   6   36.90    5.00
  -1   0   6   37.50    3.80
   0   0   6   21.60    5.30
   0   0   6   22.40    3.80
   1   0   6    0.70    4.80
   1   0   6   -7.00    3.60
   2   0   6  195.18    6.90
   2   0   6  201.38    8.80
   3   0   6  171.48    9.80
   3   0   6  171.58    6.90
   4   0   6   22.80    4.50
   4   0   6   10.60    6.40
   5   0   6  311.77   12.30
   5   0   6  331.27    9.90
   6   0   6   37.90    8.20
   6   0   6   51.49    5.90
   7   0   6  346.37   15.40
   7   0   6  341.47   10.90
   8   0   6   60.69   10.00
   8   0   6   65.99    7.40
   9   0   6   29.70    7.10
   9   0   6   37.60   10.40
  10   0   6    7.60   10.70
  10   0   6    1.60    7.50
 -10   0  -6   -2.70    5.10
 -11  -1   6    4.50    6.70
 -11  -1   6    4.50    4.70
 -10  -1   6    6.40    6.70
 -10  -1   6   16.30    5.00
 -10   1   6   19.90    5.10
 -10   1   6   12.30    6.60
  -9  -1   6   18.60    4.80
  -9  -1   6   25.70    7.20
  -9   1   6   16.00    4.50
  -9   1   6   20.80    6.10
  -9   1   6   16.20    6.60
  -9   1   6   16.00    4.20
  -8  -1   6   28.10    6.70
  -8  -1   6   34.40    4.80
  -8   1   6   33.90    3.80
  -8   1   6   32.30    6.00
  -8   1   6   34.10    6.20
  -8   1   6   41.70    4.70
  -7  -1   6   73.99    7.00
  -7  -1   6   86.49    6.80
  -7   1   6   99.49    6.40
  -7   1   6   91.89    6.40
  -7   1   6   97.09    8.50
  -7   1   6   81.59    6.70
  -6  -1   6   59.09    6.10
  -6  -1   6   68.29    4.70
  -6   1   6   64.79    4.40
  -6   1   6   66.49    5.80
  -6   1   6   55.09    5.80
  -6   1   6   53.99    5.80
  -5  -1   6   63.89    5.20
  -5  -1   6   80.09    6.30
  -5   1   6   66.79    5.20
  -5   1   6   52.39    5.50
  -5   1   6   72.99    5.30
  -5   1   6   77.19    6.00
  -4  -1   6   85.69    6.00
  -4  -1   6   73.29    5.50
  -4   1   6   82.79    7.00
  -4   1   6   94.19    5.40
  -3  -1   6  535.35   12.00
  -3  -1   6  547.85   10.50
  -3   1   6  541.25   10.20
  -3   1   6  525.75   11.70
  -2  -1   6  141.19    7.50
  -2  -1   6  134.09    5.70
  -2   1   6  125.69    6.90
  -2   1   6  126.49    5.40
  -1  -1   6  386.26   10.00
  -1  -1   6  371.16    8.40
  -1   1   6  362.16    9.90
  -1   1   6  377.16    8.00
   0  -1   6  531.95   11.80
   0  -1   6  528.75   10.20
   0   1   6  525.85   11.50
   0   1   6  520.35   10.00
   1  -1   6  549.74   10.60
   1  -1   6  571.44   12.60
   1   1   6  561.54   12.20
   1   1   6  577.04   10.60
   2  -1   6  115.39    8.40
   2  -1   6  107.69    5.80
   2   1   6  113.49    5.80
   2   1   6  110.29    7.30
   3  -1   6  242.98   10.70
   3  -1   6  266.47    8.00
   3   1   6  260.47   10.20
   3   1   6  259.07    7.50
   4  -1   6   51.79    5.20
   4  -1   6   47.50    7.20
   4   1   6   43.60    4.70
   4   1   6   48.00    6.80
   5  -1   6  147.19   11.70
   5  -1   6  132.99    7.70
   5   1   6  149.88   11.30
   5   1   6  163.18    8.00
   6  -1   6   99.39    8.60
   6  -1   6   94.89    9.20
   6   1   6  102.09    8.80
   6   1   6  106.19    7.70
   7  -1   6   27.00    8.90
   7  -1   6   33.60    6.70
   7   1   6   37.60    8.80
   7   1   6   49.90    6.50
   8  -1   6   10.40    6.80
   8  -1   6    5.30    9.20
  -8   1  -6   12.20    4.40
   9  -1   6   34.30    7.60
   9  -1   6   22.70    9.80
  -9   1  -6   30.70    5.10
  10  -1   6    5.40   10.70
  10  -1   6    5.40    7.40
 -10   1  -6    6.30    5.20
 -10  -2   6   17.60    6.80
 -10  -2   6    4.20    4.60
 -10   2   6    3.40    6.70
 -10   2   6   -1.50    4.00
  -9  -2   6   30.80    4.80
  -9  -2   6   31.40    6.60
  -9   2   6   20.50    6.50
  -9   2   6   20.50    4.30
  -8  -2   6    3.20    5.90
  -8  -2   6   -6.90    3.90
  -8   2   6    3.20    5.90
  -8   2   6   -0.50    3.60
  -7  -2   6   16.70    4.10
  -7  -2   6   11.80    5.80
  -7   2   6   10.60    6.10
  -7   2   6   11.10    3.90
  -6  -2   6   10.50    5.30
  -6  -2   6   13.40    3.80
  -6   2   6   10.70    3.70
  -6   2   6    9.00    5.70
  -5  -2   6   89.29    6.40
  -5  -2   6   96.29    5.80
  -5   2   6  108.69    9.50
  -5   2   6   86.49    6.70
  -5   2   6  103.39    8.80
  -5   2   6  103.69    6.50
  -5   2   6  102.89    7.80
  -4  -2   6   73.49    5.70
  -4  -2   6   72.49    5.80
  -4   2   6   57.69    6.60
  -4   2   6   80.79    6.90
  -4   2   6   66.19    6.60
  -4   2   6   69.89    5.40
  -4   2   6   71.39    4.80
  -3  -2   6  118.59    5.60
  -3  -2   6  124.49    7.80
   3   2  -6  108.99    5.70
  -3   2   6  113.79    6.90
  -3   2   6  109.49    4.90
  -3   2   6  111.69    7.00
  -2  -2   6  154.28    7.70
  -2  -2   6  163.48    5.90
  -2   2   6  156.78    5.30
   2   2  -6  156.48    6.40
  -2   2   6  161.98    7.30
  -1  -2   6  118.49    7.60
  -1  -2   6  116.39    5.60
  -1   2   6  109.59    4.70
  -1   2   6  115.29    6.40
   1   2  -6  110.59    6.90
   0  -2   6   47.50    3.90
   0  -2   6   32.80    5.00
   0   2   6   45.20    3.20
   0   2   6   45.90    4.50
   1  -2   6    6.00    3.60
   1  -2   6   12.40    5.00
   1   2   6   15.20    4.50
   1   2   6   11.30    3.10
   2  -2   6   25.10    4.20
   2  -2   6   31.40    5.80
   2   2   6   32.40    4.90
   2   2   6   21.20    3.60
   3  -2   6  343.87   11.10
   3  -2   6  319.47    9.00
   3   2   6  322.07   10.60
   4  -2   6  315.07   11.70
   4  -2   6  319.47    9.30
  -4   2  -6  323.87    9.00
   5  -2   6  142.79    8.40
   5  -2   6  159.18   10.70
  -5   2  -6  145.89    7.90
   6  -2   6   42.50    6.30
   6  -2   6   36.30    8.10
  -6   2  -6   30.80    4.80
   7  -2   6   10.70    8.10
   7  -2   6   18.10    6.30
  -7   2  -6    9.90    4.40
   8  -2   6    8.10    6.70
   8  -2   6   16.40    8.90
  -8   2  -6   13.70    5.00
   9  -2   6    6.40    7.10
   9  -2   6   -0.80    9.00
  -9   2  -6   -2.60    5.20
 -10  -3   6    3.80    6.40
 -10  -3   6    6.90    4.50
 -10   3   6    3.90    4.50
  -9  -3   6    4.70    6.00
  -9  -3   6    2.80    4.20
  -9   3   6    7.30    4.40
  -9   3   6    2.50    6.70
  -8  -3   6    6.40    6.10
  -8  -3   6    9.80    4.10
  -8   3   6    5.00    6.60
  -8   3   6    6.90    4.40
  -7  -3   6   49.00    4.70
  -7  -3   6   43.80    6.50
  -7   3   6   43.40    5.00
  -7   3   6   31.40    7.20
  -6  -3   6   61.59    6.30
  -6  -3   6   54.69    4.50
  -6   3   6   52.99    5.20
  -6   3   6   59.99    8.00
  -5  -3   6   17.80    5.40
  -5  -3   6   21.80    3.90
  -5   3   6   18.30    4.50
  -5   3   6   25.80    5.70
  -5   3   6   16.10    6.40
  -4  -3   6    9.10    5.00
  -4  -3   6   13.10    3.60
  -4   3   6    9.70    6.30
  -4   3   6    8.70    4.30
  -4   3   6   15.10    5.40
  -3  -3   6    1.50    3.30
  -3  -3   6   -1.80    4.70
  -3   3   6    6.10    5.20
   3   3  -6   10.90    4.60
  -3   3   6    1.60    3.80
  -2  -3   6   44.30    5.40
  -2  -3   6   42.60    3.90
  -2   3   6   51.59    5.90
   2   3  -6   48.00    5.40
  -1  -3   6  145.69    6.00
  -1  -3   6  144.19    8.20
   1   3  -6  129.89    5.50
   1   3  -6  137.09    8.30
   0  -3   6   53.39    4.10
   0  -3   6   49.20    5.40
   0   3  -6   46.00    3.40
   0   3  -6   56.49    5.70
   1  -3   6  303.27    8.00
   1  -3   6  300.87   10.00
  -1   3  -6  287.87   10.10
  -1   3  -6  294.07    8.00
   2  -3   6  360.86   11.20
   2  -3   6  370.56    9.10
  -2   3  -6  342.97   12.00
  -2   3  -6  358.36    9.30
   3  -3   6  153.78    7.50
   3  -3   6  158.98    9.70
  -3   3  -6  158.38    7.80
   4  -3   6   21.50    7.00
   4  -3   6   13.70    5.00
  -4   3  -6   11.20    4.20
   5  -3   6    7.60    7.10
   5  -3   6    7.20    5.10
  -5   3  -6    2.20    4.30
   6  -3   6   -0.30    5.50
   6  -3   6    4.60    7.40
  -6   3  -6    5.80    4.70
   7  -3   6   -1.30    6.00
   7  -3   6    4.60    7.90
  -7   3  -6   -0.70    5.00
   8  -3   6   20.10    8.50
   8  -3   6   12.00    6.40
  -8   3  -6    7.10    5.40
  -8  -4   6   10.80    6.10
  -8  -4   6   23.00    4.30
  -8   4   6   16.00    7.90
  -8   4   6   26.50    5.50
  -7  -4   6    4.00    4.00
  -7  -4   6    4.20    5.70
  -7   4   6    1.20    7.30
  -7   4   6   -0.20    4.70
  -6  -4   6   10.30    3.90
  -6  -4   6    2.60    5.50
  -6   4   6   17.10    7.70
  -6   4   6    4.90    4.80
  -6   4   6   12.50    6.50
  -5  -4   6   24.40    5.60
  -5  -4   6   26.10    4.00
  -5   4   6   28.70    5.10
  -5   4   6   21.60    7.80
  -5   4   6   38.90    6.80
  -4  -4   6   82.29    6.00
  -4  -4   6   76.09    6.20
  -4   4   6   98.69    9.40
  -4   4   6   91.69    7.80
  -4   4   6  108.39    8.60
  -3  -4   6    4.00    5.00
  -3  -4   6    6.20    3.50
  -3   4   6    7.80    4.60
  -3   4   6   -2.30    6.40
  -2  -4   6    7.50    4.90
  -2  -4   6   11.60    3.60
   2   4  -6   10.50    6.10
  -2   4   6    1.60    6.00
  -1  -4   6    8.80    3.60
  -1  -4   6    1.00    4.90
   1   4  -6   15.10    6.50
  -1   4   6    5.90    6.80
   0  -4   6   17.50    5.00
   0  -4   6   10.10    3.70
   0   4  -6   17.20    6.70
   1  -4   6   18.30    5.40
   1  -4   6   11.90    3.90
  -1   4  -6   19.10    6.60
  -1   4  -6   11.00    4.10
   2  -4   6   51.79    4.70
   2  -4   6   54.09    6.30
  -2   4  -6   50.99    7.40
  -2   4  -6   43.30    4.80
   3  -4   6  205.78    8.20
   3  -4   6  221.28   10.60
  -3   4  -6  211.18   11.70
  -3   4  -6  212.68    9.70
   4  -4   6   76.79    7.60
   4  -4   6   70.19    5.60
  -4   4  -6   77.89    8.20
  -4   4  -6   75.49    5.70
   5  -4   6   16.80    7.20
   5  -4   6   16.50    5.30
  -5   4  -6   12.80    5.20
  -5   4  -6   -3.30    7.10
   6  -4   6    6.20    5.40
   6  -4   6   17.90    7.70
  -6   4  -6   15.30    7.70
  -6   4  -6    6.30    5.50
   7  -4   6    2.40    5.90
   7  -4   6   11.30    8.00
  -7   4  -6    2.80    7.80
  -7   4  -6    2.00    5.70
  -6  -5   6    7.30    3.90
  -6  -5   6   12.70    5.70
  -6   5   6    6.90    7.20
  -6   5   6    8.40    5.40
  -6   5   6    7.80    8.00
  -5  -5   6   -2.50    3.70
  -5  -5   6   -6.30    5.20
  -5   5   6    7.90    8.60
  -5   5   6    4.70    6.90
  -5   5   6    0.90    5.30
  -4  -5   6    6.40    3.60
  -4  -5   6   -2.00    5.10
  -4   5   6    4.90    5.10
  -4   5   6    7.30    8.10
  -4   5   6    3.70    6.90
  -3  -5   6    6.40    5.00
  -3  -5   6    6.40    3.60
  -3   5   6   17.20    7.40
  -2  -5   6   14.90    4.80
  -2  -5   6   10.30    3.40
  -2   5   6   14.80    7.50
   2   5  -6   29.50    7.10
  -1  -5   6   11.80    3.60
  -1  -5   6    7.30    5.00
  -1   5   6   14.40    7.70
   1   5  -6   15.40    7.60
   0  -5   6    2.60    4.90
   0  -5   6    8.80    3.60
   0   5  -6   20.30    7.70
   1  -5   6   12.70    3.80
   1  -5   6   13.00    5.10
  -1   5  -6   32.50    7.70
   2  -5   6   -1.50    4.10
   2  -5   6    3.20    5.40
  -2   5  -6    2.30    7.20
   3  -5   6   11.70    4.50
   3  -5   6   19.70    6.10
  -3   5  -6   17.00    7.60
  -3   5  -6   15.90    5.30
   4  -5   6   -0.60    6.30
   4  -5   6   -3.70    4.60
  -4   5  -6    0.30    5.40
  -4   5  -6   -5.50    7.30
   5  -5   6   34.00    5.40
   5  -5   6   39.00    7.40
  -5   5  -6   36.80    6.20
  -5   5  -6   45.80    8.50
   1   6  -6    0.50    8.00
  -1   6   6   -0.80    8.60
   0   6  -6   -3.60    8.00
 -11   0   7    6.90    7.70
 -11   0   7   -0.10    5.00
 -10   0   7   -0.60    7.00
 -10   0   7    1.90    5.00
  -9   0   7   -5.50    4.30
  -9   0   7  -13.00    6.60
  -8   0   7   51.69    5.30
  -8   0   7   45.10    7.20
  -7   0   7   72.99    7.30
  -7   0   7   77.19    5.20
  -6   0   7   11.10    3.90
  -6   0   7    9.50    5.90
  -5   0   7   -6.20    5.10
  -5   0   7   13.40    3.80
  -4   0   7    4.10    3.50
  -4   0   7    3.60    5.00
  -3   0   7    2.60    4.70
  -3   0   7    2.90    3.20
  -2   0   7    5.30    3.30
  -2   0   7    9.20    4.80
  -1   0   7  223.78    6.80
  -1   0   7  231.98    8.90
   0   0   7  212.08    7.10
   0   0   7  208.68    9.10
   1   0   7   60.19    6.20
   1   0   7   51.59    4.40
   2   0   7  297.37   10.10
   2   0   7  291.07    8.20
   3   0   7  127.09   10.10
   3   0   7  128.29    6.90
   4   0   7  170.58   10.90
   4   0   7  174.28    7.60
   5   0   7   62.69    6.10
   5   0   7   59.79    8.60
   6   0   7   -3.30    8.30
   6   0   7    1.90    5.90
   7   0   7   11.30    8.50
   7   0   7   10.70    6.10
   8   0   7   10.50    6.70
   8   0   7    0.40    8.80
   9   0   7   -2.00    9.20
   9   0   7   -3.10    7.10
 -11  -1   7    5.90    5.20
 -11  -1   7    8.80    7.60
 -10  -1   7   20.70    7.60
 -10  -1   7    7.20    5.00
  -9  -1   7   -2.80    4.50
  -9  -1   7    9.10    7.00
  -9   1   7   10.40    6.30
  -9   1   7    9.30    4.50
  -8  -1   7    0.30    6.40
  -8  -1   7   10.20    4.60
  -8   1   7    6.70    5.90
  -8   1   7   10.00    3.40
  -8   1   7   16.20    5.70
  -8   1   7   20.30    4.40
  -7  -1   7    4.10    4.10
  -7  -1   7   10.50    6.10
  -7   1   7    0.70    5.50
  -7   1   7   13.10    4.00
  -7   1   7    9.00    3.20
  -7   1   7   11.60    5.50
  -6  -1   7   27.30    6.40
  -6  -1   7   16.50    4.10
  -6   1   7   24.60    5.60
  -6   1   7   25.30    4.00
  -6   1   7   18.70    3.20
  -5  -1   7   73.69    4.80
  -5  -1   7   68.29    6.40
  -5   1   7   61.59    4.30
  -5   1   7   78.89    6.60
  -4  -1   7   42.40    4.10
  -4  -1   7   42.90    6.10
  -4   1   7   45.50    5.60
  -4   1   7   46.10    3.90
  -3  -1   7  289.07    7.90
  -3  -1   7  282.77    9.60
  -3   1   7  288.47    7.50
  -3   1   7  278.77    9.50
  -2  -1   7   26.00    5.60
  -2  -1   7   30.30    3.90
  -2   1   7   18.60    4.90
  -2   1   7   30.30    3.50
  -1  -1   7   12.00    3.80
  -1  -1   7    7.10    5.30
  -1   1   7   14.90    4.80
  -1   1   7   17.10    3.30
   0  -1   7   75.39    5.50
   0  -1   7   68.19    6.00
   0   1   7   67.59    5.60
   0   1   7   71.89    5.30
   1  -1   7   48.90    5.80
   1  -1   7   50.49    4.40
   1   1   7   50.49    5.50
   1   1   7   48.10    4.10
   2  -1   7  204.38    9.50
   2  -1   7  208.88    7.40
   2   1   7  210.98    7.50
   2   1   7  202.48    9.50
   3  -1   7   29.30    4.80
   3  -1   7   29.30    6.40
   3   1   7   23.70    6.20
   3   1   7   24.40    4.40
   4  -1   7   99.19    8.30
   4  -1   7   96.09    7.70
   4   1   7   86.09    7.80
   4   1   7  100.29    7.00
   5  -1   7  254.07    9.90
   5  -1   7  237.78   12.90
   5   1   7  244.98    9.00
   5   1   7  236.58   12.70
   6  -1   7  139.89    9.00
   6  -1   7  115.89    9.90
   6   1   7  134.79    9.90
   6   1   7  139.49    8.90
   7  -1   7  118.69    9.50
   7  -1   7  103.89   10.10
   7   1   7  101.89    9.50
   8  -1   7   28.20    9.20
   8  -1   7   37.50    7.30
  -8   1  -7   12.90    4.90
   9  -1   7   11.30    7.60
   9  -1   7   31.00   10.40
  -9   1  -7    5.50    5.30
 -10  -2   7    7.80    4.70
 -10  -2   7    4.60    6.60
 -10   2   7   13.10    7.10
 -10   2   7   11.40    4.10
  -9  -2   7   29.60    7.00
  -9  -2   7   31.50    4.90
  -9   2   7   39.70    7.30
  -9   2   7   28.50    4.30
  -8  -2   7   32.30    6.60
  -8  -2   7   53.59    5.10
  -8   2   7   54.89    7.50
  -8   2   7   52.29    4.80
  -7  -2   7  111.19    7.30
  -7  -2   7  105.19    7.80
  -7   2   7  114.19    7.40
  -7   2   7  116.99   10.60
  -6  -2   7   92.09    7.20
  -6  -2   7   92.09    6.80
  -6   2   7   81.19    7.60
  -6   2   7   88.29    7.10
  -5  -2   7   66.99    6.50
  -5  -2   7   57.59    4.60
  -5   2   7   70.39    7.00
  -5   2   7   57.69    4.60
  -4  -2   7    5.00    3.50
  -4  -2   7   11.50    5.40
  -3  -2   7   94.89    8.30
  -3  -2   7   87.69    5.90
  -3   2   7   90.19    7.70
  -3   2   7   85.69    5.30
  -2  -2   7    0.60    3.50
  -2  -2   7    4.50    5.30
  -2   2   7   12.50    4.70
   2   2  -7    7.50    3.80
  -2   2   7    8.90    3.00
  -1  -2   7  258.57    7.60
  -1  -2   7  260.67    9.40
  -1   2   7  258.57    7.00
  -1   2   7  259.17    8.70
   0  -2   7   78.59    6.10
   0  -2   7   89.69    5.90
   0   2   7   79.89    7.00
   0   2   7   78.59    5.10
   1  -2   7  152.98    6.70
   1  -2   7  153.98    9.00
   1   2   7  154.08    6.70
   1   2   7  161.18    9.90
   2  -2   7  201.98    7.70
   2  -2   7  207.78   10.10
   3  -2   7   88.09    6.90
   3  -2   7  102.49    9.10
   4  -2   7  271.97   12.40
   4  -2   7  265.47    9.30
   5  -2   7  182.78    9.30
   5  -2   7  192.18   12.30
  -5   2  -7  195.88    8.60
   6  -2   7   55.79    6.60
   6  -2   7   60.79    8.90
  -6   2  -7   47.50    4.80
   7  -2   7   15.00    8.50
   7  -2   7   27.90    6.60
  -7   2  -7   13.90    4.90
   8  -2   7    6.40    6.80
   8  -2   7   -4.80    8.70
  -8   2  -7    2.40    4.90
   9  -2   7    2.20    9.80
   9  -2   7   11.20    7.60
  -9   2  -7    6.40    5.50
  -9  -3   7   17.30    6.60
  -9  -3   7   13.10    4.60
  -9   3   7   17.40    4.50
  -9   3   7   29.10    7.80
  -8  -3   7   20.90    6.60
  -8  -3   7   24.80    4.60
  -8   3   7   30.80    7.60
  -8   3   7   26.50    4.80
  -7  -3   7    1.20    4.00
  -7  -3   7    5.20    5.80
  -7   3   7    1.60    6.80
  -7   3   7    1.10    4.40
  -6  -3   7   46.10    4.60
  -6  -3   7   41.40    6.40
  -6   3   7   52.39    8.00
  -6   3   7   36.90    5.00
  -5  -3   7   40.80    4.50
  -5  -3   7   49.40    6.40
  -5   3   7   41.70    5.00
  -5   3   7   41.50    7.30
  -4  -3   7  118.79    9.60
  -4  -3   7  121.59    6.80
  -4   3   7  118.19    8.80
  -3  -3   7  184.18    7.10
  -3  -3   7  155.68    9.20
  -3   3   7  156.48    9.70
  -2  -3   7    7.10    5.50
  -2  -3   7    7.40    3.80
   2   3  -7   19.40    5.00
  -1  -3   7  160.08    9.20
  -1  -3   7  169.58    7.00
   1   3  -7  175.68    8.90
   0  -3   7  200.88    9.30
   0  -3   7  204.68    7.50
   0   3  -7  218.18    9.60
   0   3  -7  214.58    6.80
   1  -3   7  115.59    9.10
   1  -3   7  118.99    6.90
  -1   3  -7  109.09    8.80
  -1   3  -7  109.09    6.50
   2  -3   7   16.00    4.60
   2  -3   7    9.00    5.80
  -2   3  -7   16.20    3.80
   3  -3   7   85.79    5.80
   3  -3   7   73.99    7.50
  -3   3  -7   94.79    7.50
   4  -3   7   15.50    6.80
   4  -3   7   11.10    5.10
  -4   3  -7    3.10    4.20
   5  -3   7   17.90    7.20
   5  -3   7   12.70    5.50
  -5   3  -7    6.70    4.30
   6  -3   7    6.40    7.90
   6  -3   7    2.80    5.80
  -6   3  -7   -0.70    4.80
   7  -3   7   23.70    8.50
   7  -3   7   23.70    6.40
  -7   3  -7   18.60    5.40
   8  -3   7   64.79    9.80
   8  -3   7   25.80    7.00
  -8   3  -7   60.59    6.50
  -8  -4   7   13.30    6.40
  -8  -4   7    9.60    4.50
  -8   4   7    6.50    8.20
  -8   4   7    6.80    5.10
  -7  -4   7   20.10    4.40
  -7  -4   7   14.00    6.10
  -7   4   7   12.60    8.20
  -7   4   7   25.70    5.30
  -6  -4   7   43.70    4.70
  -6  -4   7   50.69    6.50
  -6   4   7   50.09    8.80
  -6   4   7   39.20    5.50
  -5  -4   7   38.00    4.40
  -5  -4   7   39.50    6.20
  -5   4   7   51.19    8.80
  -5   4   7   37.70    5.30
  -5   4   7   49.60    7.20
  -4  -4   7    3.30    3.90
  -4  -4   7   -3.20    5.30
  -4   4   7   -4.00    6.00
  -3  -4   7    5.90    5.20
  -3  -4   7    8.30    3.80
  -3   4   7    7.30    6.60
  -2  -4   7    0.70    3.80
  -2  -4   7    2.30    5.30
  -2   4   7  -10.40    6.50
   2   4  -7    8.10    6.10
  -1  -4   7   11.30    5.40
  -1  -4   7   17.90    4.00
   1   4  -7   26.70    6.80
   0  -4   7   23.60    5.60
   0  -4   7   12.10    4.00
   0   4  -7   26.10    6.90
   1  -4   7   25.40    4.30
   1  -4   7   27.70    5.90
  -1   4  -7   27.40    7.10
   2  -4   7   22.30    6.10
   2  -4   7   17.30    4.50
  -2   4  -7   22.30    6.90
  -2   4  -7   13.30    4.40
   3  -4   7   87.69    7.40
   3  -4   7   97.19    7.40
  -3   4  -7   98.19    8.00
  -3   4  -7   98.59   10.40
   4  -4   7   49.90    5.50
   4  -4   7   58.19    7.40
  -4   4  -7   49.10    7.60
  -4   4  -7   53.59    5.70
   5  -4   7   29.20    7.70
   5  -4   7    9.80    5.30
  -5   4  -7   17.10    7.50
  -5   4  -7   18.60    5.30
   6  -4   7   18.60    7.90
   6  -4   7   14.70    5.80
  -6   4  -7    5.60    5.40
  -6   4  -7    6.20    7.60
  -5  -5   7   19.00    6.00
  -5  -5   7    5.70    4.00
  -5   5   7    4.10    8.00
  -5   5   7    7.80    7.20
  -5   5   7   20.30    5.40
  -4  -5   7   20.60    5.80
  -4  -5   7   18.30    4.10
  -4   5   7   20.60    7.50
  -3  -5   7    8.40    3.80
  -3  -5   7   17.80    5.60
  -3   5   7   10.50    7.30
  -2  -5   7   11.10    3.80
  -2  -5   7   21.60    5.50
  -2   5   7    8.30    7.40
  -1  -5   7    5.80    3.90
  -1  -5   7    0.60    5.40
   1   5  -7   14.40    7.30
   0  -5   7    1.70    5.30
   0  -5   7    0.20    3.90
   0   5  -7   11.50    7.30
   1  -5   7    6.20    5.40
   1  -5   7   -1.40    3.90
  -1   5  -7   14.40    7.50
   2  -5   7    6.00    4.40
   2  -5   7   22.70    6.20
  -2   5  -7   29.80    7.70
   3  -5   7    3.80    6.10
   3  -5   7    8.20    4.60
  -3   5  -7   23.30    8.00
   4  -5   7   10.60    6.70
   4  -5   7    6.40    4.90
  -4   5  -7   -0.70    7.90
  -4   5  -7   -4.30    5.10
 -10   0   8    6.90    7.40
 -10   0   8   25.00    5.50
  -9   0   8   36.00    8.00
  -9   0   8   39.30    5.50
  -8   0   8   15.10    6.90
  -8   0   8   17.40    4.80
  -7   0   8   26.30    4.80
  -7   0   8   25.50    6.60
  -6   0   8    8.60    4.20
  -6   0   8   -0.90    6.20
  -5   0   8   10.40    6.10
  -5   0   8    6.30    4.00
  -4   0   8   -1.60    3.80
  -4   0   8    7.50    5.80
  -3   0   8    3.00    5.20
  -3   0   8   -4.00    3.50
  -2   0   8    5.80    3.70
  -2   0   8    1.50    5.40
  -1   0   8  265.37    8.10
  -1   0   8  266.97   10.00
   0   0   8  366.66    9.10
   0   0   8  355.36   10.90
   1   0   8  127.89    8.80
   1   0   8  134.99    6.50
   2   0   8  290.47   11.00
   2   0   8  278.77    8.90
   3   0   8   81.29    7.60
   3   0   8   84.89    7.10
   4   0   8   20.50    5.40
   4   0   8   23.30    7.60
   5   0   8   11.20    5.60
   5   0   8    9.80    7.60
   6   0   8    2.30    6.00
   6   0   8   -6.00    8.00
   7   0   8   75.89    7.40
   7   0   8   78.29   10.20
   8   0   8    9.60    7.00
   8   0   8    7.50    9.40
   9   0   8   15.90   10.00
   9   0   8   27.30    7.80
 -10  -1   8   -6.00    7.20
 -10  -1   8   -6.70    4.90
  -9  -1   8    4.00    7.10
  -9  -1   8    9.50    4.90
  -9   1   8   17.10    7.50
  -9   1   8   -2.40    8.10
  -8  -1   8   39.00    5.30
  -8  -1   8   50.39    7.70
  -8   1   8   44.10    5.20
  -8   1   8   43.40    7.10
  -7  -1   8   58.79    5.50
  -7  -1   8   46.10    7.20
  -7   1   8   46.60    7.20
  -7   1   8   60.89    5.20
  -6  -1   8    5.70    6.00
  -6  -1   8    7.80    4.40
  -6   1   8   12.70    6.20
  -6   1   8    3.40    3.90
  -5  -1   8  144.99    9.70
  -5  -1   8  143.19    7.50
  -5   1   8  137.69    7.20
  -5   1   8  156.28    9.60
  -4  -1   8  127.19    7.00
  -4  -1   8  124.69    9.40
  -4   1   8  134.59    9.70
  -4   1   8  125.29    6.70
  -3  -1   8  100.89    9.10
  -3  -1   8  116.39    6.70
  -3   1   8  126.39    6.40
  -3   1   8  100.59    8.80
  -2  -1   8  497.55   10.90
  -2  -1   8  487.55   13.40
  -2   1   8  511.45   10.70
  -2   1   8  521.45   12.40
  -1  -1   8  353.06   11.20
  -1  -1   8  368.46    9.30
  -1   1   8  362.36   10.80
  -1   1   8  369.16    8.80
   0  -1   8   40.00    4.60
   0  -1   8   44.40    6.10
   0   1   8   46.00    6.00
   0   1   8   32.50    4.20
   1  -1   8   29.60    6.10
   1  -1   8   27.80    4.50
   1   1   8   34.40    4.40
   1   1   8   35.40    5.70
   2  -1   8   23.20    4.70
   2  -1   8   17.90    6.30
   2   1   8   22.50    4.50
   2   1   8   23.20    6.10
   3  -1   8  133.89    8.00
   3  -1   8  148.49   10.60
   3   1   8  153.38   10.40
   3   1   8  140.49    7.40
   4  -1   8  102.39    8.20
   4  -1   8   86.99    8.40
   4   1   8  106.59    8.40
   4   1   8  107.29    8.20
   5  -1   8   33.30    8.50
   5  -1   8   21.70    5.70
   5   1   8   20.60    7.90
   5   1   8   20.80    5.60
   6  -1   8    8.50    8.20
   6  -1   8   -1.70    6.00
   6   1   8    8.00    9.60
   6   1   8    0.50    6.10
   7  -1   8   36.90    7.00
   7  -1   8   24.80    9.70
   8  -1   8    4.30    7.10
   8  -1   8    1.30    9.80
 -10  -2   8   30.20    7.50
 -10  -2   8   36.00    5.50
  -9  -2   8   32.80    7.20
  -9  -2   8   19.20    5.00
  -9   2   8   30.30    7.10
  -9   2   8   18.90    4.30
  -8  -2   8   16.10    6.60
  -8  -2   8   -2.20    4.30
  -8   2   8    3.80    3.80
  -8   2   8    6.90    6.40
  -7  -2   8    4.60    4.40
  -7  -2   8    3.00    6.00
  -7   2   8    9.70    6.20
  -7   2   8   11.40    3.80
  -6  -2   8   -1.70    6.00
  -6  -2   8   -4.80    4.10
  -5  -2   8    5.80    5.70
  -5  -2   8    3.30    4.10
  -4  -2   8   47.20    6.50
  -4  -2   8   50.29    4.60
  -3  -2   8  123.09    6.90
  -3  -2   8  117.19    8.90
  -2  -2   8  118.99    8.90
  -2  -2   8  130.09    6.70
   2   2  -8  111.89    7.90
  -1  -2   8  462.55   12.70
  -1  -2   8  475.05   10.60
   0  -2   8  480.65   10.70
   0  -2   8  473.45   12.90
   1  -2   8  355.36    9.60
   1  -2   8  365.36   12.10
   2  -2   8  125.99   10.10
   2  -2   8  106.79    7.20
   3  -2   8   98.69    7.70
   3  -2   8   89.19    7.90
   4  -2   8   10.90    5.20
   4  -2   8   -0.90    7.20
   5  -2   8    8.50    5.70
   5  -2   8   11.60    7.60
   6  -2   8   19.60    6.20
   6  -2   8   26.30    8.70
  -6   2  -8   15.10    4.70
   7  -2   8   -3.60    8.40
   7  -2   8    0.00    6.40
  -7   2  -8   -3.00    4.60
   8  -2   8   -3.60    9.00
   8  -2   8    4.00    7.10
  -8   2  -8   -0.50    4.90
  -9  -3   8    1.80    4.60
  -9  -3   8    1.30    6.50
  -9   3   8    0.70    7.20
  -9   3   8    3.50    4.30
  -8  -3   8   -4.40    4.20
  -8  -3   8    1.70    6.30
  -8   3   8    9.00    7.50
  -8   3   8    6.30    4.50
  -7  -3   8   11.20    6.30
  -7  -3   8   12.90    4.40
  -7   3   8   26.80    7.70
  -7   3   8   19.90    4.80
  -6  -3   8   -4.80    5.80
  -6  -3   8    0.60    4.20
  -5  -3   8   17.80    6.10
  -5  -3   8    5.60    4.20
  -4  -3   8    2.30    5.90
  -4  -3   8    7.40    4.10
  -3  -3   8   92.19    7.30
  -3  -3   8   84.09    6.60
  -2  -3   8   78.89    6.40
  -2  -3   8   81.49    7.00
  -1  -3   8   25.80    6.00
  -1  -3   8   14.50    4.30
   1   3  -8   28.20    5.60
   0  -3   8   30.60    6.20
   0  -3   8   24.20    4.50
   0   3  -8   29.40    6.00
   0   3  -8   24.20    3.40
   1  -3   8  314.37    9.40
   1  -3   8  316.17   12.00
  -1   3  -8  309.77   12.10
  -1   3  -8  316.37    8.80
   2  -3   8  388.26   13.10
   2  -3   8  394.96   10.20
  -2   3  -8  399.86   10.00
   3  -3   8  155.88    8.30
   3  -3   8  156.28   11.10
  -3   3  -8  169.48    8.60
   4  -3   8   33.40    7.30
   4  -3   8   25.30    5.40
  -4   3  -8   33.10    4.70
   5  -3   8   36.50    7.90
   5  -3   8   36.50    5.90
  -5   3  -8   38.20    5.20
   6  -3   8   34.30    8.20
   6  -3   8   23.10    6.10
  -6   3  -8   43.00    5.70
   7  -3   8   17.30    8.60
   7  -3   8   -4.20    6.20
  -7   3  -8   -3.80    5.30
  -7  -4   8    0.90    4.20
  -7  -4   8    9.00    6.40
  -7   4   8   -3.50    8.20
  -7   4   8   11.20    5.00
  -6  -4   8   12.20    6.30
  -6  -4   8    0.80    4.10
  -6   4   8    7.00    4.60
  -5  -4   8    7.20    5.90
  -5  -4   8   -1.60    4.10
  -4  -4   8   -0.10    5.80
  -4  -4   8    4.00    4.00
  -4   4   8   -5.90    6.50
  -3  -4   8   -6.30    5.40
  -3  -4   8    7.50    4.10
  -2  -4   8   27.70    4.40
  -2  -4   8   40.50    6.40
  -1  -4   8   52.19    4.80
  -1  -4   8   64.89    6.70
   1   4  -8   65.59    7.30
   0  -4   8  156.98    9.80
   0   4  -8  158.28   11.10
   1  -4   8  182.58   10.00
  -1   4  -8  190.28   11.60
   2  -4   8   29.00    6.60
   2  -4   8   17.20    4.80
  -2   4  -8   29.60    6.80
  -2   4  -8   19.50    4.60
   3  -4   8   10.70    4.90
   3  -4   8    7.60    6.50
  -3   4  -8    9.90    4.70
  -3   4  -8   18.60    6.90
   4  -4   8    3.50    6.80
   4  -4   8    4.80    5.10
  -4   4  -8    3.10    4.90
  -4   4  -8    3.50    7.20
   5  -4   8    2.20    5.40
   5  -4   8   -2.10    7.20
  -5   4  -8   -8.40    5.20
  -5   4  -8   -9.30    7.20
  -6   4  -8   -1.20    8.10
  -6   4  -8   -6.60    5.40
  -4  -5   8   18.50    6.20
  -4  -5   8   13.70    4.30
  -4   5   8   16.40    7.80
  -3  -5   8   11.30    4.20
  -3  -5   8   22.80    6.40
  -3   5   8   10.50    7.70
  -2  -5   8   22.90    4.40
  -2  -5   8   18.60    6.00
  -1  -5   8   33.70    6.40
  -1  -5   8   29.90    4.50
   0  -5   8    7.40    4.30
   0  -5   8    6.20    5.90
   0   5  -8   20.30    7.70
   1  -5   8    2.80    4.20
   1  -5   8    4.80    5.90
  -1   5  -8    8.40    7.50
   2  -5   8   -2.00    6.00
   2  -5   8   -0.40    4.40
  -2   5  -8   12.90    7.40
   3  -5   8   11.50    5.00
   3  -5   8   23.10    7.00
  -3   5  -8   11.50    7.90
 -10   0   9    1.50    7.60
 -10   0   9   -6.00    5.10
  -9   0   9   10.40    5.20
  -9   0   9   26.50    7.60
  -8   0   9   10.10    4.90
  -8   0   9   -4.70    7.30
  -7   0   9   16.70    4.90
  -7   0   9   -1.40    6.70
  -6   0   9    8.00    6.70
  -6   0   9    0.50    4.50
  -5   0   9  246.28    9.00
  -5   0   9  210.18   11.90
  -4   0   9  424.76   10.70
  -4   0   9  439.26   13.50
  -3   0   9  451.85   12.90
  -3   0   9  444.06   10.70
  -2   0   9   93.29    7.50
  -2   0   9   93.79    7.00
  -1   0   9   44.10    6.50
  -1   0   9   41.60    4.60
   0   0   9  224.28   10.70
   0   0   9  220.78    8.10
   1   0   9  -10.90    4.40
   1   0   9   -8.30    6.10
   2   0   9   18.00    6.70
   2   0   9   17.20    5.10
   3   0   9   61.19    5.90
   3   0   9   50.79    8.00
   4   0   9   13.70    7.70
   4   0   9    9.70    5.40
   5   0   9   -5.10    5.60
   5   0   9    6.10    8.00
   6   0   9   36.00    6.60
   6   0   9   41.40    8.90
   7   0   9   40.50    6.70
   7   0   9   51.49   10.00
   8   0   9   24.90    9.80
   8   0   9   16.00    7.10
 -10  -1   9    7.20    5.30
 -10  -1   9    7.00    7.80
  -9  -1   9    7.10    5.20
  -9  -1   9    5.60    7.40
  -8  -1   9   11.80    7.10
  -8  -1   9   16.40    5.00
  -8   1   9   14.10    5.20
  -8   1   9   12.50    6.90
  -7  -1   9   25.10    7.40
  -7  -1   9   40.40    5.40
  -7   1   9   44.30    5.10
  -7   1   9   44.50    7.00
  -6  -1   9   66.19    5.70
  -6  -1   9   67.69    8.00
  -6   1   9   70.99    5.30
  -6   1   9   75.79    8.00
  -5  -1   9  180.78    8.60
  -5  -1   9  163.88   11.30
  -5   1   9  191.48    8.20
  -5   1   9  186.78   11.10
  -4  -1   9   85.09    7.10
  -4  -1   9   77.89    7.30
  -4   1   9   97.99    7.60
  -4   1   9   85.59    7.00
  -3  -1   9  137.19    9.70
  -3  -1   9  133.09    7.70
  -3   1   9  138.89    7.00
  -3   1   9  126.79    9.20
  -2  -1   9   54.19    5.00
  -2  -1   9   58.79    7.10
  -2   1   9   54.69    4.80
  -2   1   9   53.09    6.40
  -1  -1   9  107.69    7.40
  -1  -1   9  113.59   10.30
  -1   1   9  122.39    9.80
  -1   1   9  112.99    6.80
   0  -1   9   35.30    6.80
   0  -1   9   29.80    4.90
   0   1   9   34.40    6.40
   0   1   9   26.90    4.60
   1  -1   9   45.60    4.90
   1  -1   9   45.20    6.80
   1   1   9   54.69    5.00
   1   1   9   44.70    6.60
   2  -1   9  165.88    8.40
   2  -1   9  172.38   11.70
   2   1   9  152.78    7.60
   2   1   9  153.28   10.10
   3  -1   9   18.30    5.20
   3  -1   9   15.20    7.30
   3   1   9   23.10    5.30
   3   1   9   17.20    7.10
   4  -1   9  124.89    8.60
   4  -1   9  139.29   12.00
   4   1   9  129.49    9.20
   4   1   9  139.29    8.90
   5  -1   9  159.48   12.90
   5   1   9  162.78    9.60
   5   1   9  169.38   15.30
   6  -1   9   31.70    6.60
   6  -1   9   23.50    8.60
   7  -1   9   16.90    9.30
   7  -1   9    1.00    6.40
   8  -1   9    1.40    9.40
   8  -1   9   -5.30    7.00
  -9  -2   9   -0.30    4.90
  -9  -2   9  -13.00    6.60
  -8  -2   9   -0.50    6.50
  -8  -2   9   -5.40    4.60
  -7  -2   9    8.00    6.70
  -7  -2   9   12.90    4.70
  -6  -2   9   11.20    4.60
  -6  -2   9    7.80    6.40
  -5  -2   9   32.20    6.80
  -5  -2   9   27.40    4.90
  -4  -2   9    4.30    6.00
  -4  -2   9   -2.70    4.20
  -3  -2   9  148.79    7.80
  -3  -2   9  155.48   10.10
  -2  -2   9   94.49    7.70
  -2  -2   9   91.19    7.10
  -1  -2   9   53.09    7.10
  -1  -2   9   63.69    5.30
   0  -2   9    4.70    4.50
   0  -2   9   10.90    6.30
   1  -2   9    5.90    4.60
   1  -2   9    2.50    6.40
   2  -2   9   15.80    6.90
   2  -2   9   10.80    5.10
   3  -2   9  152.28   11.80
   3  -2   9  131.19    8.50
   4  -2   9   46.20    6.10
   4  -2   9   56.29    8.20
   5  -2   9   22.60    8.00
   5  -2   9   26.80    6.10
   6  -2   9   72.89    7.00
   6  -2   9   81.49    9.60
   7  -2   9   30.30    7.00
   7  -2   9   22.40    9.00
  -7   2  -9   31.70    5.40
  -8  -3   9   10.40    6.70
  -8  -3   9   25.90    5.10
  -7  -3   9    6.30    4.50
  -7  -3   9   11.60    6.80
  -6  -3   9    9.30    4.40
  -6  -3   9    7.70    6.50
  -5  -3   9   20.10    4.80
  -5  -3   9   21.80    6.60
  -4  -3   9    5.90    6.20
  -4  -3   9    2.50    4.30
  -3  -3   9    5.40    4.40
  -3  -3   9   15.60    6.30
  -2  -3   9   24.60    6.50
  -2  -3   9   17.60    4.60
  -1  -3   9   79.79    7.30
  -1  -3   9   63.89    5.40
   1   3  -9   72.79    6.60
   0  -3   9   19.80    6.60
   0  -3   9   19.30    4.70
   0   3  -9   17.80    6.10
   1  -3   9  124.99   10.40
  -1   3  -9  116.99    6.80
   2  -3   9    5.20    4.80
   2  -3   9    7.70    6.70
  -2   3  -9   -0.20    3.70
   3  -3   9   57.79    7.70
   3  -3   9   57.39    5.80
  -3   3  -9   57.39    4.90
   4  -3   9   36.40    7.60
   4  -3   9   27.30    5.80
  -4   3  -9   29.70    4.60
   5  -3   9   18.20    5.90
   5  -3   9   25.80    7.90
  -5   3  -9   31.20    5.20
   6  -3   9    6.60    6.10
   6  -3   9   12.00    8.10
  -6   3  -9    5.50    5.20
  -6  -4   9   17.50    4.70
  -6  -4   9    8.20    6.20
  -5  -4   9   24.30    4.80
  -5  -4   9   29.80    6.80
  -4  -4   9    6.90    6.40
  -4  -4   9   11.50    4.40
  -3  -4   9   34.80    4.70
  -3  -4   9   40.10    6.60
  -2  -4   9   43.70    6.90
  -2  -4   9   42.10    4.90
  -1  -4   9    3.70    4.30
  -1  -4   9    2.20    6.10
   0  -4   9   30.80    6.70
   0  -4   9   22.80    4.60
   0   4  -9   45.70    7.10
   1  -4   9   15.60    4.60
   1  -4   9   23.30    6.50
  -1   4  -9   25.40    6.90
   2  -4   9   18.30    5.00
   2  -4   9   27.50    7.10
  -2   4  -9   24.70    7.20
   3  -4   9   36.00    7.10
   3  -4   9   25.00    5.30
  -3   4  -9   34.90    7.50
  -3   4  -9   16.40    5.00
   4  -4   9    7.70    5.20
   4  -4   9    2.70    6.80
  -4   4  -9   -2.70    7.10
  -4   4  -9    3.20    4.90
  -2  -5   9   10.20    6.30
  -2  -5   9    1.40    4.40
  -1  -5   9    5.60    6.20
  -1  -5   9   -1.30    4.40
   0  -5   9   -1.00    4.40
   0  -5   9    3.10    6.20
   0   5  -9   11.80    7.60
   1  -5   9    7.80    6.40
  -1   5  -9   14.50    7.70
  -9   0  10   -3.80    7.80
  -9   0  10   -4.00    5.20
  -8   0  10    3.70    7.40
  -8   0  10   -0.10    5.10
  -7   0  10   67.09    6.20
  -7   0  10   53.19    8.30
  -6   0  10  130.29    8.90
  -6   0  10  105.19    8.80
  -5   0  10    5.20    4.80
  -5   0  10   -3.00    6.10
  -4   0  10   53.19    5.30
  -4   0  10   44.00    7.50
  -3   0  10  297.47    9.70
  -3   0  10  314.47   11.80
  -2   0  10  153.88   11.40
  -2   0  10  155.18    8.00
  -1   0  10    8.10    4.70
  -1   0  10   17.60    6.60
   0   0  10   71.99    7.60
   0   0  10   72.39    5.60
   1   0  10   27.60    5.20
   1   0  10   21.80    6.80
   2   0  10  193.28   11.60
   2   0  10  168.88    8.60
   3   0  10   66.69    8.30
   3   0  10   51.99    6.00
   4   0  10  109.09    8.90
   4   0  10   90.39    8.90
   5   0  10   38.30    8.60
   5   0  10   30.30    6.30
   6   0  10    5.50    6.30
   6   0  10   -4.10    8.60
   7   0  10   -5.80    9.20
   7   0  10   -3.00    6.60
  -9  -1  10    0.40    5.10
  -9  -1  10   -4.10    7.70
  -8  -1  10    9.50    5.20
  -8  -1  10    0.20    7.40
  -7  -1  10   -5.30    4.80
  -7  -1  10   15.00    7.20
  -7   1  10   -2.90    7.90
  -7   1  10    8.60    6.90
  -6  -1  10   34.90    5.50
  -6  -1  10   33.70    7.50
  -6   1  10   43.30    5.20
  -6   1  10   40.60    7.70
  -5  -1  10   -4.40    6.80
  -5  -1  10    0.70    4.80
  -5   1  10   -8.10    6.30
  -5   1  10    5.10    4.60
  -4  -1  10   11.40    6.40
  -4  -1  10   18.40    4.80
  -4   1  10   20.00    6.80
  -4   1  10   19.90    4.70
  -3  -1  10  149.09    8.50
  -3  -1  10  152.58   10.80
  -3   1  10  150.58    7.70
  -3   1  10  134.19   10.60
  -2  -1  10  220.18    9.00
  -2  -1  10  229.28   11.80
  -2   1  10  216.28    8.40
  -2   1  10  233.28   11.50
  -1  -1  10  179.98   11.00
  -1  -1  10  189.98    8.90
  -1   1  10  176.38    7.90
  -1   1  10  207.78   11.00
   0  -1  10  191.48   11.50
   0  -1  10  200.78    8.80
   0   1  10  192.88   11.30
   0   1  10  221.88    8.70
   1  -1  10  151.38   11.10
   1  -1  10  150.98    8.60
   1   1  10  162.78   10.80
   1   1  10  173.08    8.20
   2  -1  10  172.08   12.00
   2  -1  10  165.78    8.40
   2   1  10  148.99    8.80
   2   1  10  180.48   11.60
   3  -1  10   12.40    5.80
   3  -1  10    7.20    7.30
   3   1  10    2.10    7.30
   3   1  10   15.60    5.30
   4  -1  10   26.00    8.50
   4  -1  10    5.30    5.70
   5  -1  10   -1.80    6.00
   5  -1  10   -7.80    7.90
   6  -1  10   14.40    8.70
   6  -1  10   10.50    6.50
   7  -1  10   12.70    7.30
   7  -1  10    6.20    9.30
  -8  -2  10    3.20    6.80
  -8  -2  10   -2.90    4.70
  -7  -2  10   -3.70    6.70
  -7  -2  10    4.80    4.80
  -6  -2  10   -1.70    4.70
  -6  -2  10   -4.10    6.60
  -5  -2  10   29.50    5.10
  -5  -2  10   25.50    6.90
  -4  -2  10   98.19    8.00
  -4  -2  10  126.89    8.00
  -3  -2  10   84.09    6.00
  -3  -2  10   63.99    7.70
  -2  -2  10   66.99    5.60
  -2  -2  10   53.39    7.50
  -1  -2  10  156.28   10.90
  -1  -2  10  135.39    8.40
   0  -2  10   56.69    5.50
   0  -2  10   50.09    7.50
   1  -2  10   35.70    5.40
   1  -2  10   46.90    7.50
   2  -2  10   10.40    5.40
   2  -2  10    7.00    6.90
   3  -2  10   27.50    5.70
   3  -2  10   26.40    7.60
   4  -2  10   56.69    6.40
   4  -2  10   51.99    8.30
   5  -2  10   23.10    6.30
   5  -2  10    5.50    7.80
   6  -2  10   12.60    8.40
   6  -2  10   11.40    6.50
  -7  -3  10    4.60    4.90
  -7  -3  10   11.10    7.30
  -6  -3  10   28.50    7.30
  -6  -3  10   25.40    5.00
  -5  -3  10   22.50    5.00
  -5  -3  10   19.60    6.90
  -4  -3  10    6.10    6.60
  -4  -3  10   -1.10    4.40
  -3  -3  10   -1.70    6.40
  -3  -3  10    1.50    4.60
  -2  -3  10   49.40    7.40
  -2  -3  10   41.60    5.20
  -1  -3  10   73.69    7.90
  -1  -3  10   60.19    5.60
   0  -3  10   34.10    7.30
   0  -3  10   31.60    5.10
   0   3 -10   33.30    6.70
   1  -3  10   -4.60    6.60
   1  -3  10    0.90    4.80
   2  -3  10    2.40    5.00
   2  -3  10   -2.00    6.90
  -2   3 -10    2.00    3.70
   3  -3  10    4.70    7.00
   3  -3  10    4.10    5.30
  -3   3 -10    3.20    4.00
   4  -3  10   -1.20    5.40
   4  -3  10    0.60    7.20
  -4   3 -10    7.20    4.60
   5  -3  10    7.70    7.60
   5  -3  10   -6.80    5.70
  -5   3 -10    2.10    5.10
  -5  -4  10    6.90    6.70
  -5  -4  10   18.50    5.00
  -4  -4  10   26.50    4.90
  -4  -4  10   36.60    7.40
  -3  -4  10   20.20    6.80
  -3  -4  10   12.90    4.70
  -2  -4  10    4.00    4.60
  -2  -4  10    5.50    6.80
  -1  -4  10   25.10    6.90
  -1  -4  10   35.20    5.10
   0  -4  10   17.50    6.90
   0  -4  10    8.60    4.70
   1  -4  10   28.00    6.90
   1  -4  10   12.70    4.90
  -1   4 -10   22.70    7.10
   2  -4  10   15.70    4.90
   2  -4  10   22.00    6.80
  -2   4 -10   25.90    7.30
   3  -4  10   17.80    7.60
   3  -4  10    5.50    5.40
  -3   4 -10    1.40    7.40
  -3   4 -10    5.60    5.10
  -8   0  11   31.50    8.60
  -8   0  11   59.09    6.50
  -7   0  11   54.59    6.30
  -7   0  11   46.70    8.50
  -6   0  11   -6.40    7.20
  -6   0  11   -6.10    5.10
  -5   0  11   79.19    6.50
  -5   0  11   78.59    8.00
  -4   0  11  148.69    8.70
  -4   0  11  159.88   11.60
  -3   0  11   37.00    6.90
  -3   0  11   52.19    5.60
  -2   0  11    1.20    6.80
  -2   0  11    5.60    4.90
  -1   0  11   29.20    7.10
  -1   0  11   31.40    5.40
   0   0  11   63.59    5.90
   0   0  11   49.40    7.80
   1   0  11   26.20    7.70
   1   0  11   38.40    5.80
   2   0  11  123.79    9.20
   2   0  11  131.29    8.80
   3   0  11  121.39    9.10
   3   0  11  100.29    9.40
   4   0  11  112.99    9.90
   4   0  11  120.99    9.60
   5   0  11   52.09    6.90
   5   0  11   72.09    9.70
   6   0  11    0.50    6.40
   6   0  11    0.90    8.80
  -8  -1  11    6.70    5.50
  -8  -1  11    6.60    8.20
  -7  -1  11   26.50    5.80
  -7  -1  11   38.10    8.50
  -6  -1  11   86.39    9.20
  -6  -1  11   97.59    6.90
  -5  -1  11  136.69    9.10
  -5  -1  11  139.49   11.80
  -5   1  11  144.29    9.20
  -5   1  11  164.88   13.40
  -4  -1  11   19.30    5.20
  -4  -1  11   14.30    6.80
  -4   1  11   20.40    7.30
  -4   1  11   24.30    5.00
  -3  -1  11    1.80    5.10
  -3  -1  11    9.30    7.00
  -3   1  11    4.10    6.30
  -3   1  11   17.10    4.90
  -2  -1  11   -2.50    7.00
  -2  -1  11    1.80    5.10
  -2   1  11    4.40    4.80
  -2   1  11    6.30    6.60
  -1  -1  11   16.10    7.60
  -1  -1  11   12.80    5.30
  -1   1  11   22.50    7.10
  -1   1  11   15.20    4.80
   0  -1  11   87.79    8.50
   0  -1  11   82.29    6.30
   0   1  11   75.19    6.00
   0   1  11   68.49    7.90
   1  -1  11   36.10    7.70
   1  -1  11   23.40    5.60
   1   1  11   36.10    5.60
   1   1  11   24.80    7.40
   2  -1  11   19.30    7.70
   2  -1  11    4.40    5.40
   2   1  11    3.00    6.50
   2   1  11   -0.40    9.10
   3  -1  11   13.80    6.00
   3  -1  11   15.60    7.90
   4  -1  11   23.60    8.40
   4  -1  11   10.20    6.20
   5  -1  11   14.50    9.00
   5  -1  11   10.80    6.30
   6  -1  11    8.70    6.70
   6  -1  11   17.80    9.30
  -7  -2  11   55.19    8.40
  -7  -2  11   52.79    6.20
  -6  -2  11   34.30    7.90
  -6  -2  11   46.20    5.90
  -5  -2  11   24.70    7.30
  -5  -2  11   36.60    5.60
  -4  -2  11   36.30    7.10
  -4  -2  11   25.40    5.20
  -3  -2  11   -3.60    4.80
  -3  -2  11    4.40    7.10
  -2  -2  11   -7.40    6.90
  -2  -2  11   -2.60    4.90
  -1  -2  11   18.30    7.30
  -1  -2  11   10.40    5.20
   0  -2  11   -5.60    6.80
   0  -2  11    0.60    5.10
   1  -2  11    6.30    6.80
   1  -2  11    4.90    5.20
   2  -2  11   33.30    5.90
   2  -2  11   51.89    7.90
   3  -2  11   45.60    8.40
   3  -2  11   55.39    6.60
   4  -2  11   16.80    8.10
   4  -2  11   15.70    6.20
   5  -2  11    2.40    8.20
   5  -2  11   13.70    6.40
  -6  -3  11   -5.50    6.80
  -6  -3  11   -1.40    5.00
  -5  -3  11    1.70    4.80
  -5  -3  11   15.50    7.00
  -4  -3  11   40.80    7.60
  -4  -3  11   27.60    5.10
  -3  -3  11   39.90    7.50
  -3  -3  11   34.60    5.40
  -2  -3  11   41.70    7.90
  -2  -3  11   19.80    5.20
  -1  -3  11   15.70    7.10
  -1  -3  11   13.50    5.10
   0  -3  11   43.10    5.50
   0  -3  11   36.90    7.80
   1  -3  11   39.60    7.70
   1  -3  11   45.50    5.70
   2  -3  11    5.00    7.20
   2  -3  11    3.10    5.00
   3  -3  11   -5.90    5.30
   3  -3  11   -7.20    7.10
  -3   3 -11   -9.40    4.10
   4  -3  11   19.60    7.90
   4  -3  11    4.00    5.80
  -4   3 -11   14.30    4.80
  -3  -4  11   18.20    5.10
  -3  -4  11   15.50    7.20
  -2  -4  11    7.00    7.20
  -2  -4  11   10.00    5.00
  -1  -4  11   12.40    5.00
  -1  -4  11   14.60    7.30
   0  -4  11  -10.90    7.00
   0  -4  11    2.10    5.10
   1  -4  11    5.20    7.40
  -1   4 -11    9.00    9.80
  -7   0  12   11.00    5.90
  -7   0  12   -2.70    8.30
  -6   0  12    5.90    5.70
  -6   0  12   -7.90    7.80
  -5   0  12  111.99    9.50
  -5   0  12  122.39    9.70
  -4   0  12   16.60    7.20
  -4   0  12   13.50    5.40
  -3   0  12    0.80    7.10
  -3   0  12    3.20    5.10
  -2   0  12   12.30    5.20
  -2   0  12   19.70    7.40
  -1   0  12  124.89    9.70
  -1   0  12  102.29    8.70
   0   0  12  133.69    9.30
   0   0  12  127.49   10.00
   1   0  12   -4.20    7.60
   1   0  12    1.10    5.40
   2   0  12   -4.60    5.30
   2   0  12    9.10    7.60
   3   0  12   -8.00    7.90
   3   0  12    5.60    5.70
   4   0  12   -7.90    6.30
   4   0  12    4.80    8.40
   5   0  12    3.50    8.50
   5   0  12   -6.00    6.60
  -7  -1  12   11.90    8.30
  -7  -1  12    9.70    5.70
  -6  -1  12   17.20    6.00
  -6  -1  12    3.40    8.20
  -5  -1  12   14.10    8.00
  -5  -1  12   18.60    5.60
  -4  -1  12   51.59    6.00
  -4  -1  12   35.60    7.50
  -3  -1  12  125.79    9.90
  -3  -1  12  117.19    9.40
  -2  -1  12   66.89    6.40
  -2  -1  12   70.59    8.70
  -1  -1  12   -2.10    7.50
  -1  -1  12    1.10    5.30
   0  -1  12    7.10    7.80
   0  -1  12    9.50    5.70
   1  -1  12   33.50    8.30
   1  -1  12   19.20    5.80
   2  -1  12   38.00    8.20
   2  -1  12   26.40    6.20
   3  -1  12    2.70    7.80
   3  -1  12    3.60    6.10
   4  -1  12   -5.70    8.20
   4  -1  12   -1.10    6.50
   5  -1  12    3.50    8.70
  -6  -2  12   -3.60    7.60
  -6  -2  12    0.90    5.40
  -5  -2  12    1.20    7.60
  -5  -2  12   10.30    5.20
  -4  -2  12    1.50    5.20
  -4  -2  12    5.60    6.90
  -3  -2  12    8.30    5.50
  -3  -2  12   19.20    7.80
  -2  -2  12   69.99    8.70
  -2  -2  12   57.09    6.20
  -1  -2  12   90.49    9.00
  -1  -2  12   72.49    6.50
   0  -2  12   49.20    8.40
   0  -2  12   44.80    6.10
   1  -2  12   40.80    6.00
   1  -2  12   47.10    8.20
   2  -2  12   46.10    8.30
   2  -2  12   16.40    5.90
   3  -2  12    1.40    7.90
   3  -2  12   14.10    6.10
   4  -2  12   11.80    8.50
  -4  -3  12   51.19    8.30
  -4  -3  12   30.80    5.50
  -3  -3  12   39.30    5.80
  -3  -3  12   34.40    7.80
  -2  -3  12   23.90    7.80
  -2  -3  12   15.40    5.40
  -1  -3  12   27.00    7.60
  -1  -3  12   22.90    5.40
   0  -3  12   -5.30    5.20
   0  -3  12   -4.80    7.30
   1  -3  12    4.70    5.30
   1  -3  12   20.90    7.70
   2  -3  12    1.80    5.50
   2  -3  12   10.80    7.40
  -6   0  13    6.50    8.70
  -6   0  13    0.10    6.10
  -5   0  13   -0.80    5.70
  -5   0  13    8.40    8.10
  -4   0  13    6.80    8.20
  -4   0  13   -5.90    5.30
  -3   0  13   29.80    5.80
  -3   0  13   37.00    8.10
  -2   0  13   86.99    9.30
  -2   0  13   75.09    6.70
  -1   0  13   55.69    6.50
  -1   0  13   52.09    9.00
   0   0  13   13.90    5.90
   0   0  13    8.00    8.10
   1   0  13   16.30    8.40
   1   0  13   27.30    6.30
   2   0  13   11.30    8.20
   2   0  13   14.90    6.20
   3   0  13   -3.00    6.10
   3   0  13    0.20    8.40
  -5  -1  13    5.30    5.70
  -5  -1  13   10.60    8.20
  -4  -1  13   13.00    7.40
  -4  -1  13   14.10    5.70
  -3  -1  13   -1.90    7.70
  -3  -1  13   -0.60    5.70
  -2  -1  13    9.30    8.00
  -2  -1  13    4.00    5.70
  -1  -1  13   10.70    5.70
  -1  -1  13    7.40    7.80
   0  -1  13   17.90    6.20
   0  -1  13   25.30    8.20
   1  -1  13   45.10    9.40
   1  -1  13   33.50    6.50
   2  -1  13   23.30    6.30
   2  -1  13   28.60    8.60
   3  -1  13   24.10    6.50
   3  -1  13   37.70    8.70
  -4  -2  13   31.70    5.90
  -4  -2  13   49.40    8.30
  -3  -2  13   15.80    5.90
  -3  -2  13   20.10    8.00
  -2  -2  13   14.90    7.90
  -2  -2  13    8.10    5.60
  -1  -2  13    5.60    5.50
  -1  -2  13   -0.90    7.50
   0  -2  13    8.10    5.90
   0  -2  13   11.90    8.10
   1  -2  13    5.00    5.90
   1  -2  13    5.00    8.10
   2  -2  13   11.20    8.10
  -3   0  14   12.80    6.10
  -3   0  14   -0.10    7.50
  -2   0  14   -3.10    5.90
  -2   0  14   -5.10    8.00
  -1   0  14   -0.20    6.00
  -1   0  14   -5.40    8.60
   0   0  14   -2.30    6.00
   0   0  14    3.50    8.30
   1   0  14  -10.00    8.70
  -3  -1  14   14.50    7.80
  -2  -1  14   -0.40    5.80
  -2  -1  14   -7.70    7.90
  -1  -1  14    4.70    8.60
  -1  -1  14    4.80    5.90
   0  -1  14    7.50    8.30

_computing_structure_solution     'SHELXT 2014/4 (Sheldrick, 2014)'
;
_shelx_hkl_checksum              47141
loop_
_space_group_symop_operation_xyz
'x, y, z'
'-x, y+1/2, -z'
loop_
_atom_site_label
_atom_site_type_symbol
_atom_site_fract_x
_atom_site_fract_y
_atom_site_fract_z
_atom_site_U_iso_or_equiv
_atom_site_adp_type
_atom_site_occupancy
_atom_site_site_symmetry_order
_atom_site_calc_flag
_atom_site_refinement_flags_posn
_atom_site_refinement_flags_adp
S1 S 0.45044(13) 0.2856(3) 0.87580(10) 0.0582(4) Uani 1 1 d . .
C1 C 0.3349(5) 0.0980(8) 0.7930(4) 0.0446(12) Uani 1 1 d . .
C2 C 0.2811(5) -0.0958(10) 0.8463(5) 0.0591(15) Uani 1 1 d . .
H2 H 0.3085 -0.1243 0.9227 0.071 Uiso 1 1 calc R U
C3 C 0.1869(5) -0.2493(12) 0.7880(5) 0.0686(16) Uani 1 1 d . .
H3 H 0.1506 -0.3778 0.8257 0.082 Uiso 1 1 calc R U
C4 C 0.1478(5) -0.2125(13) 0.6766(5) 0.0678(14) Uani 1 1 d . .
H4 H 0.0855 -0.3172 0.6375 0.081 Uiso 1 1 calc R U
C5 C 0.1998(5) -0.0206(10) 0.6204(5) 0.0561(14) Uani 1 1 d . .
H5 H 0.1722 0.0036 0.5437 0.067 Uiso 1 1 calc R U
C6 C 0.2935(4) 0.1373(9) 0.6777(4) 0.0434(12) Uani 1 1 d . .
C7 C 0.5064(4) 0.4762(9) 0.7742(4) 0.0406(11) Uani 1 1 d . .
C8 C 0.4501(4) 0.4732(9) 0.6609(4) 0.0391(11) Uani 1 1 d . .
C9 C 0.5081(5) 0.6328(9) 0.5908(4) 0.0471(12) Uani 1 1 d . .
H9 H 0.4736 0.6370 0.5146 0.057 Uiso 1 1 calc R U
C10 C 0.6540(4) 0.7731(10) 0.7361(3) 0.0424(10) Uani 1 1 d . .
C11 C 0.8061(5) 1.1094(10) 0.7011(4) 0.0548(13) Uani 1 1 d . .
H11A H 0.7346 1.2165 0.6686 0.066 Uiso 1 1 calc R U
H11B H 0.8474 1.0322 0.6403 0.066 Uiso 1 1 calc R U
C12 C 0.9100(5) 1.2507(12) 0.7798(5) 0.0697(16) Uani 1 1 d . .
H12A H 1.0004 1.1986 0.7694 0.084 Uiso 1 1 calc R U
H12B H 0.9023 1.4249 0.7651 0.084 Uiso 1 1 calc R U
C13 C 0.8799(7) 1.1945(12) 0.8944(6) 0.093(2) Uani 1 1 d . .
H13A H 0.8247 1.3228 0.9212 0.111 Uiso 1 1 calc R U
H13B H 0.9626 1.1840 0.9455 0.111 Uiso 1 1 calc R U
C14 C 0.8063(6) 0.9547(11) 0.8920(4) 0.0633(15) Uani 1 1 d . .
H14A H 0.8668 0.8219 0.9171 0.076 Uiso 1 1 calc R U
H14B H 0.7338 0.9601 0.9393 0.076 Uiso 1 1 calc R U
N2 N 0.6111(3) 0.7824(9) 0.6256(3) 0.0484(9) Uani 1 1 d . .
N3 N 0.6081(4) 0.6229(7) 0.8122(3) 0.0436(9) Uani 1 1 d . .
N4 N 0.7551(4) 0.9276(8) 0.7742(3) 0.0518(11) Uani 1 1 d . .
N1 N 0.3424(4) 0.3303(8) 0.6190(3) 0.0497(11) Uani 1 1 d . .
H1 H 0.325(4) 0.323(11) 0.549(4) 0.060 Uiso 1 1 d . U
loop_
_atom_site_aniso_label
_atom_site_aniso_U_11
_atom_site_aniso_U_22
_atom_site_aniso_U_33
_atom_site_aniso_U_23
_atom_site_aniso_U_13
_atom_site_aniso_U_12
S1 0.0709(8) 0.0652(8) 0.0379(6) 0.0061(8) 0.0035(5) -0.0141(8)
C1 0.047(3) 0.042(3) 0.047(3) 0.000(3) 0.011(2) 0.002(2)
C2 0.058(3) 0.061(3) 0.059(3) 0.015(3) 0.008(3) -0.001(3)
C3 0.056(3) 0.065(4) 0.085(4) 0.016(4) 0.009(3) -0.014(3)
C4 0.053(3) 0.055(3) 0.095(4) -0.009(4) 0.007(3) -0.012(3)
C5 0.049(3) 0.052(3) 0.068(4) -0.010(3) 0.012(3) -0.007(3)
C6 0.040(3) 0.042(3) 0.050(3) -0.003(3) 0.011(2) 0.003(2)
C7 0.042(3) 0.044(3) 0.036(3) 0.002(2) 0.007(2) 0.001(2)
C8 0.040(3) 0.047(3) 0.031(2) -0.004(2) 0.005(2) -0.001(2)
C9 0.055(3) 0.051(3) 0.034(3) -0.001(3) 0.001(2) -0.005(3)
C10 0.047(2) 0.044(3) 0.035(2) -0.002(3) -0.0002(19) -0.001(3)
C11 0.049(3) 0.056(3) 0.059(3) -0.001(3) 0.005(3) -0.007(3)
C12 0.057(3) 0.065(4) 0.086(4) -0.009(4) 0.006(3) -0.012(3)
C13 0.106(5) 0.089(6) 0.079(5) -0.009(4) -0.004(4) -0.041(4)
C14 0.067(4) 0.066(4) 0.053(3) -0.001(3) -0.010(3) -0.009(3)
N2 0.054(2) 0.055(2) 0.036(2) 0.001(2) 0.0015(17) -0.011(3)
N3 0.047(2) 0.049(2) 0.033(2) 0.003(2) 0.0002(18) -0.001(2)
N4 0.055(3) 0.055(3) 0.043(2) -0.001(2) -0.004(2) -0.012(2)
N1 0.054(2) 0.058(3) 0.037(2) -0.003(2) 0.005(2) -0.014(2)
loop_
_atom_type_symbol
_atom_type_description
_atom_type_scat_dispersion_real
_atom_type_scat_dispersion_imag
_atom_type_scat_source
C C 0.0033 0.0016 'International Tables Vol C Tables 4.2.6.8 and 6.1.1.4'
H H 0.0000 0.0000 'International Tables Vol C Tables 4.2.6.8 and 6.1.1.4'
N N 0.0061 0.0033 'International Tables Vol C Tables 4.2.6.8 and 6.1.1.4'
S S 0.1246 0.1234 'International Tables Vol C Tables 4.2.6.8 and 6.1.1.4'
loop_
_geom_angle_atom_site_label_1
_geom_angle_atom_site_label_2
_geom_angle_atom_site_label_3
_geom_angle
C7 S1 C1 101.9(2)
C2 C1 C6 118.8(5)
C2 C1 S1 117.3(4)
C6 C1 S1 123.9(4)
C1 C2 C3 121.1(5)
C1 C2 H2 119.4
C3 C2 H2 119.4
C4 C3 C2 120.1(6)
C4 C3 H3 120.0
C2 C3 H3 120.0
C3 C4 C5 120.4(6)
C3 C4 H4 119.8
C5 C4 H4 119.8
C4 C5 C6 120.5(5)
C4 C5 H5 119.8
C6 C5 H5 119.8
N1 C6 C5 119.0(4)
N1 C6 C1 121.8(4)
C5 C6 C1 119.2(5)
N3 C7 C8 122.6(4)
N3 C7 S1 114.9(3)
C8 C7 S1 122.4(4)
N1 C8 C9 120.5(4)
N1 C8 C7 124.4(4)
C9 C8 C7 115.0(4)
N2 C9 C8 124.1(4)
N2 C9 H9 117.9
C8 C9 H9 117.9
N2 C10 N3 126.2(4)
N2 C10 N4 116.6(4)
N3 C10 N4 117.2(4)
N4 C11 C12 104.1(4)
N4 C11 H11A 110.9
C12 C11 H11A 110.9
N4 C11 H11B 110.9
C12 C11 H11B 110.9
H11A C11 H11B 108.9
C13 C12 C11 105.3(5)
C13 C12 H12A 110.7
C11 C12 H12A 110.7
C13 C12 H12B 110.7
C11 C12 H12B 110.7
H12A C12 H12B 108.8
C12 C13 C14 108.7(5)
C12 C13 H13A 110.0
C14 C13 H13A 110.0
C12 C13 H13B 110.0
C14 C13 H13B 110.0
H13A C13 H13B 108.3
N4 C14 C13 103.1(5)
N4 C14 H14A 111.1
C13 C14 H14A 111.1
N4 C14 H14B 111.1
C13 C14 H14B 111.1
H14A C14 H14B 109.1
C10 N2 C9 115.3(4)
C7 N3 C10 116.6(4)
C10 N4 C14 123.8(4)
C10 N4 C11 121.9(4)
C14 N4 C11 113.6(4)
C8 N1 C6 124.0(4)
C8 N1 H1 117(4)
C6 N1 H1 115(4)
loop_
_geom_bond_atom_site_label_1
_geom_bond_atom_site_label_2
_geom_bond_distance
S1 C7 1.736(5)
S1 C1 1.759(5)
C1 C2 1.376(7)
C1 C6 1.400(6)
C2 C3 1.386(7)
C2 H2 0.9300
C3 C4 1.351(8)
C3 H3 0.9300
C4 C5 1.378(8)
C4 H4 0.9300
C5 C6 1.393(7)
C5 H5 0.9300
C6 N1 1.385(6)
C7 N3 1.334(6)
C7 C8 1.397(6)
C8 N1 1.377(6)
C8 C9 1.380(6)
C9 N2 1.344(6)
C9 H9 0.9300
C10 N2 1.333(5)
C10 N3 1.342(6)
C10 N4 1.355(6)
C11 N4 1.451(6)
C11 C12 1.525(7)
C11 H11A 0.9700
C11 H11B 0.9700
C12 C13 1.461(8)
C12 H12A 0.9700
C12 H12B 0.9700
C13 C14 1.503(8)
C13 H13A 0.9700
C13 H13B 0.9700
C14 N4 1.440(6)
C14 H14A 0.9700
C14 H14B 0.9700
N1 H1 0.83(5)
loop_
_geom_hbond_atom_site_label_D
_geom_hbond_atom_site_label_H
_geom_hbond_atom_site_label_A
_geom_hbond_distance_DH
_geom_hbond_distance_HA
_geom_hbond_distance_DA
_geom_hbond_angle_DHA
_geom_hbond_site_symmetry_A
C9 H9 N2 0.93 2.63 3.314(7) 130.8 2_646
N1 H1 N2 0.83(5) 2.26(5) 3.007(5) 151(4) 2_646
C9 H9 N2 0.93 2.63 3.314(7) 130.8 2_646
N1 H1 N2 0.83(5) 2.26(5) 3.007(5) 151(4) 2_646
loop_
_geom_torsion_atom_site_label_1
_geom_torsion_atom_site_label_2
_geom_torsion_atom_site_label_3
_geom_torsion_atom_site_label_4
_geom_torsion
C7 S1 C1 C2 173.0(4)
C7 S1 C1 C6 -8.1(4)
C6 C1 C2 C3 -0.5(7)
S1 C1 C2 C3 178.4(4)
C1 C2 C3 C4 1.0(9)
C2 C3 C4 C5 -0.9(9)
C3 C4 C5 C6 0.2(8)
C4 C5 C6 N1 -179.2(5)
C4 C5 C6 C1 0.4(7)
C2 C1 C6 N1 179.3(4)
S1 C1 C6 N1 0.5(7)
C2 C1 C6 C5 -0.2(7)
S1 C1 C6 C5 -179.0(4)
C1 S1 C7 N3 -172.8(3)
C1 S1 C7 C8 6.4(4)
N3 C7 C8 N1 -177.8(4)
S1 C7 C8 N1 3.1(7)
N3 C7 C8 C9 0.3(7)
S1 C7 C8 C9 -178.8(4)
N1 C8 C9 N2 178.3(5)
C7 C8 C9 N2 0.1(7)
N4 C11 C12 C13 -17.8(6)
C11 C12 C13 C14 23.8(7)
C12 C13 C14 N4 -20.1(7)
N3 C10 N2 C9 3.2(8)
N4 C10 N2 C9 -178.0(4)
C8 C9 N2 C10 -1.7(8)
C8 C7 N3 C10 0.9(7)
S1 C7 N3 C10 -179.9(3)
N2 C10 N3 C7 -2.8(7)
N4 C10 N3 C7 178.4(4)
N2 C10 N4 C14 175.1(5)
N3 C10 N4 C14 -6.0(7)
N2 C10 N4 C11 5.4(7)
N3 C10 N4 C11 -175.7(5)
C13 C14 N4 C10 -162.0(5)
C13 C14 N4 C11 8.5(6)
C12 C11 N4 C10 176.2(4)
C12 C11 N4 C14 5.6(6)
C9 C8 N1 C6 168.4(5)
C7 C8 N1 C6 -13.6(7)
C5 C6 N1 C8 -169.0(5)
C1 C6 N1 C8 11.5(7)
