#------------------------------------------------------------------------------
#$Date: 2017-04-04 16:24:38 +0300 (Tue, 04 Apr 2017) $
#$Revision: 194863 $
#$URL: file:///home/coder/svn-repositories/cod/cif/1/54/53/1545320.cif $
#------------------------------------------------------------------------------
#
# This file is available in the Crystallography Open Database (COD),
# http://www.crystallography.net/
#
# All data on this site have been placed in the public domain by the
# contributors.
#
data_1545320
loop_
_publ_author_name
'Elbaz, Giselle A.'
'Straus, Daniel B.'
'Semonin, Octavi E.'
'Hull, Trevor D.'
'Paley, Daniel W.'
'Kim, Philip'
'Owen, Jonathan S.'
'Kagan, Cherie R.'
'Roy, Xavier'
_publ_section_title
;
 Unbalanced Hole and Electron Diffusion in Lead Bromide Perovskites.
;
_journal_issue                   3
_journal_name_full               'Nano letters'
_journal_page_first              1727
_journal_page_last               1732
_journal_paper_doi               10.1021/acs.nanolett.6b05022
_journal_volume                  17
_journal_year                    2017
_chemical_formula_moiety         'Br3 Pb, C H6 N'
_chemical_formula_sum            'C H6 Br3 N Pb'
_chemical_formula_weight         478.99
_space_group_crystal_system      cubic
_space_group_IT_number           221
_space_group_name_Hall           '-P 4 2 3'
_space_group_name_H-M_alt        'P m -3 m'
_symmetry_space_group_name_Hall  '-P 4 2 3'
_symmetry_space_group_name_H-M   'P m -3 m'
_atom_sites_solution_hydrogens   difmap
_audit_creation_date             2016-11-16
_audit_creation_method
;
Olex2 1.2
(compiled 2016.11.07 svn.r3353 for OlexSys, GUI svn.r5261)
;
_cell_angle_alpha                90
_cell_angle_beta                 90
_cell_angle_gamma                90
_cell_formula_units_Z            1
_cell_length_a                   5.91950(10)
_cell_length_b                   5.91950(10)
_cell_length_c                   5.91950(10)
_cell_measurement_reflns_used    1650
_cell_measurement_temperature    293.92(10)
_cell_measurement_theta_max      27.9110
_cell_measurement_theta_min      4.8580
_cell_volume                     207.422(6)
_computing_cell_refinement       'CrysAlisPro 1.171.38.43 (Rigaku OD, 2015)'
_computing_data_collection       'CrysAlisPro 1.171.38.43 (Rigaku OD, 2015)'
_computing_data_reduction        'CrysAlisPro 1.171.38.43 (Rigaku OD, 2015)'
_computing_molecular_graphics    'Olex2 (Dolomanov et al., 2009)'
_computing_publication_material  'Olex2 (Dolomanov et al., 2009)'
_computing_structure_refinement  'SHELXL-2014/7 (Sheldrick, 2014)'
_diffrn_ambient_environment      air
_diffrn_ambient_temperature      294
_diffrn_detector                 'CCD plate'
_diffrn_detector_area_resol_mean 8.0549
_diffrn_detector_type            EosS2
_diffrn_measured_fraction_theta_full 1.000
_diffrn_measured_fraction_theta_max 0.988
_diffrn_measurement_details
;
List of Runs (angles in degrees, time in seconds):

  # Type    Start    End  Width  t~exp~   \w     \q     \k     \f   Frames
--------------------------------------------------------------------------
  1  \w    -12.00  84.00   1.00    3.00    --   17.35  19.00 -60.00   96
  2  \w     20.00  74.00   1.00    3.00    --   17.35  57.00  60.00   54
  3  \w      1.00  85.00   1.00    3.00    --   17.35  57.00   0.00   84
  4  \w     -8.00  85.00   1.00    3.00    --   17.35  77.00 150.00   93
  5  \w    -28.00  53.00   1.00    3.00    --  -14.69  57.00 -90.00   81
  6  \w    -17.00  56.00   1.00    3.00    --   17.35 -99.00   0.00   73
  7  \w    -16.00  56.00   1.00    3.00    --   17.35 -99.00 120.00   72
  8  \w    -19.00  54.00   1.00    3.00    --   17.35 -99.00-150.00   73
;
_diffrn_measurement_device       'four-circle diffractometer'
_diffrn_measurement_device_type  'SuperNova, Dual, Cu at zero, EosS2'
_diffrn_measurement_method       '\w scans'
_diffrn_orient_matrix_type
'CrysAlisPro convention (1999,Acta A55,543-557)'
_diffrn_orient_matrix_UB_11      -0.0593598000
_diffrn_orient_matrix_UB_12      0.0028415000
_diffrn_orient_matrix_UB_13      -0.1040325000
_diffrn_orient_matrix_UB_21      0.0282223000
_diffrn_orient_matrix_UB_22      0.1157462000
_diffrn_orient_matrix_UB_23      -0.0129454000
_diffrn_orient_matrix_UB_31      0.1001745000
_diffrn_orient_matrix_UB_32      -0.0309867000
_diffrn_orient_matrix_UB_33      -0.0579880000
_diffrn_radiation_monochromator  mirror
_diffrn_radiation_probe          x-ray
_diffrn_radiation_type           MoK\a
_diffrn_radiation_wavelength     0.71073
_diffrn_reflns_av_R_equivalents  0.1417
_diffrn_reflns_av_unetI/netI     0.0304
_diffrn_reflns_Laue_measured_fraction_full 1.000
_diffrn_reflns_Laue_measured_fraction_max 0.988
_diffrn_reflns_limit_h_max       8
_diffrn_reflns_limit_h_min       -7
_diffrn_reflns_limit_k_max       8
_diffrn_reflns_limit_k_min       -7
_diffrn_reflns_limit_l_max       7
_diffrn_reflns_limit_l_min       -8
_diffrn_reflns_number            2955
_diffrn_reflns_point_group_measured_fraction_full 1.000
_diffrn_reflns_point_group_measured_fraction_max 0.988
_diffrn_reflns_theta_full        26.000
_diffrn_reflns_theta_max         29.432
_diffrn_reflns_theta_min         3.442
_diffrn_source_type              'SuperNova (Mo) X-ray Source'
_exptl_absorpt_coefficient_mu    34.680
_exptl_absorpt_correction_T_max  0.045
_exptl_absorpt_correction_T_min  0.011
_exptl_absorpt_correction_type   gaussian
_exptl_absorpt_process_details
;
CrysAlisPro 1.171.38.43 (Rigaku Oxford Diffraction, 2015)
Numerical absorption correction based on gaussian integration over
            a multifaceted crystal model
Spherical absorption correction
 using equivalent radius and absorption coefficient.
Empirical absorption correction using spherical harmonics,
 implemented in SCALE3 ABSPACK scaling algorithm.
;
_exptl_crystal_colour            orange
_exptl_crystal_colour_primary    orange
_exptl_crystal_density_diffrn    3.835
_exptl_crystal_description       block
_exptl_crystal_F_000             206
_exptl_crystal_size_max          0.314
_exptl_crystal_size_mid          0.284
_exptl_crystal_size_min          0.218
_refine_diff_density_max         1.013
_refine_diff_density_min         -0.992
_refine_diff_density_rms         0.209
_refine_ls_extinction_coef       0.038(4)
_refine_ls_extinction_expression Fc^*^=kFc[1+0.001xFc^2^\l^3^/sin(2\q)]^-1/4^
_refine_ls_extinction_method     'SHELXL-2014/7 (Sheldrick 2014'
_refine_ls_goodness_of_fit_ref   1.220
_refine_ls_hydrogen_treatment    constr
_refine_ls_matrix_type           full
_refine_ls_number_parameters     12
_refine_ls_number_reflns         85
_refine_ls_number_restraints     2
_refine_ls_restrained_S_all      1.204
_refine_ls_R_factor_all          0.0290
_refine_ls_R_factor_gt           0.0286
_refine_ls_shift/su_max          0.000
_refine_ls_shift/su_mean         0.000
_refine_ls_structure_factor_coef Fsqd
_refine_ls_weighting_details
'w=1/[\s^2^(Fo^2^)+(0.0423P)^2^+0.0062P] where P=(Fo^2^+2Fc^2^)/3'
_refine_ls_weighting_scheme      calc
_refine_ls_wR_factor_gt          0.0669
_refine_ls_wR_factor_ref         0.0669
_reflns_Friedel_coverage         0.000
_reflns_number_gt                84
_reflns_number_total             85
_reflns_threshold_expression     'I > 2\s(I)'
_cod_data_source_file            nl6b05022_si_003.cif
_cod_data_source_block           acorr
_cod_depositor_comments
'Adding full bibliography for 1545319--1545320.cif.'
_cod_original_cell_volume        207.422(11)
_cod_database_code               1545320
_chemical_oxdiff_formula         'Pb Br3 C H6 N'
_shelx_space_group_comment
;
The symmetry employed for this shelxl refinement is uniquely defined
by the following loop, which should always be used as a source of
symmetry information in preference to the above space-group names.
They are only intended as comments.
;
_reflns_odcompleteness_completeness 100.00
_reflns_odcompleteness_iscentric 1
_reflns_odcompleteness_theta     26.32
_olex2_refinement_description
;
1. Others
 Fixed Sof: N1(0.0208) H1A(0.0208) H1B(0.0208) H1C(0.0208) C2(0.0208)
 H2A(0.0208) H2B(0.0208) H2C(0.0208)
 Fixed U12: Pb1(0) Br2(0)
 Fixed U13: Pb1(0) Br2(0)
 Fixed U23: Pb1(0) Br2(0)
 Fixed Uiso: H1A(0.06) H1B(0.06) H1C(0.06) H2A(0.06) H2B(0.06) H2C(0.06)
 Fixed X: Pb1(0.5) Br2(0.5) H1A(-0.0974) H1B(0.0637) H1C(-0.1596) H2A(0.0961)
 H2B(0.157) H2C(-0.0823)
 Fixed Y: Pb1(0.5) Br2(0.5) H1A(0.196) H1B(0.1916) H1C(0.0936) H2A(-0.1865)
 H2B(-0.0775) H2C(-0.185)
 Fixed Z: Pb1(0.5) Br2(0) H1A(-0.1017) H1B(0.0836) H1C(0.1126) H2A(0.0616)
 H2B(-0.172) H2C(-0.1343)
;
_shelx_res_file
;
    acorr.res created by SHELXL-2014/7


TITL acorr_a.res in Pm-3m
REM Old TITL acorr in Pm-3m
REM SHELXT solution in Pm-3m
REM R1 0.173, Rweak 0.324, Alpha 0.105, Orientation as input
REM Formula found by SHELXT: N3 Br
CELL 0.71073 5.9195 5.9195 5.9195 90 90 90
ZERR 1 0.0001 0.0001 0.0001 0 0 0
LATT 1
SYMM -X,-Y,+Z
SYMM -X,+Y,-Z
SYMM +X,-Y,-Z
SYMM +Z,+X,+Y
SYMM +Z,-X,-Y
SYMM -Z,-X,+Y
SYMM -Z,+X,-Y
SYMM +Y,+Z,+X
SYMM -Y,+Z,-X
SYMM +Y,-Z,-X
SYMM -Y,-Z,+X
SYMM +Y,+X,-Z
SYMM -Y,-X,-Z
SYMM +Y,-X,+Z
SYMM -Y,+X,+Z
SYMM +X,+Z,-Y
SYMM -X,+Z,+Y
SYMM -X,-Z,-Y
SYMM +X,-Z,+Y
SYMM +Z,+Y,-X
SYMM +Z,-Y,+X
SYMM -Z,+Y,+X
SYMM -Z,-Y,-X
SFAC Br C N Pb H He
UNIT 3 1 1 1 6 0

L.S. 500
PLAN  20
damp 1000
BOND $H
list 4
fmap 2
MORE -1
ACTA 52
CONF
REM <olex2.extras>
REM <HklSrc "%.\\acorr.hkl">
REM </olex2.extras>

WGHT    0.042300    0.006200
EXTI    0.037974
FVAR       0.83139   0.03978
PB1   4    0.500000    0.500000    0.500000    10.02083    0.03516    0.03516 =
         0.03516    0.00000    0.00000    0.00000
BR2   1    0.500000    0.500000    0.000000    10.06250    0.14703    0.14703 =
         0.03203    0.00000    0.00000    0.00000
PART -1
dfix .75 .01 N1 cent C2 cent

AFIX   6
N1    3   -0.047161    0.116220    0.015407    10.02083   21.00000
H1A   5   -0.097376    0.195990   -0.101727    10.02083   -1.50000
H1B   5    0.063654    0.191612    0.083649    10.02083   -1.50000
H1C   5   -0.159570    0.093561    0.112553    10.02083   -1.50000

C2    2    0.038291   -0.101975   -0.064170    10.02083   21.00000
H2A   5    0.096113   -0.186525    0.061578    10.02083   -1.50000
H2B   5    0.156962   -0.077473   -0.171979    10.02083   -1.50000
H2C   5   -0.082280   -0.185034   -0.134321    10.02083   -1.50000
AFIX   0

part -2 10.0
CENT  6   10.000000   10.000000   10.000000    10.00000   10.02000
PART 0
HKLF 4

REM  acorr_a.res in Pm-3m
REM R1 =  0.0286 for      84 Fo > 4sig(Fo)  and  0.0290 for all      85 data
REM     12 parameters refined using      2 restraints

END

WGHT      0.0423      0.0062

REM Highest difference peak  1.013,  deepest hole -0.992,  1-sigma level  0.209
Q1    1   0.5000  0.3965  0.3965  10.25000  0.05    1.01
Q2    1   0.5000  0.5000  0.2948  10.12500  0.05    0.87
Q3    1   0.5000  0.5000  0.2380  10.12500  0.05    0.75
Q4    1   0.3894  0.5000  0.1135  10.50000  0.05    0.37
Q5    1   0.2649  0.0000 -0.2649  10.25000  0.05    0.32
Q6    1   0.5000  0.4599  0.1541  10.50000  0.05    0.31
Q7    1   0.2755  0.4245  0.0000  10.50000  0.05    0.28
Q8    1   0.5000  0.2622  0.0000  10.25000  0.05    0.26
Q9    1   0.5000  0.3250  0.0000  10.25000  0.05    0.26
Q10   1   0.2636 -0.0680 -0.2636  10.50000  0.05    0.25
Q11   1  -0.2604  0.4242 -0.2604  10.50000  0.05    0.25
Q12   1   0.0000  0.2144  0.0000  10.12500  0.05    0.24
Q13   1   0.1613  0.0000 -0.1613  10.25000  0.05    0.22
Q14   1   0.2995  0.2995  0.3638  10.50000  0.05    0.18
Q15   1   0.2606  0.5000  0.0598  10.50000  0.05    0.17
Q16   1   0.5000  0.3220  0.2008  10.50000  0.05    0.15
Q17   1   0.3633  0.3633  0.2254  10.50000  0.05    0.14
Q18   1  -0.1975  0.5000 -0.1975  10.25000  0.05    0.14
Q19   1   0.2572  0.5000  0.1874  10.50000  0.05    0.14
Q20   1   0.5000  0.3463  0.0793  10.50000  0.05    0.13
;
_shelx_res_checksum              59652
_shelx_hkl_file
;
   0  -1   0 5133.41  145.06
   0   0  -1 4150.18  162.17
  -1   0   0 3752.95  157.00
   1   0   0 4789.19  180.83
   0   0   1 4388.01  152.86
  -1   0   1 1804.56  105.87
   0   1  -1 1828.49   98.62
   1  -1   0 1647.36   82.40
  -1   1   0 1846.07  105.77
   1   0  -1 1879.76  151.43
  -1   1   0 1751.28   94.93
  -1  -1   0 1823.48  119.30
   0   1  -1 1685.44  129.05
   0   1   1 1793.21  100.49
   1   0   1 1935.04  104.46
   1   1   0 1836.53  134.48
   0   1  -1 1720.20  108.48
   0  -1   1 2006.74  129.76
  -1   0  -1 1922.31   94.69
  -1   1   0 1644.11  128.93
   1   0  -1 1276.76   90.06
   1  -1   0 1899.47  130.64
   0  -1   1 2185.91   97.41
  -1   1   0 2006.76  131.48
   0  -1  -1 2033.34  114.96
  -1   0  -1 1472.29  114.21
   1  -1   0 2107.37  106.07
   1   0   1 2030.63  120.73
   1   1   0 1356.83  105.46
   1   0  -1 1827.01  124.08
   0   1   1 2071.61  131.87
   1  -1  -1  215.46   30.96
   1  -1   1  209.43   40.95
  -1  -1   1  204.05   35.48
  -1  -1   1  317.85   53.69
  -1  -1  -1  205.36   45.36
   1  -1   1  265.30   42.70
   1   1  -1  244.17   37.35
  -1  -1  -1  192.00   39.11
  -1   1   1  228.61   30.87
  -1   1  -1  297.03   57.02
  -1   1  -1  266.97   44.24
   1   1  -1  195.88   49.23
  -1  -1   1  312.66   35.08
   1   1   1  275.33   46.09
   1  -1  -1  225.60   47.05
   1   1   1  246.25   43.47
   1   1  -1  217.32   34.41
  -1   1  -1  248.04   50.76
  -1   1  -1  238.59   50.32
  -1   1   1  213.97   40.47
   1  -1  -1  235.57   45.10
   1  -1   1  318.86   65.89
   2   0   0 8152.13  326.22
   0   2   0 8351.09  275.48
  -2   0   0 8017.25  299.69
   0   2   0 9372.82  237.95
   0   0   2 9999.00  316.52
   0  -2   0 8521.34  162.76
   0   0  -2 8057.74  323.04
   2   0   0 8432.75  321.09
   0   0  -2 9012.90  172.47
  -1   2   0 4897.35  232.83
   0   1   2 3107.75  167.01
  -1   0  -2 4240.14  260.59
   2   1   0 3947.44  200.48
   2  -1   0 3932.32  183.04
  -1   0   2 4147.87  203.43
   0  -1  -2 4099.36  267.35
   2   0  -1 3674.25  197.82
   2   0   1 4248.25  223.53
   1   0  -2 3811.98  199.86
   1  -2   0 3985.26  213.33
  -1  -2   0 4224.06  186.92
   0  -2   1 3628.54  203.06
  -2   0   1 4755.73  241.17
   0   1  -2 3702.18  202.51
   0  -1   2 3992.47  207.54
   2   0   1 4259.93  293.57
  -2   1   0 3909.01  204.99
  -1   0   2 4558.42  212.18
   1   0   2 4859.71  233.59
   0   2  -1 4009.88  221.46
  -2   0  -1 3196.40  170.48
  -2   0  -1 4705.13  217.17
   1   0  -2 3567.96  179.30
   0  -2  -1 4412.08  157.23
   0   2  -1 3833.45  202.76
   0  -1   2 3982.68  201.14
   1  -2   0 4211.82  143.88
   0   1  -2 4025.30  174.13
   2   1   0 4064.13  175.14
  -2   0  -1 4813.02  201.97
   0   2   1 2932.17  141.91
  -1   0  -2 4613.57  116.88
   0  -1   2 3585.38  148.34
  -2  -1   0 4320.18  227.48
   2   0  -1 3738.56  223.06
  -2   1   0 3723.20  193.50
   0  -2   1 4482.11  134.10
   1   2   0 3964.56  198.28
   2  -1   0 4238.81  244.86
   0  -2   1 4275.62  161.34
   2   1   0 3240.37  221.68
  -2   1   0 4531.55  209.15
   0   1  -2 3438.71  195.71
   0   1   2 4310.35  238.45
   0   2   1 4592.78  211.22
  -1   2   0 4283.25  221.90
  -2   1   0 3455.43  209.42
  -1   2   0 3813.90  226.05
   1   0  -2 3818.93  246.72
   0  -1   2 3516.23  151.18
  -1  -2   1 1426.44  121.13
  -1  -1   2 2157.77  160.49
   1  -1   2 1701.80  123.04
  -1   2   1 1911.27  136.17
   1  -1   2 1690.10  128.98
   2   1  -1 1672.35  108.18
  -1   1   2 1299.63  112.41
   1   1  -2 1496.31  144.16
  -1  -1   2 1429.97  110.27
   2   1  -1 1603.44  127.10
   2   1  -1 1295.24  147.44
   1   2  -1 1498.17  116.60
  -2   1   1 1774.54  158.09
   2  -1  -1 1534.40  120.91
  -1  -1   2 1745.78  143.80
  -1   1   2 1620.18  137.75
  -2   1   1 1749.03   90.89
   1   1  -2 1438.42  137.68
   1  -1  -2 1376.60  145.33
   1   1  -2 1429.90  104.90
   1  -2  -1 1187.90  108.05
  -2  -1  -1 2345.01  142.47
   1   2   1 1435.99  145.99
  -1   2  -1 1349.42  124.51
   2  -1   1 1120.45  106.60
  -1   2  -1 1454.63  148.34
  -2   1  -1 1652.54   92.80
  -1  -2   1 1566.75  137.16
  -1   2  -1 2183.52  166.17
   2  -1  -1 1676.26  151.27
   1  -1  -2 1801.05  109.87
  -2  -1   1 2138.02  135.11
  -2   1  -1 1426.00  121.84
   1   2   1 2027.75  132.00
   1  -2  -1 1429.09  136.50
  -1   1  -2 1710.50  169.02
  -2  -1   1 2033.45  141.87
   1   1  -2 1308.38  108.30
  -2   1  -1 1305.35  125.75
   1  -2   1 1603.81  103.45
   2  -1   1 1687.49  169.90
  -1  -1   2 1565.31   83.05
  -2  -1  -1 1649.18  125.39
  -1   1  -2 1486.91  125.01
  -2   1   1 1630.98  134.67
   2  -1  -1 1383.25  125.15
  -1   1  -2 1394.71  122.03
  -1  -1  -2 1509.03  139.22
  -1   1  -2 1448.87  137.66
  -1   2   1 1744.94  117.40
  -1   2   1 1675.95  138.13
  -1   2  -1 1763.12  162.39
  -2  -1  -1 1272.01   86.91
  -1  -2  -1 1751.22  103.79
   1   1   2 2014.99  151.19
   2   1   1 1734.31  111.19
  -2   1  -1 1217.54  128.69
   1   1   2 1319.03   80.26
   1  -1  -2 1400.81   97.07
   1  -2   1 1679.38  142.66
   2   1   1 1380.94  131.96
   1  -1   2 1506.71  133.80
  -2  -1   1 1507.60   99.86
  -1  -1   2 1521.77  105.51
   1  -2  -1 1518.12  116.45
   0   2  -2 4378.99  233.29
   2  -2   0 5573.56  271.73
   0  -2  -2 5162.07  311.85
  -2   0  -2 4406.22  234.46
   0  -2  -2 4618.95  256.09
   0  -2   2 7203.74  198.47
   0  -2   2 6323.57  269.55
  -2  -2   0 4335.32  246.07
  -2   2   0 6176.50  224.40
  -2   0  -2 3980.50  203.01
   0   2  -2 5587.39  250.80
   2   0  -2 5011.97  254.22
   2   2   0 5370.88  145.77
   2   0   2 6777.49  268.29
  -2  -2   0 6642.62  287.29
   2   2   0 4721.63  211.16
  -2   0   2 6392.36  296.28
  -2   0  -2 7530.64  223.05
   0  -2   2 6522.87  296.43
   2   0  -2 5164.17  283.61
   0   2  -2 5261.29  278.31
  -2   0   2 6635.09  256.68
  -2   0   2 5420.72  178.51
  -2   0   2 5398.47  261.91
   2  -2   0 6841.15  201.29
   0   2   2 5912.84  202.85
   0   2  -2 5082.45  197.41
   2   2   0 6201.47  216.80
  -2   2   0 5225.71  278.91
   2  -2   0 5418.71  180.29
   2  -2   0 6418.31  237.58
   0  -2  -2 5907.75  278.92
  -2   2   0 5705.48  221.94
  -2   2   0 6206.21  268.08
   0  -2   2 5812.14  243.41
   2   2   0 4619.67  269.97
   2  -1  -2 2837.38  190.71
   1  -2   2 3257.91  176.15
  -2  -2   1 2737.03  171.08
  -1   2  -2 2657.45  196.98
   1  -2  -2 2845.93  163.06
   2   2   1 2915.77  251.01
   2   1  -2 3025.33  123.25
  -1  -2   2 3972.52  225.92
  -2   2   1 2354.83  130.77
   1  -2  -2 2679.23  202.55
  -1  -2   2 3079.76  162.82
  -2  -1  -2 2450.38  148.33
   1  -2  -2 3265.65  197.36
  -1   2  -2 3123.78  121.06
  -2  -1   2 2760.81  124.37
   2  -2  -1 2972.28  159.34
  -1   2  -2 3014.03  229.04
  -2   2  -1 2885.70  201.84
   2   2  -1 2296.00  199.86
  -2  -1   2 3826.81  238.66
   2  -2  -1 3039.65  195.10
  -1   2  -2 2696.75  190.99
  -1  -2  -2 2741.92  168.76
   1  -2   2 2698.93  160.25
  -1   2   2 3328.22  192.00
   2   1   2 3797.53  200.92
  -1  -2   2 2851.97  163.15
  -2   2   1 2982.75  177.75
   2   2   1 2501.83  183.84
   2  -1   2 3138.39  190.31
  -2  -1   2 3336.14  178.71
   2   1   2 2979.32  169.39
  -2  -1   2 3043.97  139.39
   1   2  -2 2883.38  185.20
  -2   1   2 2956.80  155.20
  -2   1  -2 3142.07  236.71
  -2   2   1 2975.88  152.19
   2   2  -1 2762.63   94.21
   1  -2   2 3074.23  186.02
  -2   2  -1 2753.98  216.37
  -1   2   2 3821.48  214.54
  -2   2   1 3045.10  202.47
   2   2  -1 3116.69  123.46
  -1  -2   2 2458.07  153.40
  -2  -1  -2 2956.85  176.73
  -2   2  -1 4401.62  274.84
   1  -2   2 2492.25  173.29
   1   2   2 2763.14  199.93
  -2  -2  -1 3256.69  171.78
   2  -2  -1 2870.62  213.64
   2  -1  -2 2545.84   78.55
  -2   1   2 4297.78  228.37
   2   2  -1 2442.87  175.94
   2   1  -2 2861.30  214.72
   1   2  -2 2909.87  175.50
  -2   1   2 2944.09  209.98
  -2   2  -1 3606.15  150.10
  -2   2  -1 2836.13  166.18
   2  -2   1 2890.41  216.30
   2  -2  -1 3496.51  207.32
   1   2   2 2430.44  151.85
   2   2   1 3621.94  166.80
  -2  -1   2 3303.11  201.50
   2   2  -1 3108.12  170.42
   2  -1   2 2542.22  230.48
  -2  -2   1 3296.24  193.76
   2  -1  -2 3134.96  155.53
   2  -1  -2 2457.29  202.28
   2  -1   2 3263.68  156.27
   2   1  -2 3371.80  148.77
   2  -2   1 2469.37  139.53
  -2   1  -2 2196.13  175.35
  -2   1  -2 3200.12  172.22
  -2   2  -1 3540.84  245.03
   2   2   2 3399.85  194.70
   2  -2   2 3892.44  198.93
   2  -2  -2 3683.65  158.90
  -2  -2   2 4842.35  246.40
  -2  -2  -2 5747.23  228.61
  -2  -2   2 3516.86  186.83
   2  -2  -2 4713.70  237.31
  -2   2   2 3063.76  235.75
   2   2  -2 3635.37  172.23
   2  -2   2 2898.33  214.17
  -2  -2  -2 3094.72  181.99
  -2   2  -2 4186.68  291.24
  -2  -2   2 5014.22  180.81
  -2   2   2 4913.65  178.91
   2   2  -2 3720.84  167.55
  -2   2  -2 3781.74  210.71
  -2   2   2 4311.52  220.31
   2   2   2 4992.96  233.96
   2  -2  -2 3032.10  223.71
   2  -2   2 3510.33  216.85
   2  -2   2 3596.86  187.14
   2   2  -2 2346.28  206.73
  -2   2  -2 3889.59  267.43
  -3   0   0 1771.91   59.98
   0   3   0 2026.96  125.92
   0   3   0 2128.81  156.39
  -3   0   0 1938.06  161.05
   3   0   0 1825.06  177.21
   0  -3   0 2178.20   84.69
   3   0   0 2028.54  173.89
   0   0  -3 1967.55  192.68
   0   0   3 2301.92  167.68
   0   0  -3 1637.18   90.75
   0   0  -3 2245.74   85.67
  -1  -3   0  797.70   76.84
  -1   0   3  637.39   77.22
   3   1   0  681.65   66.36
   0   1   3  844.36  111.68
   1  -3   0  844.41  104.73
  -1   0   3  713.32   89.20
  -3   1   0  665.92   86.07
   3   0   1  684.45  101.70
  -1   3   0  655.48   91.53
   3  -1   0  708.10   87.47
  -3   0  -1  573.74   75.11
   3   0  -1  636.75  102.86
   1   0  -3  679.64  117.10
   0  -1   3  742.67   91.89
   3   1   0  619.31  105.40
   0   1  -3  587.11   84.72
   3  -1   0  695.71  108.15
   0   3   1  659.38   63.79
   0  -1   3  688.17   94.00
  -1   3   0  735.49   92.50
   1   3   0  748.96   93.30
  -3   0  -1  799.51   92.96
   0   3   1  859.37   97.13
  -3  -1   0  722.84  100.24
  -3   1   0  690.95   94.09
  -3   0  -1  843.80   93.39
   0  -3   1  854.62   80.81
   0   3  -1  861.88   76.85
   0   3  -1  717.23  102.62
  -3   1   0  642.94  101.10
   3   0   1  665.04  117.66
   3   0  -1  604.91   89.21
   0  -3  -1  767.86   56.83
   1   0   3  756.31  101.36
   0   1   3  451.09   69.51
   0  -1  -3  640.75  125.31
  -3   0   1 1018.55  123.41
   0   3  -1  687.06   93.97
   1   0  -3  647.51   73.56
   0   1   3  717.20   52.91
  -1   0  -3  473.85   96.07
   1  -3   0  639.67   58.43
   0   1  -3  602.40  100.19
   0  -3   1  543.72   85.31
   0  -1   3  638.23   72.04
   0   1  -3  745.12   79.07
   0   3   1  681.78   84.37
   3   1   0  677.99   92.66
  -3  -1   0  525.91   32.96
   1   0  -3  596.76   89.63
  -3   0   1  674.47   94.34
  -3   1   0  621.61   95.14
   1   3   0  673.98   56.48
  -3   0   1  727.00   73.83
   1  -1   3   67.46   30.08
   1  -1  -3  103.28   24.72
  -1  -1   3   74.02   28.52
  -3   1   1   72.52   29.92
  -1  -1  -3   83.78   40.77
  -1  -1   3   71.42   13.66
   1  -1  -3   59.86   34.88
   1  -1   3   68.25   26.37
  -1   3  -1   64.52   32.70
  -1  -3   1   61.76   29.19
  -3   1   1   83.30   24.69
  -3  -1  -1   94.04   32.14
   1   3  -1   69.40   27.17
  -1   1   3  100.13   37.84
   3   1  -1   71.02   28.01
  -1   3  -1   82.80   32.51
  -3   1  -1   48.32   23.51
   3   1   1   78.41   24.61
   3   1  -1   87.25   44.80
   3  -1  -1   81.37   38.22
   1  -3  -1   73.75   27.67
   1   1  -3   66.71   27.12
  -1  -3  -1  102.58   23.01
   3   1   1   58.08   32.16
   3  -1   1   89.80   42.76
  -1   1   3   86.02   30.26
   1   1   3  181.67   48.80
  -1  -1   3   52.64   27.06
  -1   3   1   83.85   30.61
  -3  -1  -1   55.29   19.86
   1  -3   1   69.69   19.18
   1   1  -3   59.14   25.49
   1   3   1  111.49   37.15
  -1   1  -3   47.78   22.79
  -1   3  -1   66.67   30.85
  -3  -1   1   56.98   23.12
  -3  -1   1  125.94   40.48
  -3   1  -1  102.04   35.20
  -1   1  -3   77.49   34.75
  -3   1   1   75.29   34.38
   1   1  -3   92.80   32.74
   1   3   1   81.75   35.07
   1  -3   1  101.23   34.32
   3   1   1   68.68   37.16
   1   1  -3   85.35   37.22
  -3  -1  -1  143.53   42.03
  -3  -1   1   77.14   31.44
   3  -1  -1   51.90   27.24
   3   1   1   68.10   17.83
  -3  -1   1   86.13   27.13
  -3   1   1   77.34   33.35
  -3   0  -2 1008.97  102.49
  -2   0   3 1661.61  131.91
   0  -2   3 1857.08  155.50
   3   0   2 1624.82  211.63
  -2   0  -3 2279.26  103.01
   3  -2   0 1510.53  153.66
   0   2  -3 1706.93  148.68
   2   0  -3 1642.83  143.18
   0  -3   2 1489.50   98.73
  -2   3   0 1657.45  104.16
   2   0  -3 1456.85   61.71
   0  -2   3 1764.71  128.51
  -3   0   2 1571.51  122.72
   0   2   3 1507.79  122.33
   2  -3   0 1450.36   83.15
   0   3  -2 1441.57  136.78
   3   0   2 2246.65  179.67
   0   3  -2 1413.25  147.07
   3   2   0 1158.32  150.72
  -2   3   0 1458.79   76.51
   2   0  -3 1429.87  133.68
  -2   0   3 1739.76  156.74
   0   3   2 1670.07  129.46
   0   2   3 1225.81   97.13
   2  -3   0 1442.66  139.39
  -2  -3   0 1877.26  144.69
   0  -3   2 1381.79  122.07
  -3   2   0 1969.44  165.36
   0  -3   2 1365.13  124.37
   3   2   0 1646.79  130.31
  -3   0   2 1346.73  109.16
   0  -2   3 1972.27  114.33
  -3   2   0 1943.06  162.09
   3   0  -2 1303.39  135.81
   2   3   0 1842.92  148.94
   0   2  -3 1546.18  161.63
   3   2   0 1587.68  119.77
   2   0  -3 1489.01  174.83
  -3  -2   0 1948.81  166.33
   0  -3   2 1708.38   80.63
   3   0  -2 1446.04  150.03
  -3   0   2 1726.21  163.31
   2   0   3 1997.88  156.91
  -3   2   0 1604.96  132.85
  -2   3   0 1719.98  152.72
  -3   0  -2 2070.98  133.72
   0   2  -3 1581.96  135.19
   3  -2   0 1822.06  163.21
   0  -2  -3 1475.26  188.97
  -3  -2   0 1114.42  140.97
  -2   0  -3 1338.40  158.29
  -3   0  -2 2242.72  170.95
   0   3   2 1904.40  139.80
   0  -3  -2 1290.37  153.78
   3   2   0 1858.86   73.12
   1  -3  -2  600.10   98.18
   2  -1  -3  760.71   96.54
  -2  -3  -1  769.06   77.31
   2   1   3  816.48  100.63
  -2  -1   3  626.83   83.42
  -3  -1   2  738.14   92.84
  -3   2  -1  746.25   85.51
   3  -1  -2  730.44  112.31
  -1   2   3  473.76   65.58
   1   2  -3  659.05   86.79
  -2   3  -1  788.37  110.82
  -3  -2  -1  916.43  107.32
  -3   2  -1  763.79  113.98
   1   2  -3  614.04   91.05
  -1   2   3 1022.07   99.76
   2   1  -3  732.80   66.11
  -1  -2   3  805.72   80.60
   1  -2  -3  765.83  129.19
  -3  -2   1  678.62   83.05
  -2   1  -3  866.10  142.05
  -1   2  -3  636.54   95.48
   2  -3  -1  722.04  107.12
   1  -3   2  758.63  102.36
  -3  -1  -2 1067.86  101.98
   3  -2   1  665.59   83.02
  -1   3   2 1027.73  102.07
  -2   1   3  767.46  108.56
   3   2   1  924.20   76.78
   1   2  -3  592.74  100.29
  -2   1  -3  845.31   83.16
   2  -1  -3  741.47   65.84
   1   3   2 1057.91   91.75
   3  -1  -2  633.34   90.89
  -3  -1  -2 1179.61  104.17
   3   2  -1  705.52   69.62
   2   3  -1  769.18   91.35
  -1  -2   3  777.52  105.71
  -1  -2   3  766.01   89.61
   1  -2  -3  605.03   82.11
  -1  -2  -3  688.87  101.08
   3  -2   1  626.08  107.00
  -1   3   2  590.51   48.75
  -2   1   3  793.09   57.75
   1  -3   2  601.58   70.33
  -2  -1  -3  510.34   82.66
  -1  -3  -2  615.08   74.22
  -3   1  -2  554.81   87.02
   3   1   2  688.08   95.53
   2  -1   3  761.54   82.59
   1  -3   2  601.10   83.51
  -3  -2   1  656.07   87.66
   1   3  -2  547.32   73.63
   3   2   1  663.71  106.97
   2   1  -3  690.52   83.12
   2   1   3  946.88   81.71
  -1   2   3  609.95   88.47
   2  -3   1  641.98   62.81
   1   3   2  584.98   99.79
   1  -3   2  606.69   79.45
  -3   2  -1  711.78   71.09
  -1  -3   2  637.77   86.84
   3   1  -2  751.45  117.59
   1  -2   3  633.57   82.05
   2  -3   1  763.60  108.57
  -1  -3   2  752.90   96.46
   3   2  -1  636.03  114.69
  -3  -1  -2  538.19   72.91
   3  -1   2  807.74   69.79
  -3   1   2  741.19   90.32
  -2   3   1  723.09   63.72
  -2  -3   1  724.95   91.46
   1  -2   3  851.91  101.54
  -3   2   1  770.23   76.54
  -3   2   1  600.19   76.76
   1   2   3  917.13  116.68
  -3  -2   1  688.97   97.84
  -1   3  -2  741.72  112.11
   2   1  -3  656.80   99.01
   2  -1  -3  596.24  113.10
  -2   1   3  554.03   78.52
  -2   3   1  790.78   87.66
   3  -2  -1  632.65   75.69
   3  -1   2  604.72  121.52
  -1  -2   3  592.34   59.72
  -2  -1   3  697.54   48.58
  -3   2   1  850.10  110.03
  -3  -1   2  948.05  111.58
  -3  -1   2  582.55   53.93
   1  -2  -3  862.05  100.16
   2  -3  -1  842.17   99.30
   2  -1  -3  649.20   44.48
  -2  -1   3  737.95   82.54
   2   1  -3  682.32  106.54
   3   2  -1  736.27  100.17
  -3   1   2  734.77   91.55
   2   3   1  721.77  126.69
  -3   2  -1  724.31   98.03
  -1   2  -3  615.18   74.72
  -2  -1   3  675.44   90.81
  -2   3  -1  549.18   85.74
  -1   2  -3  617.77  102.73
  -1  -3   2  804.26   78.26
   1   3  -2  701.61   95.12
  -2   3   1  853.05   89.73
   2   3   1  882.18   72.20
   3   1   2  824.10   90.59
   3  -2  -1  611.32   98.58
  -3  -1   2  650.69   51.74
   3  -2   2  986.46  136.47
   3   2   2 1595.62  119.75
   3   2   2 1261.28  133.19
  -2  -2   3 1495.84  145.84
  -2  -2   3 1094.49   90.60
   2  -3   2 1207.66  100.13
  -3  -2   2 1466.94  128.42
  -2  -3   2 1167.26  116.18
  -3   2  -2 1295.63  157.63
   2   2   3 1292.98  103.04
   3   2  -2 1167.09   98.47
   2  -3  -2  956.71  118.06
   2   3   2 1227.81   93.24
  -2  -3   2 1092.47  119.59
   2  -3   2 1335.71  128.80
  -3  -2   2 1076.37   96.15
  -2   2   3 2093.76  152.03
  -3   2   2 1400.22   81.10
   2   2  -3  989.44  100.27
  -2  -2   3 1226.39  100.70
   2  -2   3  966.28  124.81
   2   3  -2 1185.20  111.21
  -2  -2  -3  863.32   95.98
  -3   2  -2 1134.08  134.65
   2  -2  -3  965.19  138.46
  -2   2   3 1324.46   94.89
   2  -3  -2 1157.03  107.91
  -3  -2   2 1440.97  103.62
   2  -2   3 1365.53  114.52
  -2   3   2 1585.21  115.07
   2  -2  -3 1180.08   85.18
  -3   2  -2 1397.44  116.04
  -2   2  -3 1118.11  106.30
   2   2  -3 1281.38  107.40
   3   2  -2  819.30  130.91
  -2   2  -3  973.58  134.33
   2   2  -3  744.19  118.67
   3  -2  -2 1555.47   84.46
   2  -2  -3 1576.43  127.45
  -3  -2  -2 1017.38   88.69
   3   2  -2 1162.15   55.19
   2   2   3 1510.83  136.07
  -2  -2   3 1247.22   94.35
   2  -3   2  951.89  112.07
   3  -2  -2 1146.77  126.49
  -2  -3  -2 1805.92  113.14
   2   3  -2 1109.16  154.29
   2   3  -2 1291.41  107.97
  -3  -2  -2 1665.69  116.96
   2   3   2 1123.13  114.86
  -2   3  -2 1246.73  155.71
   0  -3   3  429.95   64.76
   3   3   0  494.59   43.44
  -3   0   3  368.18   60.10
  -3   3   0  381.28   59.89
   3  -3   0  505.36   80.57
   3   3   0  330.30   76.37
  -3   3   0  415.61   57.91
   0  -3  -3  394.78   96.52
   3   0  -3  367.21   74.73
   3  -3   0  383.09   74.80
   0  -3   3  367.31   54.23
  -3   0  -3  317.83   63.63
  -3  -3   0  553.41   86.41
  -3   0  -3  610.49   66.84
   3   0   3  496.50   78.07
  -3   0   3  443.52   50.43
   3   3   0  366.37   49.10
  -3   3   0  432.68   72.70
   3   0  -3  423.29   82.98
   0   3   3  666.95   77.23
   0   3  -3  339.59   72.96
   0  -3   3  480.99   73.42
   0   3   3  351.61   46.91
   0  -3   3  455.27   43.51
   3   3  -1  201.59   26.34
  -3   3   1  181.47   41.31
   3  -3   1  170.43   53.13
  -3  -1   3  201.63   48.53
   3  -3   1  179.45   37.56
   1   3  -3  202.06   50.31
  -3   1   3  192.72   44.44
   3   3  -1  197.79   20.91
   1  -3   3  206.74   48.84
   3  -1  -3  201.08   57.52
  -3   3  -1  134.82   38.11
   3  -3  -1  235.20   56.45
   3   3  -1  157.43   22.02
  -1   3   3  356.97   64.70
  -3  -3  -1  238.60   50.54
  -1   3   3  143.75   29.53
  -3   3  -1  259.75   57.01
  -3  -1  -3  239.83   50.46
  -3   1  -3  141.60   49.25
   3   3   1  205.51   55.97
  -3  -3   1  212.89   52.73
  -3   3   1  160.41   40.95
   1   3   3  202.33   39.25
   3   1  -3  170.86   52.54
  -3  -1   3  166.47   46.24
  -3   3  -1  184.63   32.85
   3  -1   3  202.72   36.86
   3   3   1  221.49   36.91
   3  -3  -1  185.21   39.48
  -1  -3   3  143.07   34.41
  -3   1  -3  195.22   43.39
  -1  -3   3  262.45   55.65
  -3   3  -1  184.90   57.59
   3   1   3  264.46   54.69
  -1  -3  -3  178.88   46.91
  -3   1   3  204.97   38.86
   1  -3  -3  216.85   69.22
   3  -3  -1  154.23   47.36
   3  -3   1  193.16   50.64
   3  -1  -3  171.74   52.27
   1  -3   3  147.17   38.08
  -3  -1   3  178.34   34.89
   3   3  -1  199.12   62.10
  -1  -3   3  184.36   35.69
   3  -1   3  188.29   61.01
  -3   3   1  174.37   38.68
   1  -3   3  164.26   40.06
  -1   3  -3  185.85   57.68
   3   1   3  259.80   56.15
   2  -3   3  317.20   61.97
   3  -3  -2  393.68   54.83
  -3  -2   3  535.91   87.23
   2   3  -3  283.64   78.63
  -3  -2   3  437.99   62.40
  -3   3  -2  583.44  111.82
  -3   2   3  500.22   69.85
  -3   3  -2  513.15   48.48
  -3  -2   3  337.52   46.02
   3  -3   2  318.69   70.20
  -3  -3   2  336.12   60.51
   2   3   3  300.07   51.13
   3   2  -3  403.38   48.04
   3  -3  -2  580.41   85.53
   3   2   3  583.15   79.42
   3  -2   3  469.69   60.15
   3  -2  -3  476.37   37.57
   3  -3   2  528.35   83.68
  -2   3  -3  359.90   88.32
   3   2  -3  409.27   52.90
  -3   2  -3  327.69   79.80
  -3  -2  -3  676.09   74.81
  -3  -3  -2  556.37   62.38
   3   3  -2  424.92   63.97
   3   3   2  546.27   66.51
   3   3  -2  440.77   42.32
  -3   2  -3  524.53  110.20
  -3   3   2  514.31   60.68
  -2  -3  -3  407.93   61.99
   3   3  -2  291.25   77.11
   3   3   2  301.85   63.03
   3   2  -3  326.52   80.33
   3   2   3  442.96   68.61
  -3   3  -2  336.88   58.32
  -2  -3   3  357.68   61.26
   2  -3   3  417.94   61.59
   2  -3  -3  375.22   57.55
  -2  -3   3  557.52   82.87
   2   3  -3  412.27   67.15
  -2  -3   3  343.42   34.67
   3  -3  -2  443.39   80.02
  -3   2   3  767.88  101.05
  -3   3  -2  426.78   85.42
   2  -3   3  500.00   79.94
   2   3   3  477.65   65.26
  -3   3   2  263.82   44.89
   2  -3  -3  378.64   82.16
   3  -2   3  379.23   80.14
   3  -2  -3  371.26   81.77
  -2   3   3  656.39   89.99
   3  -3  -3  203.95   59.65
   3   3   3  307.25   53.05
   3  -3  -3  314.88   62.81
  -3  -3   3  167.82   40.58
   3   3  -3  230.63   44.44
  -3   3   3  266.33   53.90
   3  -3   3  188.12   50.38
  -3  -3  -3  313.30   46.49
  -3  -3   3  250.70   54.53
   3   3   3  213.01   49.26
   3   3  -3  156.92   57.86
  -3   3  -3  177.67   26.19
  -3   3  -3  209.97   67.65
   3  -3   3  176.87   49.56
   0   0   4 3392.06  211.30
   0   4   0 3189.68  168.50
   0   0  -4 2971.61  131.61
  -4   0   0 3253.19  214.35
   4   0   0 2782.82  213.73
   0   0  -4 3570.11  103.71
   4   0   0 2846.55  232.37
   0  -4   0 3130.29   90.36
   0   0  -4 3175.09  281.85
   0   4   0 3253.22  199.55
  -4   0   0 2401.77  130.35
  -4   0  -1 1511.42  124.71
   1   0   4 2225.02  177.25
   0  -1  -4 2091.27  249.14
   1   4   0 1668.22   96.19
  -1  -4   0 1779.60  186.04
  -1   0   4 1991.78  158.29
   0   4  -1 1941.32  170.21
   4   0  -1 1585.19  147.04
   0  -4  -1 1977.99  199.04
  -4   0  -1 1900.42  148.30
   0   1  -4 2125.22  131.15
   0  -4   1 1576.59  150.41
  -1   4   0 1976.29  163.06
   0  -1   4 1978.84  162.73
  -4   0   1 1936.65  114.83
  -1  -4   0 2029.83  115.15
   4  -1   0 1946.58  182.55
   0   1  -4 1419.88  136.83
   4   0   1 1729.96  185.28
   0   4   1 2327.57  164.07
  -4  -1   0 2239.20  180.63
   1   4   0 1975.30  153.91
   0   1  -4 2099.80  128.93
  -4   1   0 1796.67  143.02
   0  -4  -1 1837.08   73.60
  -4   0   1 1794.88  158.96
   4   1   0 1639.63  146.86
  -1   0  -4 1728.93  212.49
   4   0  -1 1510.59  164.10
   0   4  -1 2074.38  122.19
   4  -1   0 1731.71  176.92
   1  -4   0 1807.70  165.23
  -4   1   0 1852.92  156.34
   4   0   1 1890.79  177.25
   1   0  -4 2202.39  133.86
   4   1   0 1581.03  164.96
   0   1   4 2040.17  170.68
   1   0  -4 1795.23  211.66
   0   1  -4 1838.33  195.97
   0  -1   4 2077.72  158.36
   1  -4   0 2159.11  111.17
  -1   0  -4 1534.90  132.92
  -1   4  -1 1268.65  125.70
   1   1   4 1394.84  139.21
   4  -1  -1  909.77  116.51
  -1  -4  -1 1219.65  156.36
  -1   1   4 1312.38  142.59
   1   1  -4  911.94  105.72
   1  -4  -1 1081.82  130.77
  -4   1   1 1179.97   94.89
   1  -4   1 1073.76  122.99
  -4   1  -1 1339.83  120.14
  -1   1  -4 1047.16  114.69
   1  -1  -4 1392.91   78.48
   1   4   1 1464.34  136.67
  -1   1  -4 1210.62  158.89
  -1  -4   1 1078.65  137.18
   4  -1  -1 1153.65  142.88
   1  -4   1 1029.28  106.39
   1  -4   1 1020.36   63.67
  -1   1  -4  764.26  109.69
   1   1  -4 1084.71  158.84
  -1  -1   4 1054.02  108.84
  -4  -1   1 1053.75  125.31
   4   1   1 1173.27   68.11
   4   1  -1  899.35  102.53
   4  -1   1  955.34  139.15
  -1  -4  -1 1428.05   79.87
  -4  -1   1 1010.88  107.42
   4   1   1  999.54  131.93
  -1   1   4  942.54   90.93
   1  -1  -4 1184.83  176.81
  -4  -1  -1 1331.91  129.57
  -1   4  -1 1079.15  127.05
   4   1   1  927.23  123.30
   1   4  -1 1141.97  119.38
   1   1  -4 1091.68  106.81
   4   1  -1  864.93  125.82
  -4   1   1  914.24  107.07
  -4  -1  -1  842.37   70.72
  -1   4   1 1328.85  121.11
   1  -1   4 1267.84  121.02
   1  -1   4 1288.24  125.70
  -1  -1   4 1021.18  115.61
  -4  -1   1 1164.42   96.27
   1  -4  -1  967.33  103.91
  -1  -1  -4  835.43  145.74
   2   0  -4 2037.75  109.18
  -2   0   4 2135.66  155.94
   0   2  -4 1538.51  159.01
   0  -2  -4 2497.62  181.32
  -4   2   0 2082.97  168.28
   0  -4  -2 2206.60  210.51
   0   2   4 1655.67  137.36
   0  -4   2 1656.94  141.73
  -2   0   4 1688.84  145.50
   2  -4   0 2158.52  198.35
   0   4   2 2659.90  178.68
   2   4   0 2524.86  174.83
  -4   0   2 1905.61  121.78
  -2   4   0 2166.52  174.59
   2  -4   0 1891.54  165.14
  -2  -4   0 2306.98  145.05
   2   4   0 1602.78   77.36
   4   2   0 1607.41  180.55
   0  -2   4 1805.39  110.39
  -4  -2   0 2440.77  187.16
   0   4   2 1920.92  133.73
  -2   0  -4 2031.85  211.41
  -4   2   0 1972.91  150.84
  -4   0   2 1755.46  160.49
   0  -4   2 1537.06   93.06
   4   2   0 1630.41  128.64
   4   0  -2 1617.37  164.81
   2  -4   0 1986.83   95.91
   0  -4   2 2165.51   86.29
  -4   0  -2 2959.66  172.88
   2   0  -4 1994.86  151.33
   0   4   2 2077.66  151.23
   0   2   4 1809.25  100.89
  -2   0  -4 2461.11   56.84
   4  -2   0 1674.49  168.42
   0  -2   4 2114.94  167.36
   2   0   4 2640.62  185.76
   4   0   2 2673.96  205.23
   0   2  -4 1880.59  172.30
   2   0  -4 1848.73  207.29
   4   2   0 1975.10  143.94
   4   0   2 1696.54  203.05
   0   2  -4 2202.79  160.35
  -4   0   2 1861.12  131.70
   0  -2  -4 2049.47  245.81
   4   0  -2 1716.44  156.24
   0  -4  -2 1531.36  162.27
   0   4  -2 1818.26  166.38
   2   1   4 1750.06  151.35
  -1   2  -4 1171.76  122.98
  -2  -4   1 1133.50  142.10
  -2  -1  -4 1182.69  147.98
   2  -1   4 1616.76  142.93
   4   2  -1 1039.83  148.66
  -1  -4  -2 1364.77  164.15
   1   2   4 1648.29  156.01
  -1  -2   4 1383.10  137.25
  -1  -4   2 1247.72  131.52
  -4  -1  -2  963.02   89.87
   1  -4  -2 1407.09  158.09
   1  -2  -4 1914.12  152.54
   4  -1  -2 1108.94  134.93
  -1   2  -4 1352.47  144.26
  -1   2   4 1163.58  111.37
   2  -4  -1 1565.48  164.85
  -1   2   4 1580.51  124.29
   1  -4   2 1280.49  130.65
   2  -4   1 1649.50  162.05
  -1   2  -4 1035.43  131.71
  -4   2  -1 1528.38  157.85
  -1  -2   4 1396.22   82.64
  -1   4   2 1809.32  139.39
   2  -1  -4 1368.88   86.25
   4  -1   2 1223.47  172.44
   1   4   2 2168.65  141.49
   4   1   2 1228.55  164.84
   4   2  -1 1217.99  104.70
   2   4  -1 1407.86  126.95
  -4   1  -2 2070.81  165.24
  -4   2  -1 1918.83  161.79
  -4   1   2 1256.13  113.96
  -2  -1   4 1328.85  115.39
  -4  -1   2 1123.22   74.58
  -4  -1  -2 1964.21  134.88
  -1  -4  -2 1101.92   91.83
   1  -4   2 1060.51   86.95
   4  -2   1 1092.29  145.00
   1   2  -4 1309.04  143.00
   4   2   1 1329.55  144.38
   2   4   1 1921.80  116.66
  -2   4   1 1591.60  132.44
   4  -2  -1 1246.36  137.63
   4   1  -2 1132.45  141.45
   4   2   1 1418.61  104.39
   1   4  -2 1355.04  135.19
  -2   1   4 1307.55  139.84
  -1  -4   2 1362.39   98.32
  -4  -2  -1 1842.03  154.41
   2  -4   1 1245.07   71.48
   1  -2   4 1461.67  133.95
  -1   4  -2 1303.77  142.63
   2  -4   1 1278.27  124.87
   4   1  -2 1164.21  115.94
  -2   1  -4 1840.30  110.84
  -4   2   1 1009.73  107.02
  -4   1   2 1136.82  122.10
   4   1   2 1356.48  145.79
   1   4   2 1362.70  163.05
  -4  -2   1 1539.24  149.43
   2   1  -4 1238.03  129.19
   4   2   1 1360.68  158.81
  -2  -4   1 1348.17  116.48
  -4  -1   2 1275.34  140.92
   1   2  -4 1310.50  149.68
  -1   4   2 1368.49   78.85
  -2  -4  -1 1453.55   95.24
  -4  -1   2 1648.85  136.57
  -2   4  -1 1373.33  141.40
   2  -4  -1 1408.28  113.83
  -2   1   4 1617.48  162.85
  -4   2  -1 1370.48   80.29
  -4   2  -1 1120.52  117.46
   2   1  -4 1337.29  166.95
   4  -1  -2 1473.00  166.54
  -4   2   1 1486.76  111.19
   4   1   2 1764.55  132.39
   2  -1   4 1578.81  122.57
   2  -1  -4 1340.06  183.76
  -1  -2   4 1283.86  122.72
   4   2   1 1800.40  103.28
  -2  -1   4 1196.16  121.40
   1  -2  -4 1521.98  211.56
   1   2  -4 1436.52  141.28
   1  -4  -2 1003.86  125.58
   1  -4   2 1099.18  100.93
  -2   1  -4 1208.73  168.81
  -1  -2  -4  843.54  140.62
   2   1  -4 1190.30   89.68
  -4  -2   2 1411.41  115.02
  -4  -2  -2 1971.88  131.26
  -4   2   2  868.77   97.84
  -2  -4   2 1224.36  136.70
  -2  -2   4 1047.76   60.08
   2  -4  -2 1597.95  164.74
   2  -2  -4 1991.86  129.41
  -2   2   4 1960.29  137.69
   2   4   2 1965.30  109.16
  -2   2  -4  925.19  128.78
  -4   2  -2 1240.49  153.33
  -4  -2  -2  932.05   74.12
  -2   4   2 1750.76  128.82
   2   2  -4 1450.53  147.66
  -2   4   2 1068.21   42.06
  -2   4  -2 1386.60  154.31
  -2  -2  -4  997.20  122.00
   2  -2  -4 1258.41   96.04
   4   2   2 1849.83  120.51
   2   4  -2 1380.99  126.56
  -4  -2   2  878.57   84.66
   4  -2  -2 1080.58  135.78
  -4   2  -2 1440.83  144.34
   2   2   4 1696.79  149.95
   2  -4   2 1070.34  112.34
   2  -2   4 1638.13  131.44
   2  -4   2 1177.96   86.38
   2  -4   2 1624.73  147.68
   2   2  -4 1106.49  139.10
  -4  -2   2 1396.67  117.86
   2   2   4 1169.25   61.23
  -2   4   2  886.69   52.40
   4   2   2 1302.56  136.32
   2   2  -4 1076.02   97.89
   4   2  -2  912.91  139.98
  -4  -2   2 1288.23  142.07
   4  -2  -2 1336.43  118.76
   4  -2   2 1077.43  151.43
   4   2   2 1401.25  166.31
  -2  -4  -2 1942.71  107.08
  -2  -2   4 1169.06  105.54
   2  -2  -4 1310.13  180.06
  -4   2   2 1394.94   75.89
   2  -4  -2 1393.08  138.24
  -2  -2   4 1323.79  133.70
  -2   2  -4 1288.90  130.28
   4   3   0  727.93   74.74
   4   0   3  772.43  133.24
   0  -3  -4 1040.71  134.35
   0  -4  -3 1058.38  143.59
  -4   0   3  777.04   80.96
  -3   0   4  737.18   84.61
   0  -4   3  744.46   89.19
   0   3   4 1255.58  102.00
  -4   0   3  630.88   73.39
   3  -4   0  968.39  114.38
   0  -3   4  914.10   90.66
  -4  -3   0  979.19  116.21
   0   3  -4  855.94   95.25
   4  -3   0 1180.00  124.94
   3   4   0  938.18   61.23
   0   4   3 1344.22  108.73
   0   4  -3  655.58  103.02
  -3   4   0  668.38   51.57
  -3   0  -4  728.87  106.10
   3  -4   0  689.45  100.15
  -4   0  -3 1260.98  117.59
   4  -3   0  672.19  102.91
   0  -3   4  979.51  111.25
  -3   4   0  851.04  104.90
   3   4   0  786.11   59.24
  -4   3   0  811.04   98.03
   0  -4   3  864.79   94.65
   0  -4   3  752.06   67.69
  -3  -4   0  982.72  103.17
   0   4   3  881.16   77.70
   3   0  -4  859.65  109.52
   4   0  -3  786.29  112.58
   4   3   0  761.38  117.55
  -3   0  -4 1153.72   71.73
   3   4   0  666.14  108.37
  -4   3   0  958.66  103.95
   4   0   3  990.46   63.56
   3   0  -4  743.27  116.92
  -4   3   0  810.24   99.87
   3   0   4 1082.09  115.52
   0  -4   3  850.76   49.44
  -4   0   3  585.57   75.52
   0  -3  -4  718.64  144.24
   0  -4  -3  670.24  120.40
   0   3  -4  742.68  111.04
   0  -3   4  883.17   65.81
  -3  -1   4  461.46   61.56
   4   3   1  766.57   61.68
  -4   3  -1  622.18  105.12
  -4  -1  -3  850.38   87.91
   3  -4  -1  461.39   82.78
  -4  -3  -1  790.05   96.99
  -1  -3  -4  355.65   89.70
   3  -1  -4  684.18  101.85
  -1  -4  -3  635.02  109.24
  -3  -1   4  404.16   24.93
   1  -4  -3  768.36  124.06
   1   3   4  701.83   79.21
  -1   3  -4  545.16  101.02
  -4   1   3  498.12   66.73
  -1  -3   4  508.33   57.31
  -3  -1   4  413.52   27.29
   1  -4   3  572.47   77.49
   3  -4  -1  684.64   98.08
   3   4   1  634.68   54.18
   3   4  -1  690.71   88.03
   3  -4   1  634.98   90.22
  -4   3   1  471.71   68.98
   1  -3   4  614.39   81.49
   1   4   3  866.74   78.45
   4  -3  -1  955.51  113.05
  -4   1   3  685.97   85.36
   4  -3   1  821.92  106.91
   3   1  -4  550.52   42.77
   4   3  -1  601.72   59.11
  -1   4   3  927.72   99.32
  -1  -4  -3  532.56   75.55
  -3   1  -4  562.27  111.11
  -1  -4   3  687.99   85.96
  -3   1   4  527.43   86.02
  -3  -1  -4  442.83   72.17
  -4   1  -3  496.38   81.55
  -1   3  -4  585.54   70.55
  -4   3  -1  604.74   86.91
   3  -4  -1  569.13   64.90
   4  -3   1  514.44   96.67
  -3   4   1  662.35   44.73
   4  -3  -1  495.35   87.90
   1  -4   3  496.43   65.87
   3   1  -4  442.80   80.05
   1  -3   4  522.34   77.47
   1  -4   3  541.24   72.82
   3   1   4  867.04  105.15
   4   3   1  556.53   85.76
   4  -1   3  500.61  104.46
  -3  -1   4  535.69   77.83
   4  -1  -3  579.18  100.98
   4  -1   3  716.10   58.55
   1   4  -3  518.53   83.07
  -3   4   1  617.01   80.00
   4   1   3  704.98   98.77
  -1   3   4  503.86   61.00
  -3   1  -4  739.27   74.91
   4   1  -3  393.74   79.73
  -4  -3   1  654.02   95.85
   3  -4   1  604.45   58.80
  -3  -4   1  508.16   79.23
   1  -3   4  683.27   86.12
   4   3   1  546.27   95.66
   4   3  -1  438.82   92.55
  -4   3   1  591.76   73.53
  -1  -3   4  760.55  100.72
   3   4   1  446.29   81.34
   3   4  -1  453.66   95.76
  -4   3  -1  445.92   59.87
  -1  -4   3  515.43   73.43
   1   3  -4  519.79  100.59
   3  -4   1  482.97   82.95
  -1  -4   3  449.79   31.12
  -3  -4  -1  683.06   75.68
   1   3  -4  497.13   82.13
   3  -1   4  709.65   72.50
  -4  -1   3  553.75   80.85
  -3   4  -1  562.76   91.68
   4  -1  -3  554.70   83.18
   3   1  -4  724.54  112.53
  -1   4  -3  622.84  102.58
   3  -1  -4  518.19  104.99
   4   1   3  776.11   90.09
   1  -3  -4  614.88  135.44
   1  -4  -3  622.06  114.82
  -4  -1   3  424.69   42.89
  -1   3   4 1027.63   94.49
   3   2   4  819.75   97.87
   3   2  -4  467.23   92.39
  -3  -4   2  389.69   76.12
   2   3   4  585.12   73.81
   2  -3  -4  696.91  132.13
  -3  -2   4  571.91   52.21
  -4   3  -2  652.75  116.34
  -2  -4   3  558.08   80.87
   3   4   2  641.12   62.87
  -2  -3   4  449.75   52.34
   2  -4  -3  839.10  121.72
   2   4   3  904.93   75.93
   4   2  -3  530.79  105.95
   2  -4   3  857.13  100.76
  -3   2   4 1033.36  102.23
   3  -4   2  755.28   95.73
   4  -3  -2 1084.86  118.10
   3   4  -2  654.48   82.54
  -2   3   4 1065.06  100.66
   2  -3   4  731.52   93.15
  -3   4   2  423.86   49.05
   3  -2   4  549.29   92.02
   2   3  -4  324.57   80.84
  -4   2   3 1071.50  115.05
   3   4  -2  481.69  102.43
  -3   2  -4  480.29   96.78
  -3  -2  -4  712.75   85.99
   4  -3   2  514.80   93.26
  -4   2  -3  475.15   96.25
  -2   4   3  761.48   92.08
  -3   4   2  756.74   81.29
  -2  -3  -4  560.53   84.36
   3   2  -4  631.53   63.41
  -4   2  -3  655.65  107.31
  -4   3  -2  785.47  110.53
  -2  -4  -3  889.54   88.50
   4   3   2  766.26   73.72
  -4  -2  -3  946.99   85.00
   2  -4   3  555.81   76.62
  -3  -4  -2  838.49   72.29
   4  -2   3  496.84   95.32
   2  -3   4  514.01   80.66
  -4  -3  -2  879.96   83.67
  -2   3  -4  629.60  111.43
   3  -4  -2  849.76  110.41
   2   3  -4  548.78   76.18
   3  -4   2  475.70   80.45
  -4  -3   2  521.47   73.47
   3   2   4  607.15   59.77
   2  -3   4  693.39   78.76
  -4   3   2  376.98   57.41
   4   2   3  672.45   92.12
   4   3   2  642.76   98.59
   4   3  -2  469.71   98.63
   3  -2   4  830.85   80.71
   2   3   4  428.78   46.61
  -4  -3   2  629.20   96.68
  -3  -4   2  626.68   90.75
  -2  -3   4  850.45  108.30
  -4  -2   3  746.71   97.75
   3   4   2  469.49   77.40
   4   2   3  826.59   88.80
   2   4  -3  612.55  121.63
  -3  -2   4  672.58   94.16
  -2  -4   3  675.06   86.69
  -4   3   2  681.13   66.95
   4  -3  -2  569.71   74.50
   3  -4  -2  644.22   88.63
   3  -2  -4  593.89  111.61
  -2   3  -4  603.69   64.11
   2   4  -3  648.36   88.19
   2  -4  -3  519.11   99.02
   4  -2  -3  526.77   83.26
  -3   4  -2  741.95  117.82
  -3   2  -4  570.64  100.50
  -2   4  -3  626.93  110.67
   3  -3  -4  323.28   83.45
   3   3   4  427.23   66.44
   3   4  -3  250.68   76.83
  -3  -4   3  286.38   58.79
   3   4   3  331.14   47.09
  -3  -4   3  394.33   65.03
  -3  -3   4  266.24   43.16
   4   3  -3  257.00   73.10
   3  -4  -3  499.58   87.23
   3  -3  -4  581.83   83.15
   3  -4   3  464.98   74.08
   4  -3  -3  624.93   88.68
  -3   3   4  590.41   75.65
   3   4  -3  367.31   61.53
  -4   3   3  369.77   61.44
  -3   4   3  313.62   57.34
  -4   3  -3  462.95   97.58
   3   3  -4  380.06   57.48
  -3  -3  -4  532.95   68.48
  -3  -4  -3  485.25   54.70
   4   3   3  427.00   59.61
  -4  -3   3  396.47   65.37
   3  -4   3  280.49   57.91
   3  -3   4  395.28   54.37
  -4   3  -3  333.51   83.86
   4   3   3  343.17   63.50
  -3  -3   4  428.76   72.92
  -4   3   3  207.44   44.33
   3   4   3  219.95   42.59
  -4  -3  -3  450.88   55.75
   4  -3   3  247.48   60.17
  -3   3  -4  257.39   73.55
   3  -3   4  225.37   54.33
   4  -3  -3  394.29   72.53
  -3   4  -3  377.60   88.25
   3  -4  -3  383.63   80.65
   3   3  -4  251.48   71.67
   0  -4  -4 1036.35  144.45
   0  -4   4  654.23   73.10
  -4   0   4  553.61   67.23
   0   4   4 1224.66   96.14
   4  -4   0 1075.52  116.10
   4   4   0  600.47   57.41
  -4   0  -4  883.07  107.05
  -4   4   0  736.40   96.29
  -4   4   0  775.16   70.27
   4  -4   0  614.45   95.36
   0  -4   4  670.44   67.86
   0  -4   4  902.07   94.88
  -4  -4   0  885.26  104.24
   4   0  -4  620.32   97.23
   4   4   0  604.64  101.42
   4   0  -4  773.46  105.73
   4   0   4  890.69   72.87
   0   4  -4  696.07  105.04
   0  -4  -4  783.63  145.13
  -4   0   4  522.99   72.18
   4   4   1  716.24   57.95
  -1  -4  -4  349.69   86.59
   4  -4   1  442.93   82.90
  -1  -4  -4  626.62  106.59
   1  -4  -4  896.89  133.81
  -4   1   4  487.33   76.96
  -1  -4   4  496.18   63.62
   1   4   4  900.58   79.14
   1  -4   4  662.01   77.26
   4  -4  -1  936.62  108.85
   4  -4   1  859.34  102.26
  -1   4   4 1009.48   92.71
   4  -1   4  447.46   88.65
  -4  -4  -1  797.86   87.22
  -4   1  -4  577.29   96.44
  -4   4  -1  645.65   77.55
  -4  -1  -4  921.86   95.42
  -4  -4   1  694.25   96.96
   1  -4   4  503.48   66.06
   4   4   1  513.82   73.45
  -4   4   1  742.06   86.40
  -1  -4   4  754.12   89.78
   4  -1  -4  683.59  104.11
  -4  -1   4  512.67   74.52
   1  -4   4  635.36   76.49
   4   1  -4  437.80   82.18
   1   4  -4  534.63   86.92
   4   4   1  514.91   88.67
   4   4  -1  468.93   94.63
   4  -1   4  818.84   70.92
   1  -4  -4  652.43  134.87
   4  -4  -1  561.58   91.49
   4  -1  -4  508.77   87.72
  -4   4  -1  648.11   99.97
  -1   4  -4  501.20   93.77
   4   1   4  813.61   96.07
  -4  -1   4  394.04   48.70
  -2   4  -4  536.25  102.76
   4   4   2  683.51   66.14
   2   4   4  801.04   74.09
  -2  -4   4  369.98   54.29
   2  -4  -4  850.20  128.29
   4  -4  -2  802.07  102.23
  -4   2   4  841.21   90.54
   2  -4   4  761.19   91.73
   4  -4   2  697.15   91.38
  -2   4   4  926.43   91.92
  -4   2  -4  360.53   86.07
  -4   4  -2  548.67   82.47
  -2  -4  -4  478.82   75.75
  -4   2  -4  574.93  109.99
  -4   4   2  620.29   69.49
  -4  -2  -4  701.68   74.43
   4  -4   2  385.93   73.89
   2  -4   4  429.28   65.85
   4  -2   4  488.07   87.28
  -4  -4  -2  708.88   70.01
   2   4  -4  467.26   72.98
  -2  -4   4  654.87   85.74
  -4  -2   4  566.20   84.75
   4   2  -4  341.71   80.15
  -4  -4   2  584.38   90.47
   4   4   2  442.77   77.56
   4   4  -2  434.39   95.19
   2   4   4  484.38   49.97
   2   4  -4  392.02   92.86
   2  -4   4  531.56   66.84
   4  -4  -2  486.55   65.55
   4  -2  -4  453.87   84.69
   2  -4  -4  603.63  121.04
   4   2   4  702.68   86.04
   4  -2   4  641.92   61.96
  -4   4  -2  653.95  112.90
   3  -4  -4  327.82   82.12
   4   3   4  371.44   57.89
   4   4   3  390.99   53.58
   3   4   4  292.18   44.59
  -4  -4   3  240.48   53.42
   4  -4   3  218.61   52.85
   4   4  -3  304.92   52.96
   3  -4  -4  593.22   95.17
   4   4  -3  284.75   78.77
  -4  -4   3  323.29   56.70
   4  -4  -3  569.17   86.97
   3  -4   4  401.75   69.11
  -4   3   4  503.91   67.08
  -3   4   4  508.43   69.38
   4  -3   4  212.79   55.22
  -4  -4  -3  500.52   55.36
  -4   4   3  282.84   52.14
   3   4  -4  297.81   55.19
  -3  -4  -4  490.43   61.48
  -4  -3  -4  455.52   56.07
   3  -4   4  212.61   49.05
   3   4  -4  184.63   65.13
  -4   3  -4  247.16   71.65
  -4  -3   4  345.44   63.43
   4   4   3  186.99   41.32
  -4  -4   3  305.78   67.88
   4   3  -4  225.17   68.61
   4  -4  -3  317.67   61.82
  -4   4  -3  331.81   80.87
  -3  -4   4  385.81   64.96
  -3   4  -4  304.07   77.55
   4  -3  -4  276.98   65.95
  -4   4  -4  241.00   68.52
   4   4   4  290.86   48.86
  -4   4   4  351.43   55.81
  -4  -4  -4  293.95   43.25
  -4  -4   4  265.92   53.75
   4  -4   4  179.34   45.33
   4   4  -4  175.35   63.11
   4  -4  -4  233.88   60.40
   0   0   5  390.86   71.41
   0   0  -5  410.27  111.46
   5   0   0  368.82   81.83
   0  -5   0  350.13   78.71
   0   0  -5  443.00   53.11
   0   5   0  343.53   54.67
   0   5   0  404.12   71.34
   5   0   0  355.27   76.58
  -5   0   0  362.04   69.92
  -5   0   0  302.88   46.25
   1   0  -5  236.05   83.72
   0   1  -5  254.39   81.43
   0  -1  -5  266.67   99.03
  -1   0  -5  282.16   97.59
   0   1  -5  220.35   32.33
   5   0  -1  206.90   52.73
   5   1   0  184.32   58.32
   0   1  -5  309.45   50.57
  -5   1   0  220.62   53.24
   5  -1   0  185.26   56.16
  -1  -5   0  259.77   74.82
   0   5   1  274.27   56.12
   0  -5  -1  218.79   66.74
   0  -5   1  160.19   49.83
   1  -5   0  195.78   53.34
   1   5   0  224.59   52.58
  -1   0  -5  231.27   58.27
  -5   0  -1  133.67   32.79
  -1   0   5  191.96   48.72
   0   1   5  279.84   62.47
   0   1  -5  139.09   45.76
   0   5  -1  194.65   37.12
   1   5   0  233.56   37.55
  -5   0  -1  266.34   53.52
   5   1   0  208.98   53.68
   5   0   1  165.83   54.89
  -1  -5   0  253.04   35.32
  -5   0   1  227.22   34.69
   0  -5   1  249.08   32.06
   5   0   1  220.51   63.56
  -5   1   0  190.87   45.18
  -1   5   0  211.58   55.98
   0   5  -1  242.63   61.26
   1   0  -5  261.54   44.22
  -5  -1   0  227.77   57.06
  -5   0   1  197.86   52.62
   5   0  -1  219.36   64.07
   0  -1   5  244.07   53.89
   1  -5   0  259.61   35.80
   0  -1   5  238.06   52.97
   1   0  -5  192.49   48.00
   1   0   5  298.50   64.51
   1   1  -5  149.86   62.37
   5   1  -1  113.30   46.16
   1  -1  -5  111.77   60.63
  -1   1  -5  168.66   69.34
   1  -5  -1  158.74   40.11
  -1  -1  -5  127.44   67.70
   1  -1   5  155.71   41.55
  -1  -1   5  159.34   45.40
  -1  -5  -1  116.67   49.81
  -1  -5   1  131.76   50.00
   1  -5  -1  131.96   47.53
  -1   1  -5  100.68   44.07
   1  -5   1  113.11   39.74
  -1   1  -5  153.29   47.77
   1  -1   5  157.72   43.05
  -1  -1   5  135.61   39.08
   1   1  -5  119.37   41.65
   1   5   1  200.53   50.01
  -1   1   5  114.43   39.29
   1   1   5  157.34   46.34
  -1  -5  -1  181.06   28.52
   5  -1  -1  129.16   48.52
   5  -1   1  150.31   55.68
   5   1   1  130.45   43.96
   5  -1  -1  120.50   41.99
  -1   5   1  152.92   40.26
   1   5  -1  169.70   47.73
   1   1  -5  155.78   34.26
  -1  -5   1  131.79   29.12
   1  -5   1  135.09   16.00
  -1   1  -5  171.72   22.34
   1  -5   1   96.29   31.01
  -5   1   1  124.86   31.61
   5   1   1  109.41   43.96
  -5   1  -1  166.42   41.90
  -5  -1  -1  162.80   44.60
  -5   1   1  107.85   37.25
   5   1  -1  122.37   36.58
  -5   1   1  123.20   25.34
  -1   5  -1  146.18   47.73
  -5  -1   1  128.78   45.54
   2   0  -5  411.98   65.47
   2   0  -5  351.70   99.69
   0   2  -5  275.90   71.75
  -2   0   5  380.19   65.73
   0  -2  -5  455.21  126.63
   2   0  -5  337.07   51.46
  -2   0  -5  265.76   85.26
   0  -5  -2  227.65   60.30
   0   2   5  293.44   57.19
   0  -5  -2  383.05   89.57
  -5   2   0  344.84   65.81
   0  -5   2  343.01   67.12
   2  -5   0  352.01   77.46
   0   5   2  464.87   73.72
  -5   0   2  300.52   40.67
   2   5   0  367.22   66.46
  -2  -5   0  329.88   81.71
   0   2  -5  277.54   67.91
  -5  -2   0  426.01   76.66
   5  -2   0  352.15   76.61
   5   2   0  252.12   51.52
  -5   0  -2  456.90   66.43
   5   0  -2  244.53   61.35
  -5   2   0  296.10   56.17
  -2   5   0  299.50   63.63
   5   0   2  282.63   78.78
   5   0   2  453.50   86.73
   5   0  -2  301.25   72.62
  -5   0   2  313.52   66.93
   0   2  -5  406.40   66.21
   5   2   0  322.48   78.69
  -5   0   2  316.86   52.12
   0  -2   5  331.59   65.70
   2  -5   0  335.02   36.75
   0  -2   5  346.09   63.54
   0   5  -2  277.81   64.31
  -2  -5   0  376.89   52.89
   2   0   5  463.93   76.69
   2  -1  -5  254.26   85.87
  -1   2  -5  212.75   60.94
  -1   2  -5  251.85   62.40
   1  -2  -5  267.87   99.69
  -2   1  -5  314.02   95.50
  -1  -2  -5  231.42   80.16
  -2   5  -1  219.62   55.62
  -2  -1  -5  124.09   53.87
  -1  -2   5  215.03   52.93
  -1   5  -2  217.49   58.13
  -1   2   5  217.05   48.33
  -5   2  -1  224.08   58.42
   1  -5  -2  312.71   75.08
  -2  -1   5  158.92   44.24
   1  -2  -5  382.68   64.51
   5   1  -2  217.98   52.72
   1  -5   2  262.05   58.24
   2  -5   1  243.65   60.46
   1  -2   5  271.04   55.81
  -1   5   2  334.64   61.10
  -2  -5  -1  210.62   67.00
  -1  -5  -2  234.46   71.05
  -2  -5   1  230.89   67.88
  -1  -5   2  192.18   52.41
   2   5  -1  311.21   59.41
   1   5   2  357.73   54.50
   2   5   1  298.76   45.04
   2  -5  -1  298.49   71.60
  -5   1   2  217.09   45.99
   2  -5   1  190.98   44.68
  -1  -2   5  205.03   48.72
  -1  -5  -2  193.40   35.05
   2   1   5  284.45   62.91
   1   2   5  264.29   60.07
  -2   1   5  268.07   63.49
   1   5  -2  265.14   60.49
  -5   1  -2  392.17   66.62
  -2   5   1  279.70   58.41
  -5   2  -1  356.11   62.04
  -5  -1  -2  322.29   53.44
   5  -2  -1  171.80   52.54
   5  -1  -2  185.05   55.88
   5  -2   1  210.90   64.02
  -5  -2  -1  274.98   57.32
   5  -1   2  247.00   74.26
   5   2   1  206.99   54.92
  -2  -5   1  238.39   45.01
   2   1  -5  213.80   45.21
  -5  -1   2  259.39   47.79
   1   2  -5  251.93   58.43
   5  -1  -2  253.97   67.59
  -2  -5  -1  274.49   36.09
   5   1   2  268.10   67.98
   1   2  -5  273.53   64.26
   1  -5   2  171.16   36.17
   5   1  -2  182.44   57.17
   5   2   1  231.31   63.33
   5   2  -1  213.19   65.55
   5   2  -1  182.64   42.00
   5   1   2  256.26   75.50
  -5  -2   1  271.38   63.45
  -5   1   2  182.63   49.01
  -5  -1   2  221.82   58.32
   2   1  -5  244.50   44.93
  -5   2   1  186.82   45.54
   2  -1   5  296.65   52.94
   2  -5  -1  232.64   42.27
   2  -1   5  254.23   57.53
  -5   2   1  247.84   47.23
   1  -5  -2  265.17   63.11
  -5   1   2  170.54   35.47
  -2  -1   5  220.51   46.47
   1   2  -5  225.39   63.01
   2   1  -5  226.31   74.04
   2  -2  -5  351.70  106.28
  -2   2  -5  259.02   67.06
   2   2   5  395.19   72.28
  -2  -2  -5  166.52   58.92
  -2   2   5  335.70   58.99
   2  -5  -2  363.51   83.01
   2  -5   2  301.11   61.31
  -2  -5  -2  284.97   76.75
   2   5   2  432.83   50.46
  -2   5  -2  310.44   71.82
  -2  -5   2  300.48   71.13
  -2   5   2  409.53   64.90
  -2   2  -5  197.67   61.78
  -2  -5  -2  413.44   46.25
   2   5  -2  298.96   61.68
   5  -2  -2  221.76   60.43
  -5   2  -2  467.40   79.40
   2  -5   2  259.17   49.27
  -5  -2  -2  415.92   60.75
  -5  -2   2  236.35   46.05
  -5   2  -2  215.84   60.84
  -5   2   2  198.51   46.73
   5   2   2  289.04   66.00
  -5  -2   2  307.02   69.73
   2   2  -5  278.76   64.42
  -2  -5   2  262.02   50.77
   2   2  -5  309.37   55.45
   5   2   2  316.52   76.79
   2  -2   5  397.57   62.92
   5   2  -2  201.65   64.56
  -2  -2   5  317.65   63.39
   5  -2   2  262.70   75.45
  -2  -2   5  234.23   47.15
   2  -5  -2  294.51   59.89
   2   2  -5  270.45   65.89
   0  -3   5  213.47   53.77
   0  -3  -5  189.57   83.00
   0   5  -3  186.22   54.16
   0  -5  -3  168.64   57.60
   0  -3  -5  331.54   78.91
  -5   0   3  172.09   39.35
   0   3   5  295.99   51.16
  -3   0   5  160.44   42.74
   0  -3   5  216.96   39.01
   0  -5  -3  241.77   71.06
   0   5   3  334.85   55.11
   3   5   0  230.02   33.93
   0  -5   3  148.75   42.47
   3  -5   0  278.35   63.08
   3   0   5  244.08   55.09
   5   3   0  214.65   63.93
  -3   0   5  141.77   39.00
  -5   0  -3  298.21   53.05
   3  -5   0  152.37   48.25
   5  -3   0  105.65   40.59
  -5   3   0  228.94   47.62
   5   3   0  141.04   34.71
  -3  -5   0  220.67   44.44
   3   5   0  132.74   50.41
  -5   3   0  188.64   47.26
  -3   0  -5  144.90   49.04
   0   3  -5  160.29   52.18
   3   0  -5  177.17   46.46
   5   0  -3  166.59   51.91
  -5  -3   0  226.78   54.53
  -5   0   3  135.91   44.33
   5   0   3  189.76   64.65
   3   0   5  191.61   41.34
  -3   5   0  196.80   50.14
   0   3  -5  144.13   40.19
   3   0  -5  189.00   63.19
   3  -1  -5  157.70   62.03
  -3  -5  -1  201.14   35.60
   1  -3   5  217.94   51.05
   1  -3  -5  149.64   77.37
   1  -5  -3  164.63   58.02
  -1  -3   5  164.51   47.46
  -5  -1   3  173.82   44.00
  -1  -3  -5   79.18   45.98
  -3   1  -5  105.16   49.25
  -5   3  -1  149.40   49.61
  -3  -1   5  114.76   36.19
  -1   3  -5  160.68   53.86
  -1   3   5  284.41   49.87
  -3   5  -1  191.90   52.28
  -5   1   3  149.98   36.12
   3   5   1  203.97   29.92
  -1   5  -3  152.67   49.69
   1   5   3  278.51   43.17
  -3  -5   1  115.27   47.76
  -1  -5  -3  169.24   57.34
   1  -5  -3  163.34   57.13
  -1  -5   3  133.86   40.58
   1  -5   3  153.98   41.01
   3  -5  -1  186.84   53.14
   3  -5   1  241.45   58.15
   3   1   5  230.56   55.33
  -3  -1   5  109.48   30.41
   1   3  -5  150.59   48.06
   3   5  -1  150.72   41.38
  -5   1  -3  254.14   54.17
   5   3  -1  176.71   36.41
  -3   1   5  142.90   46.15
   1   3   5  172.52   39.22
  -5  -1  -3  234.47   45.12
  -5   3  -1  230.58   54.38
  -5   3   1  120.25   34.72
  -1   5   3  203.53   43.28
   5  -1  -3  168.92   56.67
   5  -3  -1  136.55   46.53
   3  -5   1  146.51   41.70
   1  -5   3  115.37   28.75
   5  -3   1  127.87   49.48
   5   3   1  138.55   39.97
   5  -1   3  122.11   51.55
   5   1   3  145.69   56.33
  -3  -1  -5   77.37   27.65
  -5   3   1  186.05   40.71
   5   1   3  199.38   54.22
  -3   5   1  157.26   41.36
   5   1  -3  148.61   50.91
   3   1  -5  131.62   41.05
  -5  -3  -1  198.06   48.02
   5   3   1  148.05   49.67
   5   3  -1  111.70   48.85
  -5  -3   1  169.77   49.15
   1   3  -5  165.42   55.41
  -3  -5   1  154.41   39.37
   3   5  -1  130.77   51.44
   3   5   1  109.75   40.32
   3  -1   5  185.72   39.16
   1   5  -3  130.24   42.27
   3  -5  -1  184.41   34.83
  -5   1   3  124.42   40.24
  -5  -1   3  121.38   40.67
   1   3  -5  177.87   47.01
   3   1  -5  179.92   59.89
  -1   3  -5  152.00   40.96
   3  -5  -2  164.79   40.50
   3  -2  -5  177.75   67.79
   2  -3  -5  237.12   90.23
   2   3  -5  178.89   45.48
   2  -5  -3  166.83   54.67
  -2  -3   5  216.17   53.12
  -3   2  -5  217.62   67.27
  -3  -2   5  185.14   46.73
  -2  -3  -5   96.27   45.04
  -5   2  -3  163.70   55.45
  -3   2   5  302.22   56.63
   3   5   2  147.33   38.79
  -2   3   5  326.87   53.43
   3   5   2  249.03   34.62
   2   5   3  279.35   39.94
   2  -5   3  195.02   44.62
   3  -5   2  242.60   54.83
  -3  -5   2  136.08   45.99
  -2  -5   3  153.19   44.39
  -5   2   3  365.83   64.85
   2  -5  -3  261.60   69.90
   3  -5  -2  236.01   60.30
  -3   5   2  234.26   47.50
  -2   3  -5  135.35   49.91
  -3  -2   5  122.26   30.26
  -3   5  -2  172.77   55.26
  -2   5  -3  167.41   54.90
  -2  -5  -3  234.61   45.68
  -5   3  -2  203.35   60.78
   3   2   5  228.94   54.47
   2   3   5  181.60   39.41
  -5  -2  -3  282.14   47.92
   5   2   3  144.18   53.80
  -3  -5  -2  249.63   36.99
   3   5  -2  182.69   44.57
  -2   5   3  198.99   44.77
   5  -3  -2  175.83   53.76
   5  -3   2  111.41   46.59
   5  -2   3  116.31   46.23
   5   3   2  174.15   53.19
   2  -3   5  153.51   41.35
   3  -2   5  163.90   49.17
  -5  -2   3  212.34   45.95
   2  -3   5  231.31   46.55
   2   5  -3  175.51   47.30
   3  -2   5  269.51   48.50
   3  -5   2  173.46   42.42
  -3  -2  -5  176.48   43.36
  -5  -3  -2  269.67   46.86
  -5   2  -3  234.59   58.81
  -5   3  -2  214.80   55.54
   5   2   3  210.13   52.55
   2  -5   3  154.78   37.66
   5   2  -3  122.88   48.79
   5   3   2  186.83   53.87
   3   2  -5  144.08   50.65
   5   3  -2  201.78   65.66
   2   3  -5  130.56   50.48
  -5   3   2  134.26   35.28
   3   5  -2  160.46   61.78
  -3   2  -5  150.24   56.99
  -5  -3   2  187.00   54.14
  -3  -5   2  161.66   43.20
  -5   2   3  124.97   38.19
  -5  -2   3  181.69   51.74
   5   2   3  243.32   45.07
   3  -5  -3  130.27   43.13
   3  -3  -5  142.01   59.53
  -3  -3   5  163.05   44.79
  -5   3  -3  215.87   61.90
   3   5   3  204.63   33.11
   3   3  -5  141.33   54.01
  -3   3   5  287.51   49.52
  -3  -5   3  108.27   38.09
   3  -5  -3  258.04   68.08
   3  -5   3  160.24   41.46
  -3   5   3  165.38   37.91
  -3  -5  -3  184.93   32.04
   3   3   5  191.75   45.43
  -5  -3  -3  260.33   43.64
  -5   3   3  118.80   33.01
  -3   5  -3  132.91   50.64
  -3   5   3  130.28   33.84
   3   5  -3  153.70   41.40
   3  -5   3  106.35   33.42
   5  -3   3  127.92   44.27
   3  -3   5  113.60   37.31
  -3   3  -5  107.59   47.30
  -5   3  -3  102.96   45.70
   3   5   3  139.05   31.80
  -3  -3  -5  183.83   43.23
   5   3   3  120.69   35.57
   5   3  -3  128.79   52.84
   3   5  -3   79.61   42.22
   3  -3   5  200.56   37.43
  -5   3   3   79.65   27.50
  -5  -3   3  131.29   45.35
   5   3   3  193.20   58.79
   5   3   3  197.39   38.41
   5  -3  -3  154.53   40.07
  -5  -3   3  151.73   38.03
  -4   0   5  170.12   38.86
  -4   5   0  241.30   54.97
   0  -4  -5  229.58   86.67
   0  -5  -4  194.28   69.08
  -4  -5   0  254.37   50.93
  -5   0   4  160.27   38.55
   0   5  -4  189.77   56.11
  -4   0   5  131.14   36.70
   0   4   5  367.16   51.50
   0  -5   4  194.22   41.98
   4  -5   0  299.67   60.98
   0  -4   5  235.48   40.88
   0   5   4  363.77   50.62
   5  -4   0  343.30   66.72
   0  -4  -5  331.63   84.46
   0  -5  -4  355.31   86.73
  -5   4   0  217.90   50.36
   0  -5   4  256.71   48.46
  -5   0  -4  363.67   61.00
   0   4  -5  188.97   53.97
   4  -5   0  195.36   52.53
   5  -4   0  215.24   56.80
  -5  -4   0  303.86   62.19
   5   0   4  223.37   65.14
   0  -4   5  267.09   53.30
  -4   0  -5  159.04   46.25
   4   0  -5  207.39   52.94
   5   0  -4  220.19   58.35
   5   4   0  196.79   58.46
   4   5   0  185.79   53.71
   4   0   5  310.72   60.96
   4   0   5  289.40   44.39
   4   0  -5  244.41   64.07
   1  -4  -5  200.85   79.86
   1  -5  -4  211.68   74.90
  -5  -1   4  141.72   38.72
  -1  -4  -5  132.30   56.32
  -1  -5  -4   91.30   43.92
  -4  -1   5  156.03   39.50
   1   4   5  306.91   46.56
   1   4  -5  189.42   53.84
  -1   4   5  349.31   51.78
   5   4   1  222.02   58.71
   1   5   4  325.24   44.94
   1  -5   4  188.98   40.18
   4  -5   1  304.81   61.03
   1  -4   5  185.35   39.64
   5  -4  -1  310.37   62.79
  -1  -4  -5  213.05   60.54
  -1   5   4  319.00   50.75
  -1  -5  -4  218.01   65.55
  -4   5  -1  238.58   57.91
   1  -5  -4  320.35   86.31
   1  -4  -5  330.82   83.30
   5  -4   1  169.62   52.02
  -1  -5   4  138.07   35.72
  -1   5  -4  110.73   44.54
   4  -5  -1  244.74   54.77
  -5  -1  -4  329.49   52.01
  -4   1   5  170.60   49.58
  -5   1   4  177.91   43.47
  -1   4  -5  162.21   51.72
  -4   5   1  239.06   49.86
   5  -4  -1  181.55   53.07
   4  -5   1  147.67   42.97
  -4  -5  -1  248.44   43.92
  -5  -4  -1  306.00   55.35
   5  -1   4  128.57   47.61
   1  -4   5  157.69   38.25
   5   1   4  224.78   70.10
   4  -1   5  158.67   50.20
  -5   4  -1  219.99   56.43
  -5   4   1  246.11   48.77
  -5  -4   1  234.77   56.45
  -4  -5   1  211.53   49.21
  -1  -4   5  249.45   52.19
  -4   1  -5  173.21   53.54
   5  -1  -4  226.23   60.13
  -4  -1  -5  245.21   52.11
  -5   1  -4  261.54   60.23
   5   1  -4  120.71   42.74
   4   1  -5  147.63   45.92
   5   4  -1  193.15   59.77
   4   5   1  161.33   47.19
   4   5  -1  225.75   64.76
   1   4  -5  108.98   45.44
   1  -4   5  222.16   44.92
   4   1   5  247.38   53.86
   1   5  -4  224.77   56.77
  -1  -5   4  193.48   43.25
   4  -1  -5  228.24   63.55
   2  -4  -5  209.10   82.70
   2  -5  -4  257.89   76.35
  -5  -2   4  191.33   45.41
   2  -4   5  132.93   37.02
  -4  -2   5  146.61   40.31
  -4   2  -5  124.22   46.57
  -2  -4  -5  101.63   46.59
   2   4   5  273.01   42.17
   5  -2   4  178.82   54.27
   2   5   4  330.72   44.28
  -4   2   5  287.09   54.47
  -2   4   5  372.88   54.54
   4  -5  -2  280.81   60.72
  -5   2   4  340.27   55.33
   2  -5   4  235.53   46.03
   4  -5   2  289.27   57.67
  -5   2  -4  111.18   43.59
   5  -4  -2  338.58   66.11
  -2  -5  -4  198.64   60.62
  -4  -5   2  127.01   46.13
   2  -4   5  207.47   40.74
  -2   5   4  299.32   51.68
  -2  -5   4  127.67   34.41
   2  -5  -4  372.67   88.50
  -4   5   2  219.89   43.54
  -4  -2  -5  269.58   48.73
  -4   5  -2  186.64   56.98
   2   5  -4  223.95   52.43
   2  -5   4  177.59   39.03
  -2   5  -4  185.61   57.64
  -4  -5  -2  287.14   41.42
  -5  -4  -2  292.48   46.61
   4  -5   2  138.16   38.90
   5  -4   2  127.90   43.46
  -5  -2  -4  322.47   48.70
   5   4   2  211.83   55.24
   4  -2   5  178.74   51.60
   5   2   4  243.17   68.67
  -2  -4   5  258.27   53.54
  -2  -5  -4  175.79   42.79
  -5   2  -4  233.13   64.50
   5   2  -4  174.72   55.43
   4   2  -5  161.85   50.89
   5   4   2  173.49   48.37
   5   4  -2  209.94   66.57
  -5   4  -2  234.09   65.76
   4   5   2  119.72   34.83
   4   5  -2  161.58   58.89
   2   4  -5  125.04   49.15
   2   5  -4  149.67   58.43
  -2   4  -5  157.23   52.73
  -5  -4   2  228.52   56.69
  -4  -5   2  212.33   51.92
   4  -5  -2  221.49   42.09
   2   4  -5  195.18   49.54
   5   2   4  252.94   48.49
   4   2   5  292.23   56.03
   5  -2  -4  192.27   48.92
  -2  -5   4  204.97   45.06
   4  -2  -5  165.23   55.15
  -5  -3   4  165.52   40.73
  -3  -4   5  132.79   39.02
   3  -4  -5  187.53   71.27
  -5   4  -3  113.79   46.47
   3  -5  -4  126.80   50.89
  -4  -3   5  151.59   40.91
  -3   4  -5  122.62   48.05
   3   5   4  185.34   31.69
  -4   3   5  252.81   46.01
  -5  -3  -4  199.37   36.70
  -3   4   5  262.59   45.71
   3  -5   4  209.84   44.64
   4  -5   3  243.52   53.12
  -5   3   4  212.54   41.40
  -4  -5   3  109.98   37.95
   3  -5  -4  205.37   60.90
   4  -5  -3  249.69   59.92
  -4  -3  -5  229.13   41.87
  -3  -5  -4  235.95   41.11
   4   3   5  184.33   43.19
   4   5  -3  141.44   37.47
   3   4   5  140.64   31.06
  -4  -5  -3  244.73   36.58
  -5  -4  -3  189.75   34.56
  -3   5   4  200.61   44.78
   4  -5   3   95.97   33.29
   5  -4   3   98.67   34.96
  -4   5  -3  163.00   55.88
   3  -5   4  115.44   33.18
   5  -3   4  109.06   39.11
   3  -4   5  101.50   33.58
  -3   5  -4  147.84   53.00
   3   5  -4  126.49   37.44
   4  -3   5  128.83   40.27
   5   4   3  140.81   48.04
  -5   4  -3  124.67   43.70
  -5   3  -4  159.82   57.96
  -3  -4  -5  240.64   48.38
  -5   4   3   97.79   27.10
   3  -4   5  162.41   33.14
   5   4   3  142.69   35.62
   5   3  -4  179.23   60.48
   4   3  -5  137.31   54.78
   5   4  -3  141.12   54.69
   4   5   3  118.96   29.97
   3   4  -5  135.16   54.71
  -4   3  -5   88.47   42.03
   4   5  -3  143.54   57.67
   3   5  -4  103.26   47.12
   5  -4  -3  160.18   39.46
  -5   3  -4  129.36   51.30
  -5  -4   3  136.17   43.90
  -4  -5   3   89.79   34.39
  -5   3   4   66.24   24.39
   5   3   4  200.77   40.07
  -3  -5   4  170.41   41.73
   5  -3  -4  161.22   44.10
   4  -5  -3  121.36   35.52
   4  -3  -5  122.06   46.84
   4  -5  -4  123.78   42.18
   4  -4  -5  103.27   42.02
  -4  -4   5  132.42   35.70
  -4   4   5  158.38   35.12
  -4  -5  -4  165.87   30.75
   4   4   5  132.41   32.29
  -5  -4  -4  144.43   30.20
  -5   4   4  145.00   33.68
  -4   5   4  157.11   38.86
   4  -5   4   62.29   25.38
   5  -4   4   76.13   31.22
   4  -4   5   84.48   29.87
  -4  -4  -5  164.65   33.62
   5   4  -4  118.84   50.52
   4   4  -5  129.79   52.72
   4   5  -4  101.89   48.33
  -5  -4   4   88.20   34.78
   5  -4  -4  129.52   38.52
  -5  -4   4  125.45   34.56
   0  -5  -5   59.00   42.34
  -5   5   0  119.34   39.13
  -5   0   5   56.16   21.34
   0   5   5  171.29   33.04
   0   5  -5  119.98   44.00
   0  -5  -5  186.48   64.55
   5  -5   0  163.31   45.17
   5  -5   0   99.24   37.43
   5   0   5   82.29   37.82
  -5   0  -5  197.82   47.78
   5   0  -5  105.32   37.91
  -5  -5   0  144.78   39.15
   5   5   0  105.88   41.64
   0  -5   5  121.24   33.70
  -1  -5   5  141.59   36.44
   1  -5  -5  134.33   68.65
  -1  -5  -5   55.39   35.80
  -5  -1   5   79.40   27.65
   1   5   5  187.93   34.28
  -5   1   5   66.31   24.76
  -1   5   5  185.11   35.90
  -1  -5  -5  135.26   51.50
  -5   5  -1  141.12   45.26
   1  -5   5  109.75   28.25
   5  -5  -1  180.96   46.47
   5  -5   1  179.21   46.29
  -1   5  -5  113.77   44.42
   5  -5  -1   97.81   37.79
   5  -5   1   98.78   34.63
   5  -1   5   94.29   39.21
   5   1   5   92.48   40.31
  -5   1  -5   93.55   35.77
  -5  -1  -5  182.06   40.41
   5   1  -5   88.45   36.71
  -5  -5  -1  142.07   34.22
   5   5   1  109.20   39.15
   5   5  -1  129.10   48.37
  -5  -5   1  102.60   32.69
   1   5  -5   88.75   40.12
   5  -1  -5  120.26   41.44
   1  -5   5  122.57   31.80
   1   5  -5  108.89   40.28
   2  -5  -5   98.89   52.23
  -5  -2   5   93.58   31.35
  -2  -5  -5   91.33   44.80
   2   5   5  154.70   29.65
  -2   5   5  191.54   38.50
  -2  -5  -5  122.53   47.10
   5  -5  -2  210.59   52.43
   2  -5   5  124.65   31.87
   5   2   5  100.60   29.95
  -5  -2  -5  150.59   34.08
  -5   2   5  141.72   37.17
  -5   5  -2  105.07   42.42
   5  -5   2   84.37   30.82
  -2   5  -5   83.82   37.93
   5  -2   5  107.88   40.27
  -5   2  -5  119.16   45.94
  -5  -5  -2  139.50   29.55
   5   2  -5   68.60   32.88
   5   5   2   83.16   29.82
   5   5  -2   73.13   37.37
   2   5  -5  117.01   38.12
   2   5  -5   46.70   28.84
  -5  -5   2  116.13   39.42
   5  -2  -5  109.41   39.89
  -5   2  -5   65.47   32.22
  -2  -5   5  135.47   37.32
   3  -5  -5   99.39   48.75
  -5  -3   5   81.49   28.85
  -5   3   5  152.88   33.57
   5  -5  -3  201.56   53.46
   5   3   5  109.11   30.17
   3   5   5  103.90   23.36
  -5   5   3   49.24   18.64
   5  -5   3   56.92   23.75
  -3  -5  -5  138.82   34.18
  -5  -5  -3  120.69   26.20
   5   3  -5   74.32   37.44
   3   5  -5   76.04   38.63
  -5  -5   3   95.83   36.51
   4  -5   5   43.06   20.69
  -4  -5  -5   99.76   25.03
   5  -5  -4   60.36   25.38
   0   0   6  870.38  108.32
   0  -6   0  702.12  110.88
   0   6   0  762.48   99.55
   6   0   0  578.82   90.98
  -6   0   0  771.05  100.08
   6   0   0  665.61  107.30
   0   0  -6  986.00  195.28
   0  -6   0  838.31   75.68
  -1   0   6  641.50   92.38
   0   1   6  589.16   89.10
  -1  -6   0  619.47  112.18
   0  -6  -1  604.37  108.09
   0  -6   1  518.60   90.62
   1  -6   0  551.21   93.47
   0   1  -6  495.02   92.64
   0   6   1  724.21   92.32
   1   0  -6  633.85   97.11
   1   6   0  735.91   93.42
  -6   1   0  445.41   68.76
  -1   6   0  678.20   97.18
   0   6  -1  607.55   93.76
   6   0  -1  482.69   78.61
   6  -1   0  466.28   87.11
   6   1   0  501.90   79.24
   6   0   1  490.42   92.71
  -6   0  -1  707.03   84.97
  -6   1   0  533.38   79.15
  -6  -1   0  740.53   99.04
  -6   0   1  578.56   87.78
   6   0   1  741.40  112.47
   6   0  -1  584.89   99.48
   6   1   0  519.90   96.62
   1   0  -6  710.01  155.11
   0   1  -6  588.46  131.79
   0  -1   6  666.35   87.57
   0  -1  -6  872.62  191.88
  -1   0  -6  785.37  175.36
   0  -1   6  689.17   88.36
   0  -6  -1  541.65   74.84
   1   0   6  770.00  100.91
   1   1   6  579.45   85.89
   1  -1  -6  682.52  167.81
  -1   1   6  545.79   87.09
  -1  -1  -6  469.51  130.31
   1   1  -6  482.52   87.61
  -1  -6  -1  574.36  112.55
  -1  -6   1  457.85   90.20
   1  -6  -1  501.29   91.50
   1  -6   1  438.37   79.27
   1   6   1  596.24   83.82
  -1   1  -6  437.13   96.27
  -1   6   1  584.54   81.39
   1   6  -1  596.93   87.84
  -6   1  -1  294.97   62.57
   6  -1  -1  351.88   71.55
   6   1  -1  412.75   66.80
   6  -1   1  430.56   90.58
   6   1   1  419.06   79.44
  -1   6  -1  484.15   82.51
  -6   1  -1  584.76   74.52
  -6  -1  -1  613.51   80.92
  -6   1   1  374.68   68.46
  -6  -1   1  538.62   87.11
   6   1   1  465.29   90.25
   6   1  -1  451.20   91.37
   1   1  -6  546.66  126.29
   1  -1   6  531.92   75.54
  -1  -1   6  450.67   73.05
  -1   1  -6  635.35  139.27
   1  -1   6  536.67   80.85
   1  -6  -1  529.92   64.94
  -1  -1   6  445.13   69.24
  -2   0   6  485.93   75.14
   0  -2  -6  565.15  151.43
  -2   0  -6  489.30  131.15
   0   2   6  394.83   63.88
   0   2  -6  495.37   94.79
  -6   2   0  501.95   76.46
  -2  -6   0  466.78   98.67
   0  -6  -2  592.17  107.39
   0  -6   2  440.98   79.35
   2  -6   0  450.73   83.05
   0   6   2  677.07   86.70
   2   6   0  550.80   79.16
   6   0  -2  384.12   72.85
   6  -2   0  443.37   85.05
   6   2   0  387.81   63.70
  -2   6   0  585.91   88.04
   6   0   2  473.13   98.73
  -6   0  -2  723.33   80.79
   0   6  -2  484.83   84.10
  -6   2   0  416.01   63.52
  -6  -2   0  660.12   93.93
   6   0  -2  513.54   92.11
  -6   0   2  459.80   80.73
   6   2   0  405.08   86.77
   0  -2   6  527.55   77.86
   2   0  -6  597.00  130.19
   0   2  -6  407.21   88.87
   0  -2   6  486.26   73.96
   2   0   6  680.05   91.39
   0  -6  -2  473.51   84.89
   2   0   6  647.97   81.67
  -2   0   6  443.55   75.76
   2   1   6  509.99   83.19
   2  -1  -6  484.32  129.69
   1  -2  -6  636.15  171.92
  -2   1  -6  427.09  121.80
   1   2   6  490.64   78.51
  -1  -2  -6  343.48  102.75
  -2   1   6  415.57   76.91
  -2  -1  -6  333.18   97.91
  -1   2   6  370.30   60.28
  -2  -6  -1  387.10   92.28
  -1  -6  -2  460.77  100.97
  -2  -6   1  444.08   95.10
  -1  -6   2  377.40   76.77
   1  -6  -2  386.10   83.89
  -1   2  -6  357.59   83.34
   2  -6  -1  415.75   83.41
   1  -6   2  424.26   75.50
   2  -6   1  429.32   77.16
  -6   2  -1  332.33   67.92
  -1   6   2  523.74   76.53
   2   6  -1  499.59   76.41
   1   6   2  538.34   63.90
   2   6   1  494.40   56.48
  -2   6   1  544.88   77.26
   2  -6   1  370.75   61.41
   1   6  -2  444.47   76.58
   6   1  -2  382.14   69.40
   6  -1  -2  358.46   73.37
   6  -2  -1  310.77   68.55
   6   2  -1  347.39   58.07
   6  -2   1  325.15   79.70
   6   2   1  333.69   66.17
  -6   1  -2  728.51   83.65
   6   1   2  404.47   87.52
  -6   2  -1  542.27   71.48
  -6  -1  -2  575.88   71.63
  -2   1  -6  303.87   81.50
  -6  -2  -1  567.19   78.50
   6  -1   2  290.95   77.77
  -6   2   1  350.01   61.63
  -2   6  -1  470.59   81.07
  -1   6  -2  466.04   82.98
   6  -1  -2  519.20   92.16
  -2  -6   1  467.48   57.39
  -6  -2   1  481.65   82.90
   6   1   2  469.44   87.55
  -6   1   2  326.97   64.37
   6   1  -2  333.41   77.93
   6   2   1  408.68   81.72
  -6  -1   2  378.54   75.89
   6   2  -1  323.74   79.99
   1  -2   6  516.36   74.50
  -1  -2   6  362.03   67.22
   1   2  -6  425.93   89.88
   2   1  -6  474.63  109.77
   2  -1   6  488.62   68.24
  -1   2  -6  436.22   94.81
  -2  -1   6  322.11   62.07
  -1  -2   6  366.58   61.65
   2  -1   6  467.30   75.33
   1  -6  -2  433.36   73.69
  -2  -1   6  370.39   59.97
   1   2  -6  477.48   87.76
   2  -2  -6  450.45  135.28
   2   2   6  412.97   71.59
  -2  -2  -6  196.68   66.61
  -2   2   6  399.86   62.92
  -2  -6  -2  386.70   90.94
  -2  -6   2  344.37   75.61
   2  -6  -2  394.10   85.81
   2  -6   2  381.19   68.24
  -2   2  -6  320.78   82.31
  -2   6   2  497.53   72.95
   2   6   2  466.37   51.12
  -6   2  -2  253.76   64.11
   2   6  -2  379.22   68.34
   6  -2  -2  387.63   76.35
   2  -6   2  319.64   51.74
  -6   2  -2  642.79   82.97
  -6  -2  -2  527.01   67.44
   6  -2   2  249.97   71.53
   6   2   2  290.30   70.80
  -6   2   2  244.56   52.00
   6   2   2  329.90   71.01
  -2   6  -2  329.29   71.42
  -6  -2   2  305.88   68.45
   2   2  -6  353.21   60.22
  -2  -6   2  394.76   56.28
   6   2  -2  306.14   76.55
   2  -2   6  418.42   64.04
  -2  -2   6  278.94   57.23
   2   2  -6  324.87   74.27
  -2  -2   6  285.51   51.21
   2  -6  -2  365.84   60.25
  -3   0   6  259.31   52.90
   0  -3  -6  340.97  115.40
   0  -6  -3  244.08   67.44
  -3   0  -6  195.02   67.63
   0   3   6  370.09   54.84
  -3   0   6  169.00   45.43
   0  -6   3  247.13   54.95
   3  -6   0  368.02   71.39
  -3  -6   0  267.39   72.46
   0  -6  -3  309.83   79.08
   0   6   3  511.84   66.31
  -6   0  -3  486.47   64.24
  -6   3   0  324.23   52.90
   6  -3   0  256.04   62.55
  -3   6   0  371.39   69.20
  -3  -6   0  375.10   51.83
   6   0   3  366.58   84.93
  -6  -3   0  445.75   76.11
   6   0  -3  281.94   67.37
   6   3   0  377.06   81.73
   0   3  -6  297.58   70.24
   0  -3   6  394.98   70.98
   3   6   0  196.39   58.88
  -6   0   3  214.76   54.43
   0   6  -3  240.99   60.84
   3   0   6  371.61   67.32
  -6   3   0  256.26   53.88
   3   0   6  323.43   54.13
   3   0  -6  337.78   89.25
   3  -1  -6  259.60   83.30
  -1   6  -3  264.83   65.58
   1  -3  -6  449.42  144.29
   1  -6  -3  318.24   76.80
  -3   1  -6  150.14   54.39
  -1  -3   6  252.31   57.05
  -6   3  -1  223.23   56.66
  -3   1  -6  234.31   81.59
  -1  -3  -6  171.32   70.83
   1   3   6  274.93   48.13
  -3  -1  -6  121.13   45.58
  -1  -6  -3  172.53   54.14
  -1   3  -6  224.62   64.23
  -1   3   6  381.23   55.38
   1  -6   3  222.18   49.96
   3   6  -1  303.05   57.49
  -3  -6  -1  278.65   75.58
   1   6   3  367.71   47.94
  -3  -6   1  194.51   61.04
  -1  -6  -3  275.70   78.13
   1  -6  -3  284.29   74.24
  -1  -6   3  223.10   52.78
  -1   6   3  332.87   54.66
   3  -6  -1  303.88   68.17
   3  -6   1  258.80   56.58
  -3   6   1  318.40   59.18
   3  -6   1  217.81   48.70
  -6   1  -3  430.05   65.28
  -3   1   6  237.09   56.75
  -6  -1  -3  416.70   57.94
  -6   3  -1  307.89   58.47
   1   6  -3  233.26   57.17
   6   3   1  227.22   50.19
   6  -3  -1  202.13   55.59
  -6  -3  -1  370.96   62.35
   6  -3   1  209.04   60.20
  -6   3   1  201.41   41.47
   6  -1   3  241.31   71.80
   6   1   3  332.61   80.89
  -3  -6   1  286.51   48.89
   6   1   3  348.37   68.97
  -6  -3   1  315.07   66.04
   3   1  -6  293.45   56.53
   6   3   1  280.52   66.84
   1  -3   6  354.72   62.92
   3   6   1  234.74   52.75
   6   1  -3  198.75   59.21
   6   3  -1  269.37   70.87
   3  -1   6  323.73   52.06
   3   6  -1  205.34   63.48
   1   3  -6  319.24   70.90
   1   3  -6  244.04   55.73
  -6   1   3  207.13   51.52
  -6  -1   3  199.79   53.98
  -3  -1   6  207.69   48.62
   3   1   6  361.23   66.23
  -3  -1   6  215.53   42.70
  -3   6  -1  230.11   57.11
   3   1  -6  246.92   70.97
   3   2   6  294.68   61.67
   3  -2  -6  262.04   85.21
   2  -3  -6  345.60  121.23
   2   3   6  196.49   42.42
  -2  -3   6  224.07   51.02
  -2  -3  -6  114.55   48.32
  -3  -2   6  174.77   43.85
  -3  -2  -6  114.69   42.00
  -3   2   6  245.59   49.97
  -2   3   6  381.73   56.82
  -3   6  -2  242.50   62.54
  -2   6  -3  283.64   69.33
   3   6   2  311.40   36.11
   2  -6   3  232.99   48.58
   3  -6   2  262.80   53.37
   2   6   3  309.78   40.03
   3   6  -2  292.85   57.92
  -3  -6  -2  239.50   69.67
  -2  -6  -3  186.75   61.80
  -3  -6   2  211.01   60.29
  -2   3  -6  186.66   61.32
  -3   6   2  302.88   53.71
  -2  -6   3  191.04   49.72
   2  -6  -3  360.63   86.18
  -6   3  -2  229.18   62.21
   3  -6  -2  258.64   66.40
  -3   2  -6  215.85   65.46
  -6   2  -3  375.46   69.60
  -6   3  -2  273.33   59.37
   3  -6   2  177.38   40.54
  -6  -2  -3  324.72   51.10
   6   2   3  330.52   79.55
  -2   6   3  215.93   44.74
  -6  -3  -2  319.19   51.25
   6  -3  -2  192.93   56.40
   6  -3   2  205.33   64.06
   6  -2   3  161.69   57.44
   6   3   2  218.90   56.30
   2  -3   6  162.91   43.66
   3  -2   6  194.27   52.47
   6   2   3  221.43   52.10
   2   6  -3  191.80   47.25
  -3  -6   2  248.17   48.85
   2  -3   6  272.76   49.18
  -6   2  -3  121.25   42.40
   3   6   2  184.84   39.59
   3  -2   6  304.11   51.23
   6   2  -3  149.57   52.68
   6   3   2  259.26   62.03
   3   2  -6  193.07   47.28
   6   3  -2  266.19   73.32
   2   3  -6  270.00   62.72
  -6   3   2  132.62   35.65
   3   6  -2  170.20   61.90
  -6  -3   2  255.19   60.78
  -6   2   3  154.61   41.76
  -6  -2   3  211.85   56.15
   2  -6  -3  263.83   62.59
   3  -3  -6  210.31   85.81
  -3  -3   6  162.57   42.48
  -3  -3  -6  156.10   47.98
  -3   3   6  271.36   49.00
   3   6   3  207.07   31.29
   3  -6   3  234.14   48.40
  -3  -6  -3  152.70   55.33
  -3   6  -3  185.30   58.19
  -3  -6   3  125.34   41.29
   3  -6  -3  231.90   66.21
   3   3   6  129.10   33.82
  -6  -3  -3  234.49   42.45
  -6   3   3  159.80   36.17
   3   6  -3  162.27   42.85
  -3   6   3  131.94   34.36
  -3   3  -6  149.70   56.08
  -6   3  -3  119.79   47.61
   6  -3   3   92.61   38.07
   6   3   3  173.29   56.11
   3  -3   6  115.73   36.29
   3  -3   6  188.64   36.78
   3   6   3  163.07   33.05
  -6   3  -3  207.60   56.88
   6   3  -3  138.84   53.12
   3   3  -6  163.36   51.83
   3   6  -3  116.20   52.60
  -6  -3   3  147.84   46.62
  -3  -6   3   94.92   28.96
   0  -4  -6  190.23   83.89
   0  -6  -4  230.53   72.48
  -4   0  -6  137.52   46.61
   0   4   6  321.88   47.54
  -4   0   6  120.68   35.00
   4  -6   0  285.90   59.91
   0   6   4  342.27   48.07
  -4  -6   0  150.10   53.82
   0  -6  -4  207.34   65.14
   0  -6   4  162.63   40.08
  -6   0  -4  305.76   51.62
   0   4  -6  216.92   58.63
   4  -6   0  163.18   44.26
   6  -4   0  182.32   52.07
  -4  -6   0  289.48   48.10
  -6  -4   0  300.69   59.53
   6   0   4  223.68   65.97
   0  -4   6  280.39   53.52
   6   0  -4  240.10   59.40
   6   4   0  242.77   63.86
   4   6   0  143.86   47.84
  -4   6   0  228.42   53.25
  -6   0   4  129.17   41.55
   4   0   6  285.04   58.91
   0   6  -4  225.22   59.40
   4   0  -6  249.62   67.09
  -1  -4   6  204.88   46.95
   1  -4  -6  341.31  123.23
   1  -6  -4  191.95   66.07
  -4   6  -1  197.45   52.69
  -1  -4  -6  101.32   50.97
  -1  -6  -4  114.34   45.75
   1   4   6  272.30   42.23
  -4  -1  -6  165.75   46.49
  -4  -1   6  124.16   34.31
  -1   6  -4  213.08   59.17
  -1   4   6  307.45   48.34
   1  -6   4  201.14   41.84
   1   6   4  284.83   40.91
   4  -6   1  241.55   55.15
   1   4  -6  179.82   55.51
  -4  -6   1  157.07   54.04
  -1   6   4  267.77   44.12
  -1  -6  -4  205.64   64.21
   1  -6  -4  269.47   78.41
  -1  -6   4  159.27   39.52
   4  -6  -1  231.95   54.72
  -6   1  -4  333.30   60.83
  -6  -1  -4  274.79   45.87
  -4   1   6  149.21   43.67
  -4   6   1  239.10   50.48
   6  -4  -1  205.19   56.68
  -4  -6  -1  224.23   36.23
   4  -6   1  151.12   40.67
  -6  -4  -1  259.84   49.65
   6  -4   1  143.48   47.09
   6  -1   4  181.72   56.42
   6   1   4  232.51   66.95
  -6   4  -1  218.10   52.65
   4  -1   6  145.96   47.48
   1  -4   6  236.39   46.09
  -4   1  -6  111.55   43.97
  -1   4  -6  170.95   53.54
  -4  -1  -6  191.52   46.04
   4   1  -6  216.26   51.61
   6   1  -4  118.69   42.86
   6   4   1  240.78   60.54
   6   4  -1  239.47   66.61
  -4  -6   1  173.88   39.56
  -6  -4   1  214.43   52.06
   4   6   1  113.11   36.37
   4   6  -1  148.23   52.83
   1   6  -4  259.10   60.68
  -6   1   4  108.46   36.77
  -6  -1   4  119.83   41.23
   4   1   6  229.27   51.80
   4   1  -6  258.97   67.39
   4  -1  -6  224.57   66.72
   2  -4  -6  286.00  109.11
   2  -6  -4  237.13   72.17
  -4  -2   6  111.35   34.08
   2   4   6  214.68   38.04
  -2  -6  -4  144.63   50.61
  -2   4   6  293.73   46.79
   2   6   4  218.31   32.99
  -4   6  -2  214.60   59.10
  -2  -6  -4  157.54   54.63
  -4  -6   2  106.05   41.83
   2  -6  -4  254.11   76.75
   4  -6  -2  229.75   56.58
   2  -6   4  152.55   37.15
   4   2   6  192.03   44.90
  -4   2   6  184.65   43.00
  -6  -4  -2  217.79   40.12
   4  -6   2  125.93   35.39
   6  -4   2  104.99   38.06
   2  -4   6  116.05   33.19
   6   2   4  184.15   59.43
   2  -4   6  177.43   36.57
   4  -2   6  130.38   43.50
   2   6  -4  180.91   46.90
  -4  -2  -6  204.90   44.18
  -6   2  -4  213.27   58.66
  -6   2  -4   95.77   39.30
   6   2  -4  138.79   48.46
   4   2  -6  159.90   46.53
   6   4   2  160.56   43.46
  -6   4  -2  151.70   48.42
   2   4  -6  145.66   51.97
   4   6   2  135.57   33.32
  -6  -4   2  150.22   46.29
  -2   4  -6  150.90   52.57
  -4  -6   2  144.10   39.14
   2   6  -4  139.78   56.22
  -6   2   4   79.13   29.62
   3  -6  -4  118.20   43.55
   3   6   4  133.37   25.08
  -4   3   6  220.03   43.29
   4  -6  -3  163.53   49.72
   4   3   6  146.08   37.64
   4   6  -3   99.51   31.02
   3   4   6  100.53   26.76
  -6   4   3   86.70   24.50
   4  -6   3   74.83   26.11
   3   6  -4  110.34   33.90
   3  -4   6  149.51   31.12
   3  -4   6  103.94   31.79
   6   3   4  138.22   48.86
  -6   3  -4  150.56   53.67
   4   3  -6  150.14   51.80
   3   4  -6  102.44   44.19
  -4  -6   3   85.83   28.66
  -5   0   6   73.02   25.36
   0   5  -6  108.21   40.73
   0  -6  -5  122.53   50.21
   6   0  -5  115.36   40.74
  -5  -6   0  112.12   29.98
  -6  -5   0  160.47   40.74
  -5   6   0  143.71   41.92
   1   5  -6   92.29   37.60
   1  -6  -5   76.07   47.10
  -5  -1   6   43.78   20.47
  -5   6  -1   98.16   36.05
  -5   1   6   39.94   19.57
  -1  -6  -5  101.01   45.77
  -6   5  -1   94.50   34.91
  -5  -6  -1  125.85   28.57
   5   1  -6  113.47   38.90
   6   1  -5  111.12   39.46
  -6  -5  -1  122.85   30.80
  -5  -6   1  115.97   32.78
   1   6  -5  114.36   41.22
  -5  -6   2   49.80   27.95
   5   2   6  106.53   30.87
   2   6  -5  104.25   35.76
   5   2  -6   59.50   28.53
   6   5   2   73.17   26.95
   5   6   2   59.52   21.55
   2   5  -6   45.16   26.41
  -5  -6   2  100.87   34.07
  -6   2   5   33.16   19.57
   0   0  -7  115.04   77.85
   0   0   7   77.68   31.06
   0  -7   0   75.89   33.58
   0   0   7   95.31   35.85
   7   0   0   48.85   25.71
   0   7   0   62.10   28.59
   0   0  -7   80.12   45.75
   7   0   0  108.54   43.44
  -7   0   0   59.08   26.56
   1   0  -7   94.74   64.33
   0   1  -7   82.29   54.66
   0  -1  -7  110.89   80.84
  -1   0  -7  102.86   72.74
   0  -1   7   65.53   25.24
   1   0   7   57.57   24.84
  -1   0   7   61.46   27.98
  -1  -7   0   49.44   26.85
   0  -7  -1   71.32   35.27
   0  -7   1   38.15   24.91
   1  -7   0   76.69   34.15
   0  -1   7   45.39   23.39
   1   0   7   71.67   29.81
  -1   0   7   53.75   24.73
   0   1   7   63.02   28.62
   0   7   1   86.60   31.13
   1   7   0   56.82   26.90
   7   0  -1   50.59   24.70
   7  -1   0   44.32   25.65
   7   1   0   50.73   23.20
   7   0   1   38.15   24.78
  -1   0  -7  129.97   65.14
  -1   7   0   58.80   26.80
   0   7  -1   59.74   28.80
   7   0   1   84.07   39.09
   7   0  -1  101.47   40.80
   7   1   0   69.72   35.68
  -7   0  -1   48.32   21.68
  -7   1   0   53.59   22.77
  -7  -1   0   80.21   31.62
  -7   0   1   59.34   26.22
   0   1  -7   92.81   47.87
   1   1  -7   73.53   50.61
   1  -1  -7   73.39   59.73
  -1   1  -7   41.88   36.07
  -1  -1  -7   91.25   57.68
   1  -1   7   50.54   21.79
  -1  -1   7   73.33   29.37
  -1  -7  -1   61.14   34.04
  -1  -7   1   41.47   26.95
   1  -7  -1   45.77   29.01
   1  -7   1   56.71   30.81
   1  -1   7   59.40   25.92
  -1  -1   7   63.31   27.24
   1   1   7   50.65   26.19
   1   7   1   81.82   30.92
  -7   1  -1   52.12   25.07
  -1   1   7   77.72   32.85
  -1   1  -7  100.10   52.88
  -1   7   1   83.10   30.91
   7  -1  -1   40.63   23.41
   7   1  -1   34.17   18.30
   7  -1   1   64.62   34.48
   7   1   1   50.32   28.22
   1   7  -1   58.65   27.47
  -1   7  -1   72.06   31.50
   7   1   1   47.26   26.46
   7   1  -1   38.18   25.76
  -7   1  -1   83.30   25.69
  -7  -1  -1   66.20   25.68
  -7   1   1   46.58   21.74
  -7  -1   1   63.60   28.52
   0   2  -7   42.86   27.38
   2   0  -7   87.18   54.84
   0  -2  -7   57.80   46.69
  -2   0  -7   92.93   59.52
   0  -2   7   86.10   30.36
   2   0   7   76.59   28.12
  -2   0   7   67.01   29.82
   0   2  -7  110.32   46.19
  -2  -7   0   90.66   40.90
   0  -7  -2   62.35   34.53
   0  -7   2   58.47   29.59
   2  -7   0   53.30   28.10
   2   0   7   87.22   32.50
  -2   0   7   73.02   30.92
   2   7   0   78.41   27.63
   0   2   7   63.62   23.88
   0   7   2   31.11   12.43
   7   0  -2   56.69   25.00
   7  -2   0   70.12   31.86
   7   2   0   55.66   22.80
   7   0   2   51.63   32.40
  -2   7   0   60.38   27.81
   0   7  -2   74.75   32.91
   7   0  -2   84.75   37.84
   7   2   0   95.19   40.78
  -7   0  -2   82.49   25.30
  -7   2   0   60.93   22.90
  -7  -2   0  102.65   37.17
  -7   0   2   79.49   34.50
   2  -1  -7   25.68   26.56
   1  -2  -7  178.59  102.31
  -2   1  -7  112.70   66.89
  -7   1  -2   29.40   17.66
  -1  -2  -7   35.86   35.08
  -2  -1  -7   46.25   39.80
   1  -2   7   70.83   26.81
  -1  -7  -2   58.64   27.45
  -1  -2   7   68.04   27.07
   2  -1   7   68.60   25.69
  -2  -1   7   48.81   23.07
  -2  -7  -1   85.83   43.10
  -1  -7  -2   99.41   44.25
  -2  -7   1   85.47   39.87
  -1  -7   2   58.06   28.34
   1  -7  -2   65.73   35.28
   2  -7  -1   71.35   32.44
   1  -7   2   67.04   30.88
  -2   1  -7   60.43   39.84
   2  -7   1   71.79   29.88
  -1  -2   7   64.37   25.41
   2  -1   7   68.89   28.66
  -2  -1   7   68.03   25.62
   2   1   7   40.53   22.21
   1   2   7   53.95   23.02
  -2   1   7   62.12   26.91
  -1   2   7   44.92   17.38
  -1   7   2  103.81   33.56
   2   7  -1   85.95   32.62
  -1   2  -7   83.65   42.66
   1   7   2   88.34   23.96
   2   7   1   54.97   17.45
   7   1  -2   37.64   20.90
   7  -1  -2   77.17   30.98
   7  -2  -1   70.12   33.15
   7  -2   1   85.88   38.64
   7   2   1   48.42   25.63
   7  -1   2   57.38   31.55
   7   1   2   46.88   26.04
  -2   7   1   46.05   21.60
   1   7  -2   53.85   26.20
   7   1   2   44.99   27.50
   7   1  -2   70.61   36.02
   7   2   1   66.92   33.68
   7   2  -1   58.23   34.18
  -7   1  -2  104.16   29.02
  -7   2  -1   77.33   24.92
  -7  -1  -2   68.39   23.11
  -7  -2  -1  101.25   31.67
  -7   2   1   29.44   16.56
  -2   7  -1   82.54   33.90
  -7  -2   1   59.26   27.85
  -7   1   2   36.83   19.40
  -7  -1   2   71.43   32.86
  -1   7  -2   54.21   28.91
   1   2  -7   53.73   35.44
   2   1  -7   82.66   50.41
  -2  -2  -7   29.27   21.03
   2  -2   7   93.72   30.24
  -7   2  -2   51.09   26.97
  -2  -7   2   80.80   37.03
   2  -7  -2   87.06   39.06
  -2  -2   7   61.73   23.11
  -2   2   7   42.82   18.11
  -2   7   2   79.20   28.88
   2   7   2   90.08   21.03
   7  -2  -2   99.32   37.54
   2   7  -2   65.97   28.41
   7   2   2   86.74   36.75
   7   2   2   71.67   32.64
  -7   2  -2   87.80   27.23
  -7   2   2   59.91   25.40
  -2   2  -7   69.35   39.88
   2   2  -7   87.87   40.80
  -3   0  -7   61.53   40.35
   0  -7  -3   59.06   32.36
   3   0   7   64.68   24.10
   0  -7  -3   76.54   38.13
   0  -7   3   62.80   28.00
  -3   0   7   88.97   31.10
   0   7   3   71.06   22.04
   0   3  -7   60.35   33.36
  -3   7   0   77.94   31.06
  -7   0   3   61.42   28.17
   1  -3   7   64.62   24.71
  -3  -1  -7   23.99   21.19
  -1  -7  -3   32.31   21.59
   3  -1   7   69.58   24.70
   1  -7  -3   48.99   29.61
  -1  -7   3   64.63   28.02
   1  -7   3   73.78   29.31
  -3   1   7   61.90   28.31
   1   7   3   71.27   20.22
   7   1   3   68.79   35.36
  -3   7   1   75.20   28.60
   7   3   1   72.11   33.33
  -7   1  -3   30.42   17.09
  -7   1   3   32.83   19.51
   3   7   1   62.35   25.39
   3   1  -7  117.17   50.20
  -1   3  -7   56.21   34.50
   2  -3   7   68.23   24.37
  -7   3  -2   56.21   29.13
  -7   2  -3    8.20    9.94
  -2  -7   3   40.54   22.17
  -3   2   7   40.85   18.33
   2   7   3   82.74   20.41
  -3   7   2   80.32   27.34
   7   2   3   83.54   37.30
   2  -3   7   40.58   20.92
  -7   2  -3  106.63   32.26
   7   3   2   78.05   33.00
  -7   3  -2   46.77   20.64
  -7   2   3   49.60   22.55
   3   7   2   52.78   20.32
   3   2  -7   65.11   33.20
  -7   3  -3   93.15   34.35
   0  -7  -4   45.15   30.95
  -4   0  -7   27.41   22.51
   0  -7   4   50.89   22.92
   0   4  -7   82.73   37.53
  -4   7   1   53.95   23.78
   0   1  -8  228.12   96.46
   8   1   0  100.22   32.09
  -1   1  -8  219.62   86.82
   1   8   1   86.45   23.01
   0   0   0    0.00    0.00


TITL acorr in Pm-3m
REM Pm-3m (#221 in standard setting)
CELL 0.71073   5.919515   5.919515   5.919515  90.0000  90.0000  90.0000
ZERR    2.00   0.000138   0.000138   0.000138   0.0000   0.0000   0.0000
LATT  1
SYMM -x,-y, z
SYMM -x, y,-z
SYMM  x,-y,-z
SYMM  z, x, y
SYMM  z,-x,-y
SYMM -z,-x, y
SYMM -z, x,-y
SYMM  y, z, x
SYMM -y, z,-x
SYMM  y,-z,-x
SYMM -y,-z, x
SYMM  y, x,-z
SYMM -y,-x,-z
SYMM  y,-x, z
SYMM -y, x, z
SYMM  x, z,-y
SYMM -x, z, y
SYMM -x,-z,-y
SYMM  x,-z, y
SYMM  z, y,-x
SYMM  z,-y, x
SYMM -z, y, x
SYMM -z,-y,-x
SFAC C H N Br Pb
UNIT 2.00 12.00 2.00 6.00 2.00
TREF
HKLF 4
END
_computing_structure_solution     'SHELXT 2014/5 (Sheldrick, 2014)'
;
_shelx_hkl_checksum              84645
_shelx_shelxl_version_number     2014/7
_olex2_submission_special_instructions 'No special instructions were received'
_oxdiff_exptl_absorpt_empirical_details
;
Empirical correction (ABSPACK) includes:
- Absorption correction using spherical harmonics
- Frame scaling
- Detector area scaling
;
_oxdiff_exptl_absorpt_empirical_full_max 3.473
_oxdiff_exptl_absorpt_empirical_full_min 0.499
_oxdiff_exptl_absorpt_spherical_max 0.026
_oxdiff_exptl_absorpt_spherical_min 0.008
loop_
_space_group_symop_operation_xyz
'x, y, z'
'-x, -y, z'
'-x, y, -z'
'x, -y, -z'
'z, x, y'
'z, -x, -y'
'-z, -x, y'
'-z, x, -y'
'y, z, x'
'-y, z, -x'
'y, -z, -x'
'-y, -z, x'
'y, x, -z'
'-y, -x, -z'
'y, -x, z'
'-y, x, z'
'x, z, -y'
'-x, z, y'
'-x, -z, -y'
'x, -z, y'
'z, y, -x'
'z, -y, x'
'-z, y, x'
'-z, -y, -x'
'-x, -y, -z'
'x, y, -z'
'x, -y, z'
'-x, y, z'
'-z, -x, -y'
'-z, x, y'
'z, x, -y'
'z, -x, y'
'-y, -z, -x'
'y, -z, x'
'-y, z, x'
'y, z, -x'
'-y, -x, z'
'y, x, z'
'-y, x, -z'
'y, -x, -z'
'-x, -z, y'
'x, -z, -y'
'x, z, y'
'-x, z, -y'
'-z, -y, x'
'-z, y, -x'
'z, -y, -x'
'z, y, x'
loop_
_atom_site_label
_atom_site_type_symbol
_atom_site_fract_x
_atom_site_fract_y
_atom_site_fract_z
_atom_site_U_iso_or_equiv
_atom_site_adp_type
_atom_site_occupancy
_atom_site_site_symmetry_order
_atom_site_calc_flag
_atom_site_refinement_flags_posn
_atom_site_refinement_flags_adp
_atom_site_refinement_flags_occupancy
_atom_site_disorder_assembly
_atom_site_disorder_group
Pb1 Pb 0.5000 0.5000 0.5000 0.03516(16) Uani 1 48 d S T P . .
Br2 Br 0.5000 0.5000 0.0000 0.1087(8) Uani 1 16 d S T P . .
N1 N -0.047(3) 0.1162(13) 0.015(3) 0.040(12) Uiso 0.0208 1 d D . . A -1
H1A H -0.0974 0.1960 -0.1017 0.060 Uiso 0.0208 1 d G . . A -1
H1B H 0.0637 0.1916 0.0836 0.060 Uiso 0.0208 1 d G . . A -1
H1C H -0.1596 0.0936 0.1126 0.060 Uiso 0.0208 1 d G . . A -1
C2 C 0.038(15) -0.102(6) -0.064(7) 0.040(12) Uiso 0.0208 1 d DG . . A -1
H2A H 0.0961 -0.1865 0.0616 0.060 Uiso 0.0208 1 d G . . A -1
H2B H 0.1570 -0.0775 -0.1720 0.060 Uiso 0.0208 1 d G . . A -1
H2C H -0.0823 -0.1850 -0.1343 0.060 Uiso 0.0208 1 d G . . A -1
loop_
_atom_site_aniso_label
_atom_site_aniso_U_11
_atom_site_aniso_U_22
_atom_site_aniso_U_33
_atom_site_aniso_U_23
_atom_site_aniso_U_13
_atom_site_aniso_U_12
Pb1 0.03516(16) 0.03516(16) 0.03516(16) 0.000 0.000 0.000
Br2 0.1470(12) 0.1470(12) 0.0320(7) 0.000 0.000 0.000
loop_
_atom_type_symbol
_atom_type_description
_atom_type_scat_dispersion_real
_atom_type_scat_dispersion_imag
_atom_type_scat_source
Br Br -0.2901 2.4595 'International Tables Vol C Tables 4.2.6.8 and 6.1.1.4'
C C 0.0033 0.0016 'International Tables Vol C Tables 4.2.6.8 and 6.1.1.4'
N N 0.0061 0.0033 'International Tables Vol C Tables 4.2.6.8 and 6.1.1.4'
Pb Pb -3.3944 10.1111 'International Tables Vol C Tables 4.2.6.8 and 6.1.1.4'
H H 0.0000 0.0000 'International Tables Vol C Tables 4.2.6.8 and 6.1.1.4'
He He 0.0000 0.0000 'International Tables Vol C Tables 4.2.6.8 and 6.1.1.4'
loop_
_exptl_crystal_face_index_h
_exptl_crystal_face_index_k
_exptl_crystal_face_index_l
_exptl_crystal_face_perp_dist
3 -5 -6 0.1330
7 -2 -4 0.1201
8 0 -2 0.1193
7 3 2 0.1124
0 5 7 0.0903
-6 -4 -4 0.1154
6 0 -5 0.1130
6 -6 0 0.1015
-1 -6 5 0.1118
-6 -1 6 0.1725
-5 6 0 0.1533
1 7 -5 0.1381
1 1 0 0.1105
-1 0 -1 0.1220
1 0 1 0.0959
loop_
_geom_angle_atom_site_label_1
_geom_angle_atom_site_label_2
_geom_angle_atom_site_label_3
_geom_angle
_geom_angle_site_symmetry_1
_geom_angle_site_symmetry_3
Br2 Pb1 Br2 90.0 9_565 .
Br2 Pb1 Br2 180.0 5 5_655
Br2 Pb1 Br2 90.0 5_655 9
Br2 Pb1 Br2 90.0 1_556 5_655
Br2 Pb1 Br2 90.0 . 9
Br2 Pb1 Br2 90.0 1_556 9
Br2 Pb1 Br2 90.0 9_565 5
Br2 Pb1 Br2 90.0 9_565 1_556
Br2 Pb1 Br2 90.0 . 5
Br2 Pb1 Br2 180.0 9_565 9
Br2 Pb1 Br2 90.0 1_556 5
Br2 Pb1 Br2 180.0 . 1_556
Br2 Pb1 Br2 90.0 5 9
Br2 Pb1 Br2 90.0 . 5_655
Br2 Pb1 Br2 90.0 9_565 5_655
Pb1 Br2 Pb1 180.0 1_554 .
H1A N1 H1B 109.5 . .
H1A N1 H1C 109.5 . .
H1B N1 H1C 109.5 . .
C2 N1 H1A 109.4 . .
C2 N1 H1B 109.5 . .
C2 N1 H1C 109.5 . .
N1 C2 H2A 109.5 . .
N1 C2 H2B 109.5 . .
N1 C2 H2C 109.5 . .
H2A C2 H2B 109.5 . .
H2A C2 H2C 109.5 . .
H2B C2 H2C 109.5 . .
loop_
_geom_bond_atom_site_label_1
_geom_bond_atom_site_label_2
_geom_bond_distance
_geom_bond_site_symmetry_2
Pb1 Br2 2.95975(5) 9_565
Pb1 Br2 2.95975(5) 9
Pb1 Br2 2.95975(5) .
Pb1 Br2 2.95975(5) 5_655
Pb1 Br2 2.95975(5) 1_556
Pb1 Br2 2.95975(5) 5
Br2 Pb1 2.95975(5) 1_554
N1 H1A 0.8900 .
N1 H1B 0.8903 .
N1 H1C 0.8896 .
N1 C2 1.4649 .
C2 H2A 0.9601 .
C2 H2B 0.9601 .
C2 H2C 0.9610 .
loop_
_exptl_oxdiff_crystal_face_indexfrac_h
_exptl_oxdiff_crystal_face_indexfrac_k
_exptl_oxdiff_crystal_face_indexfrac_l
_exptl_oxdiff_crystal_face_x
_exptl_oxdiff_crystal_face_y
_exptl_oxdiff_crystal_face_z
2.9634 -4.5469 -6.3386 0.4706 -0.3606 0.8053
6.6456 -2.4794 -4.3972 0.0559 -0.0425 0.9975
8.1727 -0.1263 -1.6894 -0.3097 0.2379 0.9206
7.3650 3.0389 2.4882 -0.6874 0.5274 0.4993
0.2672 5.1787 6.5380 -0.6813 0.5223 -0.5128
-6.2984 -3.9270 -3.8175 0.7599 -0.5829 -0.2879
6.4346 0.2528 -5.3108 0.1713 0.2796 0.9447
5.7477 -6.0395 -0.3077 -0.3263 -0.5328 0.7808
-0.7750 -6.4779 5.2049 -0.5139 -0.8390 -0.1787
-6.0407 -1.1643 5.6421 -0.2317 -0.3783 -0.8962
-5.3915 6.3635 -0.2059 0.3595 0.5871 -0.7253
0.5471 6.5845 -5.0986 0.5167 0.8436 0.1464
1.0000 1.0000 0.0000 -0.0565 0.1440 0.0692
-1.0000 0.0000 -1.0000 0.1634 -0.0153 -0.0422
1.0000 -0.0000 1.0000 -0.1634 0.0153 0.0422
