#------------------------------------------------------------------------------
#$Date: 2017-04-04 16:34:04 +0300 (Tue, 04 Apr 2017) $
#$Revision: 194883 $
#$URL: file:///home/coder/svn-repositories/cod/cif/1/54/55/1545525.cif $
#------------------------------------------------------------------------------
#
# This file is available in the Crystallography Open Database (COD),
# http://www.crystallography.net/
#
# All data on this site have been placed in the public domain by the
# contributors.
#
data_1545525
loop_
_publ_author_name
'Nayak, Maloy'
'Kang, Young Kee'
'Kim, Ikyon'
_publ_section_title
;
 Altering the Cyclization Modes: Temperature-Dependent Intramolecular
 7-Endo-Dig vs 6-Endo-Dig Electrophilic Ring Closures.
;
_journal_issue                   6
_journal_name_full               'Organic letters'
_journal_page_first              1474
_journal_page_last               1477
_journal_paper_doi               10.1021/acs.orglett.7b00472
_journal_volume                  19
_journal_year                    2017
_chemical_formula_moiety         'C20 H15 N O'
_chemical_formula_sum            'C20 H15 N O'
_chemical_formula_weight         285.33
_space_group_crystal_system      triclinic
_space_group_IT_number           2
_space_group_name_Hall           '-P 1'
_space_group_name_H-M_alt        'P -1'
_symmetry_space_group_name_Hall  '-P 1'
_symmetry_space_group_name_H-M   'P -1'
_atom_sites_solution_hydrogens   geom
_atom_sites_solution_primary     dual
_audit_creation_date             2016-10-17
_audit_creation_method
;
Olex2 1.2
(compiled 2016.09.09 svn.r3337 for OlexSys, GUI svn.r5227)
;
_cell_angle_alpha                100.835(3)
_cell_angle_beta                 102.579(3)
_cell_angle_gamma                115.911(3)
_cell_formula_units_Z            2
_cell_length_a                   8.9477(6)
_cell_length_b                   9.8191(6)
_cell_length_c                   10.1325(6)
_cell_measurement_reflns_used    2862
_cell_measurement_temperature    305.3
_cell_measurement_theta_max      24.76
_cell_measurement_theta_min      2.18
_cell_volume                     739.75(9)
_computing_cell_refinement       'SAINT v8.34A (Bruker, 2013)'
_computing_data_reduction        'SAINT v8.34A (Bruker, 2013)'
_computing_molecular_graphics    'Olex2 (Dolomanov et al., 2009)'
_computing_publication_material  'Olex2 (Dolomanov et al., 2009)'
_computing_structure_refinement  'XL (Sheldrick, 2008)'
_computing_structure_solution    'XT (Sheldrick, 2015)'
_diffrn_ambient_temperature      305.3
_diffrn_measured_fraction_theta_full 0.999
_diffrn_measured_fraction_theta_max 0.996
_diffrn_measurement_device_type  'Bruker APEX-II CCD'
_diffrn_measurement_method       '\f and \w scans'
_diffrn_radiation_type           MoK\a
_diffrn_radiation_wavelength     0.71073
_diffrn_reflns_av_R_equivalents  0.0596
_diffrn_reflns_av_unetI/netI     0.0496
_diffrn_reflns_Laue_measured_fraction_full 0.999
_diffrn_reflns_Laue_measured_fraction_max 0.996
_diffrn_reflns_limit_h_max       11
_diffrn_reflns_limit_h_min       -11
_diffrn_reflns_limit_k_max       12
_diffrn_reflns_limit_k_min       -12
_diffrn_reflns_limit_l_max       12
_diffrn_reflns_limit_l_min       -12
_diffrn_reflns_number            12986
_diffrn_reflns_point_group_measured_fraction_full 0.999
_diffrn_reflns_point_group_measured_fraction_max 0.996
_diffrn_reflns_theta_full        25.242
_diffrn_reflns_theta_max         26.033
_diffrn_reflns_theta_min         2.436
_diffrn_standards_number         0
_exptl_absorpt_coefficient_mu    0.079
_exptl_absorpt_correction_T_max  0.7453
_exptl_absorpt_correction_T_min  0.6987
_exptl_absorpt_correction_type   multi-scan
_exptl_absorpt_process_details
;
SADABS-2014/5 (Bruker,2014/5) was used for absorption correction.
wR2(int) was 0.0608 before and 0.0548 after correction.
The Ratio of minimum to maximum transmission is 0.9375.
The \l/2 correction factor is 0.00150.
;
_exptl_crystal_colour            'clear whiteish white'
_exptl_crystal_colour_lustre     clear
_exptl_crystal_colour_modifier   whiteish
_exptl_crystal_colour_primary    white
_exptl_crystal_density_diffrn    1.281
_exptl_crystal_description       block
_exptl_crystal_F_000             300
_exptl_crystal_size_max          0.135
_exptl_crystal_size_mid          0.094
_exptl_crystal_size_min          0.065
_refine_diff_density_max         0.186
_refine_diff_density_min         -0.162
_refine_diff_density_rms         0.042
_refine_ls_extinction_coef       0.031(4)
_refine_ls_extinction_expression Fc^*^=kFc[1+0.001xFc^2^\l^3^/sin(2\q)]^-1/4^
_refine_ls_extinction_method     'SHELXL-2014/7 (Sheldrick 2014'
_refine_ls_goodness_of_fit_ref   1.014
_refine_ls_hydrogen_treatment    constr
_refine_ls_matrix_type           full
_refine_ls_number_parameters     200
_refine_ls_number_reflns         2903
_refine_ls_number_restraints     0
_refine_ls_restrained_S_all      1.014
_refine_ls_R_factor_all          0.0979
_refine_ls_R_factor_gt           0.0468
_refine_ls_shift/su_max          0.000
_refine_ls_shift/su_mean         0.000
_refine_ls_structure_factor_coef Fsqd
_refine_ls_weighting_details
'w=1/[\s^2^(Fo^2^)+(0.0499P)^2^+0.0797P] where P=(Fo^2^+2Fc^2^)/3'
_refine_ls_weighting_scheme      calc
_refine_ls_wR_factor_gt          0.0974
_refine_ls_wR_factor_ref         0.1152
_reflns_Friedel_coverage         0.000
_reflns_number_gt                1807
_reflns_number_total             2903
_reflns_threshold_expression     'I > 2\s(I)'
_cod_data_source_file            ol7b00472_si_003.cif
_cod_data_source_block           mo_moon514_092816_0m_a_a
_cod_depositor_comments
'Adding full bibliography for 1545524--1545525.cif.'
_cod_original_cell_volume        739.75(8)
_cod_database_code               1545525
_shelx_space_group_comment
;
The symmetry employed for this shelxl refinement is uniquely defined
by the following loop, which should always be used as a source of
symmetry information in preference to the above space-group names.
They are only intended as comments.
;
_shelx_estimated_absorpt_t_max   0.995
_shelx_estimated_absorpt_t_min   0.989
_olex2_refinement_description
;
1. Fixed Uiso
 At 1.2 times of:
  All C(H) groups, All C(H,H) groups
2.a Secondary CH2 refined with riding coordinates:
 C2(H2A,H2B)
2.b Aromatic/amide H refined with riding coordinates:
 C4(H4), C5(H5), C6(H6), C7(H7), C9(H9), C13(H13), C14(H14), C15(H15),
 C16(H16), C17(H17), C18(H18), C19(H19), C21(H21)
;
_shelx_res_file
;
    mo_moon514_092816_0m_a_a.res created by SHELXL-2014/7

TITL 1.res in P-1
REM Old TITL
REM SHELXT solution in P-1
REM R1 0.194, Rweak 0.034, Alpha 0.052, Orientation as input
REM Formula found by SHELXT: C20 N O
CELL 0.71073 8.9477 9.8191 10.1325 100.835 102.579 115.911
ZERR 2 0.0006 0.0006 0.0006 0.003 0.003 0.003
LATT 1
SFAC C H N O
UNIT 40 30 2 2

L.S. 10
PLAN  1
SIZE 0.065 0.094 0.135
TEMP 32.15
BOND $H
list 4
MORE -1
CONF
fmap 2
acta
REM <olex2.extras>
REM <HklSrc "%.\\mo_Moon514_092816_0m_a_a.hkl">
REM </olex2.extras>

WGHT    0.049900    0.079700
EXTI    0.031215
FVAR       0.85374
O22   4   -0.106884    0.179400    0.399582    11.00000    0.09301    0.05460 =
         0.12488    0.02132    0.06210    0.00237
N11   3    0.405226    0.655514    0.531660    11.00000    0.04624    0.03542 =
         0.04317    0.01662    0.02079    0.01722
C1    1    0.240777    0.568315    0.429821    11.00000    0.04114    0.04038 =
         0.04845    0.01411    0.02247    0.01677
C2    1    0.189579    0.630172    0.315351    11.00000    0.04089    0.05223 =
         0.05780    0.02030    0.01642    0.02107
AFIX  23
H2A   2    0.204548    0.734401    0.358018    11.00000   -1.20000
H2B   2    0.065926    0.558666    0.258371    11.00000   -1.20000
AFIX   0
C3    1    0.300407    0.643999    0.220472    11.00000    0.04883    0.04142 =
         0.04643    0.01996    0.01552    0.02297
C4    1    0.228976    0.550357    0.077679    11.00000    0.05299    0.05282 =
         0.05341    0.01451    0.00796    0.02268
AFIX  43
H4    2    0.111011    0.470179    0.040599    11.00000   -1.20000
AFIX   0
C5    1    0.329567    0.574067   -0.009887    11.00000    0.07919    0.06647 =
         0.04469    0.01298    0.01660    0.04044
AFIX  43
H5    2    0.279729    0.509934   -0.105098    11.00000   -1.20000
AFIX   0
C6    1    0.503625    0.692574    0.043578    11.00000    0.07298    0.06753 =
         0.04894    0.02436    0.03060    0.03893
AFIX  43
H6    2    0.570898    0.711225   -0.016072    11.00000   -1.20000
AFIX   0
C7    1    0.577980    0.783299    0.185038    11.00000    0.05519    0.05297 =
         0.05219    0.02322    0.02515    0.02439
AFIX  43
H7    2    0.696019    0.863244    0.220493    11.00000   -1.20000
AFIX   0
C8    1    0.480025    0.758145    0.277165    11.00000    0.05124    0.03660 =
         0.04316    0.01884    0.01892    0.02165
C9    1    0.569473    0.851713    0.428270    11.00000    0.04637    0.03551 =
         0.05153    0.01644    0.02163    0.01449
AFIX  43
H9    2    0.657105    0.956715    0.448177    11.00000   -1.20000
AFIX   0
C10   1    0.543688    0.808329    0.542433    11.00000    0.04063    0.03387 =
         0.04617    0.01315    0.01877    0.01621
C12   1    0.660673    0.914039    0.689475    11.00000    0.04460    0.03762 =
         0.04501    0.01461    0.01811    0.01884
C13   1    0.842427    0.995302    0.721574    11.00000    0.04863    0.07354 =
         0.05404    0.01177    0.02119    0.02566
AFIX  43
H13   2    0.890363    0.981091    0.650892    11.00000   -1.20000
AFIX   0
C14   1    0.952233    1.096952    0.857666    11.00000    0.04420    0.08592 =
         0.06335    0.00730    0.01143    0.01948
AFIX  43
H14   2    1.073798    1.151483    0.877741    11.00000   -1.20000
AFIX   0
C15   1    0.884884    1.118704    0.963540    11.00000    0.06567    0.06006 =
         0.04783    0.00733    0.00985    0.02226
AFIX  43
H15   2    0.960110    1.186426    1.055405    11.00000   -1.20000
AFIX   0
C16   1    0.706014    1.040094    0.933301    11.00000    0.06713    0.05287 =
         0.04999    0.01116    0.02618    0.02379
AFIX  43
H16   2    0.659315    1.055380    1.004621    11.00000   -1.20000
AFIX   0
C17   1    0.594834    0.938498    0.797850    11.00000    0.04639    0.04656 =
         0.05427    0.01303    0.02244    0.01631
AFIX  43
H17   2    0.473424    0.885352    0.778744    11.00000   -1.20000
AFIX   0
C18   1    0.420722    0.568534    0.622656    11.00000    0.06847    0.04763 =
         0.04505    0.02253    0.02631    0.03100
AFIX  43
H18   2    0.519906    0.601101    0.700560    11.00000   -1.20000
AFIX   0
C19   1    0.267837    0.429556    0.578581    11.00000    0.07690    0.04006 =
         0.06063    0.02522    0.04131    0.02627
AFIX  43
H19   2    0.242991    0.349511    0.620768    11.00000   -1.20000
AFIX   0
C20   1    0.150930    0.426031    0.456632    11.00000    0.05125    0.03776 =
         0.05836    0.01388    0.03204    0.01587
C21   1   -0.029038    0.302883    0.375830    11.00000    0.06771    0.04891 =
         0.07973    0.01437    0.04665    0.01390
AFIX  43
H21   2   -0.089840    0.319826    0.299581    11.00000   -1.20000
AFIX   0
HKLF 4

REM  1.res in P-1
REM R1 =  0.0468 for    1807 Fo > 4sig(Fo)  and  0.0979 for all    2903 data
REM    200 parameters refined using      0 restraints

END

WGHT      0.0499      0.0797

REM Highest difference peak  0.186,  deepest hole -0.162,  1-sigma level  0.042
Q1    1   0.7102  0.9356  0.4442  11.00000  0.05    0.19
;
_shelx_res_checksum              6181
_shelx_hkl_file
;
  -1   0   0  908.91   21.50
  -1   0   0  848.22   21.20
  -1   0   0  908.91   21.30
   1   0   0  875.01   21.50
   1   0   0  855.51   21.30
   1   0   0  911.11   21.20
  -2   0   0   29.30    2.10
  -2   0   0   25.50    1.70
  -2   0   0   27.90    2.30
   2   0   0   28.50    2.30
   2   0   0   29.50    2.00
   2   0   0   29.40    1.80
  -3   0   0   84.29    3.70
  -3   0   0   84.19    3.20
  -3   0   0   90.79    4.00
   3   0   0   88.19    3.30
   3   0   0   84.69    3.50
   3   0   0   84.69    3.80
  -4   0   0    3.10    1.50
  -4   0   0    3.70    1.20
  -4   0   0    2.70    1.40
   4   0   0    1.80    1.40
   4   0   0    2.70    1.40
   4   0   0    1.40    1.30
  -5   0   0    0.90    1.90
  -5   0   0    2.20    1.40
   5   0   0    1.40    1.30
   5   0   0    4.60    1.70
  -6   0   0   16.20    2.20
  -6   0   0    8.80    2.60
   6   0   0   18.30    2.50
   6   0   0   13.40    2.60
  -7   0   0   26.80    3.50
  -7   0   0   35.90    4.70
   7   0   0   18.60    3.20
   7   0   0   21.30    3.20
  -8   0   0   -0.40    3.60
  -8   0   0    6.20    2.60
   8   0   0    4.50    3.30
   8   0   0    6.60    3.50
   9   0   0   -6.20    4.40
   9   0   0    0.90    3.30
   9  -1   0   -1.00    4.20
  -9   1   0   -1.40    4.50
   8  -1   0    1.40    3.00
   8  -1   0    3.30    3.30
  -8   1   0    6.30    2.00
  -8   1   0   -5.10    3.30
   7  -1   0    3.90    2.20
   7  -1   0    5.70    2.80
  -7   1   0    2.30    2.60
  -7   1   0    1.80    1.70
   6  -1   0    5.60    1.70
   6  -1   0    4.00    1.90
   6  -1   0    3.60    1.70
  -6   1   0    0.80    1.30
  -6   1   0    0.60    2.20
  -6   1   0    2.80    2.30
   5  -1   0   37.50    2.50
   5  -1   0   35.10    2.80
   5  -1   0   38.80    3.20
  -5   1   0   38.90    3.50
  -5   1   0   42.30    3.60
  -5   1   0   38.50    2.30
   4  -1   0  843.02   21.70
   4  -1   0  829.82   21.50
   4  -1   0  830.32   20.50
  -4   1   0  813.92   20.50
  -4   1   0  815.72   21.50
  -4   1   0  849.32   21.70
   3  -1   0   27.70    2.30
   3  -1   0   26.60    1.80
   3  -1   0   25.80    2.30
  -3   1   0   27.80    2.60
  -3   1   0   24.30    1.60
  -3   1   0   27.10    2.50
   2  -1   0    1.40    1.00
   2  -1   0    2.30    0.80
   2  -1   0    2.30    1.10
  -2   1   0    1.10    1.30
  -2   1   0    2.40    1.20
  -2   1   0    2.00    0.70
   1  -1   0  282.87    7.30
   1  -1   0  269.07    7.40
  -1   1   0  259.67    7.30
  -1   1   0  276.47    7.40
   0  -1   0   80.89    2.50
   0  -1   0   79.09    2.10
   0  -1   0   84.29    2.50
   0   1   0   72.09    2.50
   0   1   0   77.09    2.50
  -1  -1   0  597.24   15.50
  -1  -1   0  654.63   15.70
   1   1   0  609.84   15.00
   1   1   0  619.34   15.60
  -2  -1   0 1665.23   41.00
  -2  -1   0 1757.32   41.40
   2   1   0 1684.33   41.40
   2   1   0 1650.83   40.60
  -3  -1   0   17.80    2.20
   3   1   0   18.70    1.90
   3   1   0   24.50    2.50
  -4  -1   0    4.30    1.80
  -4  -1   0    4.90    1.60
   4   1   0    6.10    1.50
   4   1   0    3.30    1.50
  -5  -1   0   16.50    2.30
  -5  -1   0   15.40    2.80
   5   1   0   14.00    2.20
   5   1   0   16.60    2.20
  -6  -1   0   21.90    2.90
  -6  -1   0   21.00    3.50
   6   1   0   19.80    2.80
  -7  -1   0    1.00    3.20
  -7  -1   0    1.50    2.70
   7   1   0    2.10    2.80
  -8  -1   0   -3.80    3.20
  -8  -1   0    0.40    4.30
   8   1   0   -1.30    3.90
   8   1   0    2.90    2.20
   8   1   0    2.40    5.20
  10  -2   0    6.20    6.10
  -9   2   0   18.20    4.90
  -9   2   0   16.30    4.00
   8  -2   0   -1.60    2.80
  -8   2   0    0.80    3.10
  -8   2   0    2.20    2.60
   7  -2   0    8.50    1.80
  -7   2   0   11.80    3.40
  -7   2   0    8.70    2.70
   6  -2   0   27.70    3.50
   6  -2   0   20.50    2.30
  -6   2   0   18.60    2.90
  -6   2   0   20.40    3.00
   5  -2   0   66.39    3.80
   5  -2   0   60.89    2.80
  -5   2   0   60.69    4.10
  -5   2   0   56.09    3.50
  -5   2   0   66.39    4.00
   4  -2   0  547.05   15.10
   4  -2   0  566.44   14.00
  -4   2   0  563.54   15.20
  -4   2   0  547.15   15.10
  -4   2   0  539.65   14.90
   3  -2   0  326.47    8.40
   3  -2   0  317.77    9.20
  -3   2   0  299.77    9.00
  -3   2   0  327.27    9.00
  -3   2   0  315.47    9.30
   2  -2   0 8908.81  228.78
   2  -2   0 9999.00  228.98
  -2   2   0 9613.34  229.28
  -2   2   0 9448.75  229.58
   1  -2   0 1759.72   41.40
   1  -2   0 1650.33   41.30
  -1   2   0 1732.83   41.30
  -1   2   0 1671.13   41.40
  -1   2   0 1761.22   40.90
   0  -2   0  132.69    4.30
   0  -2   0  120.79    3.50
   0  -2   0  130.59    4.30
   0   2   0  128.39    4.20
   0   2   0  135.09    3.90
   0   2   0  126.99    4.20
   0   2   0  130.59    3.60
  -1  -2   0  108.69    4.30
  -1  -2   0  113.59    4.20
   1   2   0  101.69    4.10
   1   2   0  114.39    3.80
  -2  -2   0    1.30    1.40
  -2  -2   0    2.40    1.40
   2   2   0    2.50    1.40
   2   2   0    2.50    0.80
  -3  -2   0   23.90    2.70
  -3  -2   0   27.40    2.80
   3   2   0   25.80    1.90
   3   2   0   22.50    2.50
  -4  -2   0   41.90    3.60
  -4  -2   0   47.40    3.90
   4   2   0   44.10    3.40
   4   2   0   44.00    2.70
  -5  -2   0    5.40    2.40
  -5  -2   0    6.50    2.40
   5   2   0    3.60    1.90
   5   2   0    5.30    1.80
  -6  -2   0   12.30    3.50
  -6  -2   0   12.50    3.00
   6   2   0   11.70    2.40
   6   2   0    7.20    2.20
  -7  -2   0   -6.40    3.30
  -7  -2   0    3.90    3.60
   7   2   0    5.40    3.30
   7   2   0   -5.30    2.80
   7   2   0    0.90    2.00
  -8  -2   0    6.10    4.70
   8   2   0   -3.90    3.70
   8   2   0   -0.20    4.90
  10  -3   0   -0.70    5.30
 -10   3   0    0.50    5.90
  -9   3   0    4.30    4.30
  -9   3   0    4.40    3.40
   8  -3   0   -0.40    2.70
   8  -3   0    0.10    1.70
  -8   3   0   -3.50    3.40
  -8   3   0    3.50    2.40
  -8   3   0   -1.30    3.10
   7  -3   0    2.10    1.70
   7  -3   0   -0.90    2.20
  -7   3   0    1.20    2.70
  -7   3   0    2.80    2.70
  -7   3   0    1.40    1.90
   6  -3   0   49.80    3.70
   6  -3   0   43.10    2.90
  -6   3   0   50.29    3.60
  -6   3   0   51.79    4.20
  -6   3   0   43.90    4.20
   5  -3   0   41.90    2.70
   5  -3   0   39.40    3.10
  -5   3   0   46.30    3.70
  -5   3   0   39.70    3.10
  -5   3   0   41.20    3.40
   4  -3   0   12.90    1.90
   4  -3   0    9.50    1.50
  -4   3   0    5.50    1.80
  -4   3   0   10.00    1.50
  -4   3   0    8.70    1.70
   3  -3   0  109.29    4.40
   3  -3   0  107.29    4.40
  -3   3   0  119.19    4.70
  -3   3   0  105.29    4.20
   2  -3   0   33.30    2.60
   2  -3   0   33.70    2.40
  -2   3   0   30.30    2.30
  -2   3   0   31.90    2.60
  -2   3   0   29.10    1.30
   1  -3   0  271.97    7.70
   1  -3   0  249.08    7.20
  -1   3   0  271.67    7.30
  -1   3   0  260.57    6.90
  -1   3   0  267.37    7.60
  -1   3   0  258.87    7.40
   0  -3   0   -0.50    1.30
   0  -3   0   -1.70    1.10
   0  -3   0    0.30    0.70
   0   3   0   -1.10    0.90
   0   3   0    0.00    1.20
   0   3   0   -1.20    0.70
   0   3   0   -0.70    1.00
  -1  -3   0   38.40    3.00
  -1  -3   0   47.50    3.10
   1   3   0   36.10    2.70
   1   3   0   38.20    2.30
  -2  -3   0   66.29    3.80
  -2  -3   0   71.19    4.00
   2   3   0   67.79    3.30
   2   3   0   65.09    3.60
  -3  -3   0   12.20    2.10
  -3  -3   0    8.30    2.20
   3   3   0   10.20    1.70
   3   3   0   10.90    1.10
   3   3   0    8.20    2.00
  -4  -3   0    2.70    3.00
  -4  -3   0    3.20    2.10
   4   3   0    2.00    1.50
   4   3   0   -0.20    1.60
   4   3   0    0.90    1.10
  -5  -3   0   54.69    5.30
  -5  -3   0   41.10    4.80
   5   3   0   48.70    3.90
   5   3   0   44.50    3.10
  -6  -3   0   23.10    7.30
  -6  -3   0   28.20    4.20
   6   3   0   27.30    3.50
   6   3   0   22.90    3.20
  -7  -3   0    0.00    4.60
  -7  -3   0    2.20    4.80
   7   3   0    0.30    2.70
   7   3   0    2.00    2.70
  10  -4   0    3.40    5.20
 -10   4   0   -5.00    5.70
   9  -4   0   -3.80    3.40
  -9   4   0    0.80    4.40
  -9   4   0    0.40    4.60
  -9   4   0    3.70    3.00
   8  -4   0    6.40    2.80
   8  -4   0   11.80    2.10
  -8   4   0    5.20    2.50
  -8   4   0    7.60    3.70
  -8   4   0    4.40    3.40
   7  -4   0   29.40    3.80
   7  -4   0   34.00    3.20
  -7   4   0   38.00    4.80
  -7   4   0   33.50    4.50
  -7   4   0   26.50    2.90
   6  -4   0   90.19    4.20
   6  -4   0   86.29    4.80
  -6   4   0   93.49    5.30
  -6   4   0   86.39    4.50
  -6   4   0   93.69    5.20
   5  -4   0   64.59    3.40
   5  -4   0   62.69    3.70
  -5   4   0   59.09    4.30
  -5   4   0   61.99    3.70
  -5   4   0   61.49    4.00
   4  -4   0   88.39    4.40
   4  -4   0   86.09    4.20
  -4   4   0   79.39    4.40
  -4   4   0   86.19    4.00
   3  -4   0  180.08    6.20
   3  -4   0  176.08    6.20
  -3   4   0  181.28    6.10
  -3   4   0  190.28    6.50
   2  -4   0   14.80    1.90
   2  -4   0   16.10    2.10
  -2   4   0   18.00    1.60
  -2   4   0   14.70    2.00
  -2   4   0   18.30    2.40
   1  -4   0    1.20    1.00
   1  -4   0   -1.00    1.10
  -1   4   0    0.60    1.10
  -1   4   0   -0.50    1.00
  -1   4   0    0.30    0.90
  -1   4   0    0.60    1.10
   0  -4   0  212.48    7.00
   0  -4   0  195.78    5.70
   0  -4   0  206.78    6.80
   0   4   0  207.18    6.20
   0   4   0  208.58    5.70
   0   4   0  210.08    6.90
   0   4   0  207.58    6.70
  -1  -4   0   19.50    2.40
  -1  -4   0   12.00    2.10
  -1  -4   0   16.70    2.40
   1   4   0   18.50    2.40
   1   4   0   17.60    1.90
  -2  -4   0    6.40    2.00
  -2  -4   0    6.40    2.10
  -2  -4   0    7.20    2.10
   2   4   0    5.90    1.60
   2   4   0    4.90    1.70
  -3  -4   0   -0.80    2.50
  -3  -4   0    2.50    2.10
  -3  -4   0    3.10    2.20
   3   4   0    4.40    1.70
   3   4   0    1.60    1.60
  -4  -4   0    7.20    2.80
  -4  -4   0   11.20    2.90
   4   4   0    7.40    2.30
   4   4   0    8.70    2.10
  -5  -4   0    7.30    3.70
  -5  -4   0    3.30    3.20
   5   4   0    4.90    2.90
   5   4   0    3.60    2.30
  -6  -4   0   -2.10    4.20
  -6  -4   0   -2.40    4.40
   6   4   0   -0.70    3.80
   6   4   0    6.80    2.30
  10  -5   0   11.20    4.70
 -10   5   0   10.30    6.10
 -10   5   0   -0.20    5.90
 -10   5   0   -2.30    5.50
   9  -5   0    7.00    3.90
   9  -5   0    8.50    2.50
  -9   5   0    4.30    3.30
  -9   5   0    3.50    4.30
  -9   5   0    7.30    4.60
   8  -5   0    9.80    2.40
  -8   5   0   13.60    3.00
  -8   5   0   13.80    3.90
  -8   5   0   19.00    4.00
   7  -5   0   15.40    2.60
   7  -5   0   14.70    2.70
  -7   5   0   19.90    3.00
  -7   5   0   15.70    3.10
  -7   5   0   13.30    3.20
   6  -5   0    3.10    2.00
  -6   5   0    2.80    2.30
  -6   5   0    3.10    1.60
  -6   5   0    5.20    2.30
   5  -5   0   86.09    4.60
   5  -5   0   95.09    5.00
  -5   5   0   96.39    5.20
  -5   5   0   90.99    4.40
   4  -5   0    2.00    1.50
   4  -5   0    1.30    1.30
  -4   5   0   -1.40    1.70
  -4   5   0   -1.00    1.10
   3  -5   0    6.30    1.70
   3  -5   0    5.10    1.90
  -3   5   0   10.70    2.00
  -3   5   0    6.30    1.50
   2  -5   0   17.60    2.30
   2  -5   0   24.20    2.90
  -2   5   0   21.80    2.70
  -2   5   0   18.50    2.30
  -2   5   0   20.60    2.00
  -2   5   0   18.30    2.40
   1  -5   0    0.10    1.10
   1  -5   0    1.60    1.30
  -1   5   0    1.20    1.20
  -1   5   0    0.00    1.20
  -1   5   0   -0.50    1.20
  -1   5   0    1.20    1.40
   0  -5   0   93.99    3.30
   0  -5   0   95.69    4.70
   0  -5   0   97.09    4.90
   0   5   0  101.79    3.40
   0   5   0   92.49    4.00
   0   5   0   97.69    4.50
   0   5   0   94.49    4.50
  -1  -5   0   45.40    3.80
  -1  -5   0   53.69    4.10
  -1  -5   0   47.50    4.00
   1   5   0   42.00    3.50
   1   5   0   50.59    3.20
  -2  -5   0   76.69    5.10
  -2  -5   0   63.89    7.40
  -2  -5   0   78.39    5.00
   2   5   0   76.89    4.20
   2   5   0   56.69    6.70
  -3  -5   0  116.19    7.00
  -3  -5   0  125.29    6.70
  -3  -5   0  115.19    6.80
   3   5   0  123.39    5.70
   3   5   0  127.29    6.40
  -4  -5   0    4.50    3.40
  -4  -5   0   -2.60    3.40
  -4  -5   0    6.00    3.10
   4   5   0    7.50    2.60
  -5  -5   0   18.10    5.10
  -5  -5   0   14.10    4.10
  -5  -5   0   11.90    4.70
   5   5   0   12.90    2.80
   5   5   0   14.80    4.20
  -6  -5   0    0.30    5.90
   6   5   0    1.00    4.30
  10  -6   0   28.00    5.30
  10  -6   0   24.50    3.10
 -10   6   0   19.90    6.40
 -10   6   0   15.40    6.50
 -10   6   0   25.30    5.60
   9  -6   0    6.30    3.60
   9  -6   0    3.00    2.80
  -9   6   0   -0.70    3.40
  -9   6   0   -6.30    3.80
  -9   6   0    0.60    4.10
   8  -6   0   14.90    3.00
  -8   6   0   12.00    2.90
  -8   6   0   16.40    3.80
  -8   6   0   14.50    4.00
   7  -6   0   -1.50    2.40
  -7   6   0   -0.80    2.50
  -7   6   0    0.20    2.20
  -7   6   0   -0.10    2.80
   6  -6   0    3.50    2.50
   6  -6   0    6.00    1.70
  -6   6   0    8.00    2.00
  -6   6   0    6.40    3.30
   5  -6   0   52.59    3.60
   5  -6   0   52.49    4.30
  -5   6   0   50.39    4.30
  -5   6   0   47.00    3.40
   4  -6   0   60.79    4.10
   4  -6   0   61.49    3.80
  -4   6   0   55.69    4.30
  -4   6   0   58.59    3.60
   3  -6   0    8.60    1.80
   3  -6   0   10.80    2.30
  -3   6   0   10.50    1.90
  -3   6   0    5.40    1.40
  -3   6   0   10.70    2.30
   2  -6   0   46.10    3.20
   2  -6   0   47.20    3.80
  -2   6   0   47.80    2.80
  -2   6   0   46.90    3.50
  -2   6   0   44.10    3.40
  -2   6   0   42.00    3.10
   1  -6   0    5.50    1.50
   1  -6   0    4.70    2.10
  -1   6   0    5.80    1.50
  -1   6   0    3.40    1.60
  -1   6   0    5.10    1.90
  -1   6   0    8.00    1.70
   0  -6   0   17.10    2.90
   0  -6   0   14.00    2.70
   0   6   0   16.20    2.40
   0   6   0   20.20    2.40
   0   6   0   21.00    2.10
  -1  -6   0   12.60    3.20
  -1  -6   0   12.40    2.50
  -1  -6   0   12.00    2.50
   1   6   0   10.70    2.50
   1   6   0   14.80    5.10
  -2  -6   0   13.40    3.60
  -2  -6   0   15.80    3.30
  -2  -6   0   18.50    3.40
   2   6   0   19.20    3.20
   2   6   0   14.90    2.60
  -3  -6   0   25.10    4.10
  -3  -6   0   20.30    4.20
  -3  -6   0   22.80    4.30
   3   6   0   15.80    2.80
  -4  -6   0   -5.10    4.50
  -4  -6   0    1.20    4.30
  -4  -6   0    4.70    3.90
   4   6   0    3.70    4.30
   4   6   0    2.90    2.30
  -5  -6   0   11.20    6.70
  -5  -6   0    0.80    6.10
  10  -7   0   21.10    4.00
 -10   7   0   26.00    5.40
 -10   7   0   32.40    6.70
   9  -7   0    3.30    3.70
   9  -7   0   13.80    3.40
  -9   7   0    0.00    3.80
  -9   7   0   13.10    3.70
  -9   7   0    8.90    4.80
   8  -7   0    4.10    3.30
  -8   7   0    8.20    3.70
  -8   7   0    6.80    3.10
  -8   7   0    5.30    3.10
   7  -7   0   18.70    3.20
   7  -7   0   16.60    3.70
  -7   7   0   21.70    3.80
  -7   7   0   23.70    3.10
   6  -7   0    8.30    2.40
   6  -7   0   10.60    2.80
  -6   7   0   13.90    3.10
  -6   7   0    5.00    2.00
   5  -7   0   -0.40    1.90
   5  -7   0    1.30    2.40
  -5   7   0   -1.00    1.70
  -5   7   0    0.50    2.40
   4  -7   0    4.60    2.00
   4  -7   0    3.30    2.30
  -4   7   0    4.40    2.30
  -4   7   0    1.40    1.60
  -4   7   0    3.80    1.90
   3  -7   0    2.70    2.00
   3  -7   0    4.30    2.40
  -3   7   0   -1.40    2.10
  -3   7   0    3.50    1.60
  -3   7   0    1.00    1.60
  -3   7   0    4.70    2.10
   2  -7   0    6.60    2.30
   2  -7   0    3.90    1.90
  -2   7   0    4.90    1.90
  -2   7   0    7.70    2.10
  -2   7   0    7.20    2.30
  -2   7   0    3.60    3.00
   1  -7   0    7.70    1.80
   1  -7   0    6.90    3.40
  -1   7   0    9.80    2.00
  -1   7   0    8.60    2.00
  -1   7   0    9.90    2.30
  -1   7   0   12.10    2.20
   0  -7   0    6.00    2.70
   0  -7   0    3.10    2.20
   0  -7   0    8.70    3.10
   0   7   0    8.20    2.60
   0   7   0    7.30    2.60
   0   7   0    8.80    1.50
  -1  -7   0   67.59    5.80
  -1  -7   0   53.59    6.30
  -1  -7   0   46.30    5.50
   1   7   0   52.69    4.60
   1   7   0   57.49    5.40
  -2  -7   0    5.20    3.40
  -2  -7   0    2.10    4.20
  -2  -7   0    3.30    3.80
   2   7   0    6.80    2.60
  -3  -7   0   17.10    5.00
  -3  -7   0    9.60    4.70
  -3  -7   0   13.40    4.40
   3   7   0   16.40    3.30
   3   7   0   14.90    4.80
  -4  -7   0   17.30    6.90
  -4  -7   0    7.10    6.20
   4   7   0   16.50    3.40
  10  -8   0   -2.10    4.80
 -10   8   0   -0.60    5.90
   9  -8   0    3.00    4.40
   9  -8   0   -5.30    3.10
  -9   8   0    1.90    4.20
  -9   8   0   -4.20    4.10
  -9   8   0    5.10    4.80
   8  -8   0    0.20    3.80
   8  -8   0   -5.30    2.60
   8  -8   0   -4.30    4.10
  -8   8   0    3.40    3.30
  -8   8   0   -1.20    3.90
  -8   8   0   -3.60    3.30
   7  -8   0    4.30    2.70
   7  -8   0   -0.90    3.70
  -7   8   0    7.10    3.00
  -7   8   0    3.70    3.10
   6  -8   0   13.90    3.10
   6  -8   0   20.60    3.90
  -6   8   0   20.80    4.10
  -6   8   0   12.50    2.70
   5  -8   0    1.30    2.40
   5  -8   0    0.10    2.80
  -5   8   0   -0.80    5.70
  -5   8   0    2.90    2.00
   4  -8   0   40.20    4.40
   4  -8   0   39.10    4.80
  -4   8   0   40.50    4.40
  -4   8   0   40.30    5.20
  -4   8   0   38.10    4.20
   3  -8   0    6.80    2.40
   3  -8   0    0.80    2.70
  -3   8   0    3.90    2.50
  -3   8   0    0.00    2.10
  -3   8   0    3.80    2.70
  -3   8   0    1.40    2.00
   2  -8   0    1.10    2.00
   2  -8   0    1.90    2.60
  -2   8   0    1.10    2.20
  -2   8   0    2.20    2.30
  -2   8   0    0.50    2.20
  -2   8   0    2.20    2.40
   1  -8   0   15.20    3.60
   1  -8   0   11.80    2.10
  -1   8   0   13.50    2.50
  -1   8   0   15.30    2.30
  -1   8   0    6.80    2.80
  -1   8   0   12.10    2.90
   0  -8   0   71.89    7.00
   0  -8   0   52.49    5.50
   0  -8   0   64.49    6.40
   0   8   0   63.09    4.80
   0   8   0   58.19    5.80
  -1  -8   0    2.10    3.90
  -1  -8   0    2.00    3.80
  -1  -8   0    2.10    4.20
   1   8   0   -1.80    2.60
  -2  -8   0    1.40    5.00
  -2  -8   0   -6.60    7.30
  -2  -8   0    0.40    4.20
   2   8   0    6.20    4.60
   2   8   0    3.30    3.30
  -3  -8   0    0.20    6.80
  -3  -8   0    9.10    6.60
   3   8   0    1.40    3.70
  10  -9   0    2.10    5.90
 -10   9   0    7.60    6.40
   9  -9   0   -6.50    4.80
   9  -9   0   -8.00    5.20
  -9   9   0    1.00    5.40
  -9   9   0   -9.20    4.60
  -9   9   0   12.40    4.50
   8  -9   0    7.80    5.10
   8  -9   0   -1.40    3.70
  -8   9   0    5.40    4.50
  -8   9   0   -2.00    3.70
   7  -9   0    6.90    3.80
   7  -9   0    1.30    3.60
  -7   9   0    6.60    4.40
  -7   9   0    1.00    3.10
   6  -9   0    2.80    3.80
   6  -9   0    3.70    3.50
  -6   9   0    4.70    3.80
  -6   9   0    0.40    3.10
   5  -9   0    3.70    3.60
   5  -9   0    4.00    3.10
  -5   9   0    3.30    3.50
  -5   9   0    1.50    2.60
  -5   9   0    2.70    2.80
   4  -9   0   -0.30    3.20
  -4   9   0    4.80    3.50
  -4   9   0    4.90    2.70
  -4   9   0    4.90    2.80
   3  -9   0    1.00    3.30
   3  -9   0   -2.60    2.50
  -3   9   0   -2.90    2.40
  -3   9   0   -1.20    2.70
  -3   9   0    9.20    3.00
  -3   9   0    2.20    2.90
   2  -9   0    2.00    2.40
   2  -9   0   -0.20    3.20
  -2   9   0    2.50    2.80
  -2   9   0    3.70    3.30
  -2   9   0    1.20    2.60
  -2   9   0    0.80    2.40
   1  -9   0   28.20    5.00
   1  -9   0   27.10    4.10
  -1   9   0   30.60    4.50
  -1   9   0   26.30    3.50
   0  -9   0   27.10    5.60
   0  -9   0   23.70    4.20
   0  -9   0   26.20    5.40
   0   9   0   24.10    3.70
  -1  -9   0    2.90    5.00
  -1  -9   0    3.90    5.30
  -1  -9   0   10.30    5.90
   1   9   0    9.60    3.70
   1   9   0    8.90    4.90
  -2  -9   0   11.90   10.00
   2   9   0    1.60    3.70
   9 -10   0   -0.30    6.90
   9 -10   0    0.20    6.10
  -9  10   0   -0.70    5.80
  -9  10   0   -5.50    6.30
   8 -10   0    6.30    4.60
   8 -10   0   12.40    6.10
  -8  10   0    8.80    4.70
  -8  10   0   10.70    6.30
   7 -10   0   -1.60    4.60
   7 -10   0    4.80    4.30
  -7  10   0   -0.90    4.80
  -7  10   0    9.70    4.30
   6 -10   0   14.70    4.90
   6 -10   0   12.80    4.50
  -6  10   0   17.70    4.40
  -6  10   0    9.60    4.80
  -6  10   0    7.50    3.40
   5 -10   0    2.80    4.30
   5 -10   0    7.40    3.90
  -5  10   0    8.00    4.40
  -5  10   0    8.10    3.70
  -5  10   0    7.60    3.90
   4 -10   0   -0.50    3.10
   4 -10   0   -2.10    4.40
  -4  10   0    2.90    3.50
  -4  10   0   -0.60    3.30
  -4  10   0    2.30    6.30
   3 -10   0    3.20    3.10
   3 -10   0    6.70    4.20
  -3  10   0    6.70    4.30
  -3  10   0    7.60    3.70
  -3  10   0    0.90    3.70
  -3  10   0   11.60    3.20
   2 -10   0   51.19    5.40
   2 -10   0   41.10    6.20
   2 -10   0   43.10    5.00
  -2  10   0   42.10    5.30
  -2  10   0   44.90    5.30
  -2  10   0   51.69    5.70
   1 -10   0    6.10    5.60
   1 -10   0   19.80    6.90
  -1  10   0    0.80    4.70
  -1  10   0   13.10    3.90
   0 -10   0    6.00    6.10
   0  10   0   18.60    8.80
   0  10   0    5.60    3.70
   8 -11   0    7.20    7.20
  -8  11   0   10.10    7.00
   7 -11   0    1.20    5.70
   7 -11   0    0.30    6.20
  -7  11   0    6.10    5.60
  -7  11   0   -0.50    5.80
   6 -11   0    7.40    5.20
   6 -11   0    4.40    6.10
  -6  11   0   -0.90    4.80
  -6  11   0    4.30    5.40
   5 -11   0   12.90    5.80
   5 -11   0    9.10    5.10
  -5  11   0    9.30    4.80
  -5  11   0    4.60    5.00
   4 -11   0    3.60    5.80
   4 -11   0   12.00    4.60
  -4  11   0   10.80    4.90
  -4  11   0    0.60    4.70
   3 -11   0   -2.80    5.80
   3 -11   0    2.90    4.10
  -3  11   0    2.80    4.80
  -3  11   0    9.80    7.20
  -3  11   0    5.60    3.50
  -3  11   0   11.10    4.40
   2 -11   0   26.00    7.20
  -2  11   0   22.40    4.20
  -2  11   0   22.50    5.90
   5 -12   1  -13.30    5.30
   6 -12   1    0.90    6.20
  -1  11  -1   -0.30    3.90
  -1  11  -1    4.70    5.80
  -2  11  -1  -10.80    5.90
  -2  11  -1   -0.20    3.40
   2 -11   1    3.00    5.30
   2 -11   1    7.40    5.70
  -3  11  -1   -3.40    4.50
  -3  11  -1   -1.40    4.10
   3 -11   1    0.40    5.20
   3 -11   1    4.90    4.00
  -4  11  -1   21.50    4.70
  -4  11  -1   34.00    4.50
   4 -11   1   31.60    6.30
   4 -11   1   28.60    4.90
  -5  11  -1    8.40    4.10
  -5  11  -1    7.90    4.80
  -5  11  -1    0.40    4.20
   5 -11   1    9.20    5.10
   5 -11   1   -1.10    4.80
  -6  11  -1   -4.80    3.80
  -6  11  -1    1.60    4.30
  -6  11  -1   -1.80    5.30
   6 -11   1    2.30    5.40
   6 -11   1    2.60    5.10
  -7  11  -1   -0.50    6.20
  -7  11  -1   -5.10    4.10
   7 -11   1    3.30    5.80
   7 -11   1    3.80    5.50
  -8  11  -1   11.20    7.20
  -1 -10   1    3.70    7.00
   0  10  -1    1.30    5.00
   0  10  -1   -0.40    3.20
   0 -10   1    3.40    5.20
  -1  10  -1    3.50    3.40
   1 -10   1    4.70    4.80
  -2  10  -1    8.80    3.10
  -2  10  -1    3.60    3.30
  -2  10  -1    6.00    3.50
   2 -10   1    5.10    2.80
   2 -10   1   12.00    4.10
  -3  10  -1   -4.60    3.20
  -3  10  -1    5.40    2.90
  -3  10  -1    2.90    3.30
   3 -10   1    5.90    3.90
   3 -10   1    1.80    3.00
  -4  10  -1   13.70    3.40
  -4  10  -1   14.40    3.40
   4 -10   1   10.60    3.70
   4 -10   1   10.40    4.20
  -5  10  -1   66.39    6.30
  -5  10  -1   64.79    6.00
  -5  10  -1   66.99    7.70
   5 -10   1   63.29    7.60
   5 -10   1   62.49    6.70
  -6  10  -1    0.70    3.30
  -6  10  -1   -3.60    3.50
  -6  10  -1   -0.30    4.60
   6 -10   1    0.80    3.70
   6 -10   1   -2.40    3.90
  -7  10  -1   -1.90    4.70
  -7  10  -1   -1.20    3.70
   7 -10   1    1.40    4.50
   7 -10   1   10.30    4.80
  -8  10  -1    1.30    4.30
  -8  10  -1    3.80    4.80
  -8  10  -1   -4.30    5.30
   8 -10   1   -3.20    5.90
   8 -10   1    5.80    5.60
   8 -10   1   -2.20    4.40
  -9  10  -1   10.30    5.90
   9 -10   1   11.50    7.90
   9 -10   1   -5.90    6.20
   2   9  -1   13.40    4.00
   2   9  -1    7.20    5.70
  -2  -9   1    7.60    6.80
   1   9  -1   11.00    4.80
   1   9  -1   14.20    3.80
  -1  -9   1   11.10    5.60
  -1  -9   1   16.80    5.00
  -1  -9   1    2.30    4.30
   0   9  -1   63.19    6.80
   0   9  -1   44.20    5.00
   0  -9   1   40.30    5.30
   0  -9   1   44.10    5.10
   0  -9   1   51.79    5.70
  -1   9  -1   21.30    3.50
  -1   9  -1   24.10    3.60
  -1   9  -1   13.70    3.70
   1  -9   1   26.50    3.30
   1  -9   1   22.50    4.20
  -2   9  -1   10.30    2.60
  -2   9  -1    9.10    2.70
  -2   9  -1   12.00    3.90
   2  -9   1   10.30    2.70
   2  -9   1   11.20    3.70
  -3   9  -1    0.80    2.30
  -3   9  -1    1.30    2.80
  -3   9  -1   -2.40    2.40
   3  -9   1   -0.80    2.40
   3  -9   1    2.00    3.20
  -4   9  -1    4.10    2.30
  -4   9  -1    4.80    3.40
  -4   9  -1    9.10    2.70
   4  -9   1    3.90    3.10
  -5   9  -1   -3.60    2.40
  -5   9  -1   -0.80    2.50
  -5   9  -1    1.20    3.60
   5  -9   1   -1.20    3.20
   5  -9   1    3.00    3.10
  -6   9  -1    1.40    2.70
  -6   9  -1    0.10    3.70
   6  -9   1   -0.90    3.20
   6  -9   1   -1.80    2.90
  -7   9  -1   -2.80    4.00
  -7   9  -1   -0.50    2.80
   7  -9   1    0.10    3.60
   7  -9   1    8.20    3.70
  -8   9  -1    2.90    4.50
  -8   9  -1    5.90    3.70
  -8   9  -1    7.60    4.50
   8  -9   1    6.20    3.80
   8  -9   1   10.80    5.10
   8  -9   1    5.70    5.00
  -9   9  -1    1.20    5.00
  -9   9  -1  -10.00    5.50
  -9   9  -1    1.50    5.20
   9  -9   1    0.10    5.40
 -10   9  -1    5.90    6.70
   3   8  -1    3.50    3.10
   3   8  -1    6.10    5.10
  -3  -8   1   -0.90    5.90
  -3  -8   1    0.80    5.30
  -3  -8   1   -5.20    4.70
   2   8  -1   10.20    4.30
   2   8  -1    0.30    3.20
  -2  -8   1    0.00    4.90
  -2  -8   1   -8.20    3.30
  -2  -8   1    2.80    4.90
   1   8  -1   54.79    6.30
   1   8  -1   44.70    4.80
  -1  -8   1   43.40    5.30
  -1  -8   1   49.40    5.60
  -1  -8   1   45.90    5.10
   0   8  -1   51.89    4.50
   0   8  -1   47.30    5.30
   0  -8   1   45.00    5.90
   0  -8   1   60.49    5.70
  -1   8  -1    2.60    2.10
  -1   8  -1   -0.60    2.30
  -1   8  -1   -2.00    2.40
   1  -8   1   -0.90    1.60
   1  -8   1   -1.50    2.50
  -2   8  -1    9.90    2.30
  -2   8  -1   12.00    2.60
  -2   8  -1   12.30    2.60
  -2   8  -1   13.00    2.40
   2  -8   1    8.30    2.80
   2  -8   1    9.10    2.40
  -3   8  -1   47.50    4.70
  -3   8  -1   47.70    4.10
  -3   8  -1   47.60    3.80
   3  -8   1   44.70    4.10
   3  -8   1   45.80    4.80
  -4   8  -1    9.10    2.40
  -4   8  -1   11.40    3.10
  -4   8  -1    8.50    2.10
   4  -8   1   13.70    2.60
   4  -8   1   11.80    3.10
  -5   8  -1    1.10    5.30
  -5   8  -1   -1.60    1.90
   5  -8   1   -2.50    2.20
   5  -8   1    0.80    2.70
  -6   8  -1   -0.60    2.30
  -6   8  -1   -0.30    3.10
   6  -8   1    6.70    3.00
   6  -8   1   -2.90    2.30
  -7   8  -1    5.90    3.20
  -7   8  -1    7.00    2.60
  -7   8  -1    7.90    3.40
   7  -8   1    7.70    3.80
   7  -8   1    5.30    3.90
   7  -8   1    1.10    2.70
  -8   8  -1   15.60    4.20
  -8   8  -1   18.40    3.60
  -8   8  -1   13.20    4.30
   8  -8   1   16.70    3.50
   8  -8   1   11.20    4.50
  -9   8  -1    4.70    3.80
  -9   8  -1    3.40    4.50
  -9   8  -1    0.80    4.50
   9  -8   1    1.90    4.80
   9  -8   1    3.40    3.50
 -10   8  -1    0.70    6.00
  10  -8   1    1.80    5.30
   4   7  -1   10.50    5.40
   4   7  -1   18.80    3.30
  -4  -7   1   16.30    5.90
  -4  -7   1    7.40    4.90
  -4  -7   1    7.90    5.80
   3   7  -1   27.00    4.10
   3   7  -1   20.30    4.20
  -3  -7   1   26.10    5.10
  -3  -7   1   28.60    4.50
  -3  -7   1   35.40    5.70
   2   7  -1   32.20    4.30
   2   7  -1   34.50    3.90
  -2  -7   1   43.40    6.00
  -2  -7   1   34.60    4.50
  -2  -7   1   34.90    4.90
   1   7  -1   14.20    3.20
   1   7  -1   19.70    3.10
  -1  -7   1    9.80    3.00
  -1  -7   1   15.10    5.80
   0   7  -1    0.00    2.10
   0   7  -1    5.10    2.10
   0  -7   1   -1.10    2.40
   0  -7   1    1.00    2.20
  -1   7  -1    9.10    2.30
  -1   7  -1    7.50    2.00
  -1   7  -1   10.80    2.10
   1  -7   1   11.90    1.80
   1  -7   1   10.80    2.60
  -2   7  -1   24.00    3.10
  -2   7  -1   25.40    3.40
  -2   7  -1   30.20    2.90
   2  -7   1   23.30    3.00
   2  -7   1   21.40    2.90
  -3   7  -1   21.40    2.70
  -3   7  -1   17.20    2.70
  -3   7  -1   17.70    2.40
   3  -7   1   16.90    2.50
   3  -7   1   15.30    2.60
  -4   7  -1    8.60    3.20
  -4   7  -1   10.00    2.60
   4  -7   1   12.30    2.50
   4  -7   1   16.10    2.50
  -5   7  -1    1.30    1.70
  -5   7  -1    6.70    2.70
   5  -7   1    6.40    4.20
   5  -7   1    7.20    3.40
  -6   7  -1   19.90    2.80
  -6   7  -1   30.50    4.10
   6  -7   1   26.90    3.70
   6  -7   1   30.10    4.00
  -7   7  -1   17.00    3.70
  -7   7  -1   17.70    3.30
  -7   7  -1   20.40    2.70
   7  -7   1   21.00    3.90
   7  -7   1   10.40    3.50
   7  -7   1   17.40    3.00
  -8   7  -1   -1.40    2.70
  -8   7  -1    0.10    3.50
  -8   7  -1   -0.10    3.10
   8  -7   1    3.60    3.60
  -9   7  -1   11.00    4.90
  -9   7  -1    2.60    3.50
  -9   7  -1   14.10    4.30
   9  -7   1    2.40    3.30
   9  -7   1    1.00    3.90
 -10   7  -1    2.50    6.30
  10  -7   1   11.70    4.80
   5   6  -1    5.50    4.70
   5   6  -1    3.10    2.30
  -5  -6   1   -8.90    4.90
  -5  -6   1   -2.90    5.50
  -5  -6   1    0.20    4.40
   4   6  -1    2.10    2.30
   4   6  -1    5.60    4.10
  -4  -6   1    6.20    4.30
  -4  -6   1    8.50    3.70
  -4  -6   1    8.60    4.10
   3   6  -1   55.19    4.40
   3   6  -1   59.89    5.70
  -3  -6   1   63.49    6.20
  -3  -6   1   53.59    6.20
  -3  -6   1   52.79    5.60
   2   6  -1   52.49    4.00
   2   6  -1   54.39    4.70
  -2  -6   1   41.90    5.00
  -2  -6   1   56.29    7.60
  -2  -6   1   50.39    4.80
   1   6  -1   16.90    2.70
   1   6  -1   17.00    2.30
  -1  -6   1   12.20    2.80
   0   6  -1   38.70    3.10
   0   6  -1   30.50    2.90
   0   6  -1   27.70    3.40
   0  -6   1   34.80    2.00
   0  -6   1   39.00    3.70
   0  -6   1   31.20    3.80
  -1   6  -1   81.79    4.10
  -1   6  -1   84.09    3.90
  -1   6  -1   82.49    3.80
  -1   6  -1   86.19    4.20
   1  -6   1   83.19    3.60
   1  -6   1   83.19    4.70
  -2   6  -1   10.70    1.80
  -2   6  -1   10.70    1.70
  -2   6  -1   10.20    1.90
  -2   6  -1    9.70    1.70
   2  -6   1   11.70    2.30
   2  -6   1   11.10    1.90
  -3   6  -1    8.70    1.60
  -3   6  -1   14.90    1.80
  -3   6  -1   13.00    2.30
   3  -6   1   10.50    2.30
   3  -6   1   11.50    2.00
  -4   6  -1   11.40    2.40
  -4   6  -1   11.20    1.70
   4  -6   1   19.40    2.60
   4  -6   1   13.90    2.30
  -5   6  -1   22.40    2.80
  -5   6  -1   24.40    3.20
   5  -6   1   18.00    2.50
   5  -6   1   27.90    3.00
  -6   6  -1   14.40    2.40
  -6   6  -1   20.20    3.00
  -6   6  -1   18.30    3.00
   6  -6   1   22.40    3.00
   6  -6   1   18.40    3.00
   6  -6   1   16.10    5.20
  -7   6  -1   29.00    3.80
  -7   6  -1   42.70    5.20
  -7   6  -1   39.00    5.00
   7  -6   1   29.10    3.70
  -8   6  -1    7.90    3.30
  -8   6  -1   18.00    4.20
  -8   6  -1   13.90    2.80
   8  -6   1   12.10    3.50
  -9   6  -1   11.20    4.40
  -9   6  -1   -1.30    3.40
  -9   6  -1    0.20    4.60
   9  -6   1    1.10    3.50
   9  -6   1   -4.30    3.50
 -10   6  -1    4.50    5.90
  10  -6   1    2.70    3.90
   6   5  -1   11.00    2.80
  -6  -5   1    0.40    4.30
  -6  -5   1   -1.50    5.10
  -6  -5   1    0.40    6.30
   5   5  -1    2.60    3.90
   5   5  -1    0.70    2.20
  -5  -5   1   -0.10    4.30
  -5  -5   1    5.40    4.00
  -5  -5   1   -3.60    3.50
   4   5  -1    7.60    2.00
   4   5  -1    8.10    3.60
  -4  -5   1    8.20    3.30
  -4  -5   1    4.70    2.80
  -4  -5   1    6.70    3.60
   3   5  -1   14.80    2.40
   3   5  -1   16.60    3.00
  -3  -5   1   14.60    3.50
  -3  -5   1   16.30    3.00
  -3  -5   1   18.30    3.50
   2   5  -1    8.70    2.10
   2   5  -1    3.40    1.60
  -2  -5   1    1.30    2.20
  -2  -5   1    3.20    2.20
   1   5  -1   27.70    3.20
   1   5  -1   28.80    2.70
  -1  -5   1   24.60    3.20
  -1  -5   1   30.70    3.40
   0   5  -1  175.28    6.00
   0   5  -1  169.98    6.40
   0   5  -1  173.78    5.80
   0  -5   1  169.78    6.50
   0  -5   1  164.38    4.90
   0  -5   1  177.08    6.20
  -1   5  -1  153.48    5.10
  -1   5  -1  156.98    5.70
  -1   5  -1  153.38    5.10
  -1   5  -1  152.48    5.20
   1  -5   1  149.49    5.00
   1  -5   1  149.29    4.00
   1  -5   1  150.08    5.90
  -2   5  -1  304.77    8.50
  -2   5  -1  304.97    9.10
  -2   5  -1  317.07    8.70
  -2   5  -1  295.97    9.20
   2  -5   1  308.37    9.40
   2  -5   1  295.57    8.90
  -3   5  -1 1158.28   30.20
  -3   5  -1 1199.88   30.30
   3  -5   1 1189.28   30.30
   3  -5   1 1196.58   30.30
  -4   5  -1  163.08    6.40
  -4   5  -1  153.48    6.00
   4  -5   1  164.58    6.40
   4  -5   1  160.18    6.20
  -5   5  -1  222.68    7.80
  -5   5  -1  228.98    7.90
  -5   5  -1  230.08    8.60
   5  -5   1  240.08    8.40
   5  -5   1  228.08    8.20
   5  -5   1  229.28    7.90
  -6   5  -1   10.80    2.40
  -6   5  -1   11.80    2.70
   6  -5   1    8.20    2.40
   6  -5   1    9.20    1.80
  -7   5  -1    4.20    2.70
  -7   5  -1    0.90    2.00
  -7   5  -1    1.50    2.50
   7  -5   1    4.10    1.80
   7  -5   1   -1.50    2.30
  -8   5  -1   49.00    4.70
  -8   5  -1   58.59    6.30
  -8   5  -1   41.70    5.10
   8  -5   1   40.00    4.80
  -9   5  -1    8.80    3.40
  -9   5  -1   -1.20    4.30
   9  -5   1   -1.80    4.10
   9  -5   1    3.80    3.10
 -10   5  -1   16.40    6.60
  10  -5   1   13.80    3.40
  10  -5   1   15.60    5.60
   7   4  -1   -0.20    4.10
  -7  -4   1   -5.80    4.90
   6   4  -1   20.80    2.80
   6   4  -1   34.00    4.40
  -6  -4   1   26.00    5.30
  -6  -4   1   26.30    4.50
   5   4  -1   40.50    4.00
  -5  -4   1   38.70    5.20
  -5  -4   1   48.50    6.40
   4   4  -1    7.20    2.10
   4   4  -1    8.90    2.60
  -4  -4   1    6.00    2.50
  -4  -4   1   10.10    3.10
  -4  -4   1    4.40    2.40
   3   4  -1    8.00    2.10
   3   4  -1    9.80    1.90
  -3  -4   1    6.00    2.00
  -3  -4   1   10.20    2.40
  -3  -4   1    7.70    2.50
   2   4  -1   13.20    2.00
   2   4  -1   13.30    1.80
  -2  -4   1   12.50    2.20
  -2  -4   1   18.20    2.70
   1   4  -1  488.45   13.30
   1   4  -1  474.65   13.10
  -1  -4   1  488.35   13.80
  -1  -4   1  481.45   13.40
   0   4  -1  299.37    8.90
   0   4  -1  300.77    8.40
   0   4  -1  291.97    8.30
   0  -4   1  279.37    7.60
   0  -4   1  284.37    8.90
   0  -4   1  294.77    8.50
  -1   4  -1   94.69    3.60
  -1   4  -1  103.59    4.20
  -1   4  -1  105.89    3.80
  -1   4  -1  104.29    3.70
   1  -4   1  101.99    3.70
  -2   4  -1  225.88    6.90
  -2   4  -1  213.18    6.90
   2  -4   1  215.08    7.00
   2  -4   1  212.58    6.70
  -3   4  -1   13.20    1.70
  -3   4  -1   16.90    2.20
   3  -4   1   15.80    1.90
   3  -4   1   14.60    2.00
  -4   4  -1    5.00    1.60
  -4   4  -1    2.40    1.50
  -4   4  -1    6.00    1.80
   4  -4   1    3.60    1.70
   4  -4   1    5.50    1.60
   4  -4   1    5.40    2.00
  -5   4  -1  222.78    7.60
  -5   4  -1  226.68    8.10
  -5   4  -1  218.68    7.70
   5  -4   1  224.88    7.40
   5  -4   1  223.98    7.90
  -6   4  -1   15.70    3.00
  -6   4  -1   16.30    2.70
   6  -4   1   16.50    2.50
   6  -4   1   19.80    2.70
  -7   4  -1   31.30    4.00
  -7   4  -1   29.70    3.40
  -7   4  -1   31.50    4.00
   7  -4   1   25.30    3.30
   7  -4   1   32.30    4.00
  -8   4  -1   -1.40    3.50
  -8   4  -1    4.40    2.50
   8  -4   1    1.20    2.60
   8  -4   1    0.00    3.20
  -9   4  -1   -3.00    3.20
  -9   4  -1   -9.40    4.20
   9  -4   1   -1.70    4.10
   9  -4   1    3.30    2.90
 -10   4  -1    2.40    6.50
  10  -4   1    4.40    5.40
   7   3  -1    4.50    2.50
   7   3  -1   13.50    3.80
   7   3  -1    8.90    2.60
  -7  -3   1    5.80    3.80
  -7  -3   1   15.90    4.60
   6   3  -1   12.80    2.90
   6   3  -1   13.90    2.10
   6   3  -1    7.00    3.00
  -6  -3   1   11.10    3.40
  -6  -3   1   16.60    4.00
   5   3  -1   85.79    4.70
   5   3  -1   77.89    3.40
   5   3  -1   71.09    5.00
  -5  -3   1   86.59    5.90
  -5  -3   1   82.59    5.20
   4   3  -1   -1.90    0.90
   4   3  -1    0.30    1.60
   4   3  -1    0.00    2.70
  -4  -3   1    4.30    2.30
  -4  -3   1   -2.40    1.80
   3   3  -1   38.80    3.10
   3   3  -1   39.00    2.80
  -3  -3   1   40.60    3.60
  -3  -3   1   41.20    3.30
   2   3  -1  370.06   10.40
   2   3  -1  365.76   10.70
  -2  -3   1  360.46   10.90
  -2  -3   1  375.26   10.90
   1   3  -1    1.80    1.20
   1   3  -1    2.20    1.00
  -1  -3   1    3.70    1.60
  -1  -3   1    3.10    1.40
   0   3  -1   98.39    3.40
   0   3  -1   95.89    4.00
   0   3  -1   95.99    3.50
   0  -3   1   90.79    2.90
   0  -3   1  101.09    4.00
   0  -3   1   97.89    3.50
  -1   3  -1 8241.98  195.68
  -1   3  -1 8092.79  197.08
  -1   3  -1 8228.48  193.38
  -1   3  -1 8187.98  194.68
  -1   3  -1 8204.28  197.78
   1  -3   1 7670.53  196.78
   1  -3   1 8469.05  198.18
  -2   3  -1  371.36   10.40
  -2   3  -1  370.56   10.30
   2  -3   1  363.86   10.30
   2  -3   1  383.16   10.40
  -3   3  -1  226.88    7.20
  -3   3  -1  236.68    6.90
  -3   3  -1  235.68    7.50
   3  -3   1  239.58    7.10
   3  -3   1  226.88    7.30
   3  -3   1  227.48    7.40
  -4   3  -1  123.29    5.10
  -4   3  -1  129.69    4.90
  -4   3  -1  128.29    5.40
   4  -3   1  132.89    4.90
   4  -3   1  124.79    5.20
  -5   3  -1    1.70    1.40
  -5   3  -1   -2.40    1.50
  -5   3  -1    0.40    1.60
   5  -3   1    1.40    1.60
   5  -3   1    0.80    1.30
  -6   3  -1  104.79    5.70
  -6   3  -1  116.29    5.80
  -6   3  -1   91.79    7.00
   6  -3   1  105.29    4.80
   6  -3   1  104.29    5.20
  -7   3  -1    2.40    2.80
  -7   3  -1    4.70    2.10
   7  -3   1    6.20    2.70
   7  -3   1    3.70    2.30
  -8   3  -1    9.50    3.80
   8  -3   1   10.20    2.80
   8  -3   1   12.70    3.60
  -9   3  -1    7.80    3.60
  -9   3  -1    3.50    4.60
   9  -3   1    5.50    3.00
   9  -3   1    5.30    4.80
 -10   3  -1    9.70    9.60
  10  -3   1    6.50    6.00
   8   2  -1   -2.30    2.70
   8   2  -1    1.10    3.30
  -8  -2   1    4.00    3.80
  -8  -2   1    5.70    4.70
   7   2  -1    0.50    2.00
   7   2  -1   -0.80    2.50
   7   2  -1   -0.60    2.90
  -7  -2   1   14.40    3.90
  -7  -2   1    0.90    3.20
   6   2  -1   19.20    2.50
   6   2  -1   17.80    2.60
  -6  -2   1   20.80    2.90
  -6  -2   1   19.10    3.20
   5   2  -1    7.90    1.80
   5   2  -1    7.00    1.60
   5   2  -1    6.90    1.80
  -5  -2   1    4.70    2.00
  -5  -2   1    6.10    2.80
   4   2  -1   38.40    2.80
   4   2  -1   37.10    3.10
   4   2  -1   39.00    2.40
  -4  -2   1   37.00    3.00
  -4  -2   1   33.60    3.50
   3   2  -1  648.54   17.30
   3   2  -1  648.24   16.30
   3   2  -1  659.83   17.70
  -3  -2   1  661.83   17.20
  -3  -2   1  661.93   17.70
   2   2  -1  424.56   12.00
   2   2  -1  451.85   11.90
   2   2  -1  445.26   10.90
  -2  -2   1  453.85   10.90
  -2  -2   1  433.76   12.10
   1   2  -1  506.35   13.50
   1   2  -1  526.95   13.50
  -1  -2   1  540.15   13.60
  -1  -2   1  539.55   13.90
   0   2  -1  744.33   18.70
   0   2  -1  800.62   18.90
   0   2  -1  780.42   18.60
   0   2  -1  752.42   19.20
   0  -2   1  781.52   18.80
   0  -2   1  809.42   19.30
   0  -2   1  760.02   18.60
   0  -2   1  727.73   18.70
  -1   2  -1  743.43   17.90
  -1   2  -1  700.53   17.90
   1  -2   1  704.43   17.90
   1  -2   1  723.43   17.90
  -2   2  -1  389.76   10.00
  -2   2  -1  376.36   10.40
   2  -2   1  371.06   10.60
   2  -2   1  411.46   10.60
   2  -2   1  396.86   10.40
  -3   2  -1  512.15   13.70
  -3   2  -1  478.25   12.90
  -3   2  -1  509.15   13.10
  -3   2  -1  489.95   13.40
   3  -2   1  522.85   13.10
   3  -2   1  474.35   13.50
   3  -2   1  493.35   13.10
  -4   2  -1   98.29    4.50
  -4   2  -1   96.09    4.60
  -4   2  -1   96.39    3.80
  -4   2  -1  100.89    4.50
   4  -2   1   92.39    4.10
   4  -2   1   96.99    4.00
   4  -2   1   95.89    4.50
  -5   2  -1   83.89    3.70
  -5   2  -1   89.49    4.80
  -5   2  -1   86.69    4.60
  -5   2  -1   88.69    4.40
   5  -2   1   79.19    3.90
   5  -2   1   87.39    4.40
   5  -2   1   78.19    4.20
  -6   2  -1    2.70    1.50
  -6   2  -1    3.20    1.70
  -6   2  -1    3.60    2.50
   6  -2   1    4.00    2.10
   6  -2   1    4.00    2.00
   6  -2   1    3.50    2.00
  -7   2  -1    4.70    1.90
  -7   2  -1   -0.90    2.70
   7  -2   1    0.90    2.60
   7  -2   1    4.50    2.30
   7  -2   1    0.80    2.30
  -8   2  -1   23.10    4.40
  -8   2  -1   20.50    2.80
   8  -2   1   29.50    4.10
   8  -2   1   24.90    3.40
   8  -2   1   20.60    4.10
  -9   2  -1    7.00    5.10
  -9   2  -1    8.40    4.20
   9  -2   1   -4.60    4.30
   9   1  -1   -2.20    4.40
   9   1  -1   -4.90    4.20
   8   1  -1    3.20    3.40
   8   1  -1    6.40    3.70
   8   1  -1    8.90    2.80
  -8  -1   1   11.90    2.90
  -8  -1   1   10.60    3.90
   7   1  -1   48.40    4.60
   7   1  -1   43.90    4.00
  -7  -1   1   44.00    4.00
  -7  -1   1   30.60    4.20
   6   1  -1   52.79    3.80
   6   1  -1   53.29    5.70
   6   1  -1   51.39    4.10
  -6  -1   1   61.49    4.90
  -6  -1   1   53.69    3.70
   5   1  -1    6.20    1.70
   5   1  -1    5.60    1.70
  -5  -1   1    4.70    2.00
  -5  -1   1    6.10    1.90
  -5  -1   1    3.60    1.50
   4   1  -1   20.40    2.20
   4   1  -1   19.30    2.40
  -4  -1   1   22.50    2.10
  -4  -1   1   23.90    2.50
  -4  -1   1   26.10    2.90
   3   1  -1  142.49    4.50
   3   1  -1  142.49    5.20
   3   1  -1  141.69    4.80
  -3  -1   1  142.59    5.40
  -3  -1   1  139.29    4.60
  -3  -1   1  148.69    4.60
   2   1  -1  112.19    4.20
   2   1  -1  122.79    4.00
   2   1  -1  115.39    3.60
  -2  -1   1  120.49    4.40
  -2  -1   1  115.89    3.60
   1   1  -1 1295.17   30.40
   1   1  -1 1200.78   30.40
   1   1  -1 1227.78   30.10
  -1  -1   1 1302.17   30.10
  -1  -1   1 1265.47   30.50
   0   1  -1   20.40    1.30
   0   1  -1   20.70    0.80
   0  -1   1   22.80    0.80
   0  -1   1   24.00    1.30
   0  -1   1   20.40    0.90
  -1   1  -1  156.08    4.10
  -1   1  -1  147.59    4.40
  -1   1  -1  145.79    4.50
   1  -1   1  145.09    4.10
   1  -1   1  163.08    4.50
   1  -1   1  156.68    4.60
  -2   1  -1  176.88    5.30
  -2   1  -1  184.88    5.50
   2  -1   1  180.28    5.40
   2  -1   1  179.88    5.40
   2  -1   1  181.68    5.60
  -3   1  -1    1.50    1.40
  -3   1  -1    2.10    1.10
   3  -1   1    2.40    1.30
   3  -1   1    0.80    1.20
   3  -1   1    2.30    1.10
  -4   1  -1  246.68    7.50
  -4   1  -1  265.47    8.30
   4  -1   1  254.97    7.60
   4  -1   1  248.08    8.00
   4  -1   1  258.87    8.20
  -5   1  -1   58.39    3.40
  -5   1  -1   62.09    4.30
   5  -1   1   53.99    3.60
   5  -1   1   57.99    3.90
   5  -1   1   55.69    3.50
  -6   1  -1    0.10    1.70
   6  -1   1    1.90    2.10
   6  -1   1   -1.40    1.80
   6  -1   1    1.40    2.00
  -7   1  -1   -3.70    2.10
  -7   1  -1    1.90    2.70
   7  -1   1   -0.10    2.70
   7  -1   1   -0.40    2.40
   7  -1   1    2.50    3.40
  -8   1  -1    3.30    2.80
  -8   1  -1    1.30    3.90
   8  -1   1    6.20    3.60
   8  -1   1    2.60    3.70
  -9   1  -1   17.60    3.70
  -9   1  -1    7.70    5.30
   9   0  -1   -7.20    4.20
   9   0  -1   -3.80    2.60
  -9   0   1   -0.30    4.40
   8   0  -1   -1.00    2.20
   8   0  -1    0.00    3.20
   8   0  -1    2.00    2.90
  -8   0   1   -3.50    3.10
  -8   0   1    0.30    1.80
   7   0  -1   -2.00    2.30
  -7   0   1    1.40    2.60
  -7   0   1    3.80    3.00
  -7   0   1    2.70    1.50
   6   0  -1   42.80    3.60
   6   0  -1   35.60    3.60
  -6   0   1   33.10    2.50
  -6   0   1   29.10    3.30
  -6   0   1   23.90    4.10
   5   0  -1  262.27    8.60
   5   0  -1  246.68    8.00
  -5   0   1  260.97    8.30
  -5   0   1  249.18    8.70
  -5   0   1  240.38    7.00
   4   0  -1   29.60    2.60
   4   0  -1   26.10    2.40
  -4   0   1   23.70    1.60
  -4   0   1   21.90    2.90
  -4   0   1   22.10    2.60
   3   0  -1    1.70    1.00
   3   0  -1    0.80    1.30
  -3   0   1    1.50    1.20
  -3   0   1    1.60    0.70
  -3   0   1    1.90    1.30
   2   0  -1    3.00    1.00
   2   0  -1    2.40    1.20
  -2   0   1    1.30    1.20
  -2   0   1    3.20    1.10
   1   0  -1 1124.49   28.40
   1   0  -1 1172.48   28.10
  -1   0   1 1180.88   28.40
  -1   0   1 1239.18   28.20
  -1   0  -1  518.25   13.40
  -1   0  -1  547.25   13.40
   1   0   1  542.35   13.50
   1   0   1  518.35   13.40
  -2   0  -1  136.19    4.70
  -2   0  -1  124.69    4.40
   2   0   1  130.79    4.40
   2   0   1  138.39    4.60
   2   0   1  131.19    4.60
  -3   0  -1  412.76   11.50
  -3   0  -1  422.26   11.90
   3   0   1  435.06   11.60
   3   0   1  421.46   11.50
   3   0   1  426.56   11.90
  -4   0  -1   11.30    1.80
   4   0   1   12.50    2.00
   4   0   1   11.20    1.80
   4   0   1   13.00    1.90
  -5   0  -1   15.90    2.80
  -5   0  -1   21.00    3.00
   5   0   1   27.90    2.80
   5   0   1   26.10    3.20
   5   0   1   23.80    2.90
  -6   0  -1    6.70    2.40
  -6   0  -1    4.30    2.60
   6   0   1    8.00    2.80
   6   0   1    6.20    2.30
   6   0   1    5.40    1.90
  -7   0  -1   69.59    5.20
  -7   0  -1   71.79    6.10
   7   0   1   72.09    5.50
   7   0   1   67.69    5.70
  -8   0  -1    1.10    3.20
  -8   0  -1    6.50    3.80
   8   0   1    5.90    3.60
   8   0   1   -4.90    3.70
   9  -1  -1   23.00    3.50
   9  -1  -1   17.90    4.40
  -9   1   1   14.10    4.50
   8  -1  -1    9.40    3.40
  -8   1   1    9.40    4.60
  -8   1   1   12.10    3.60
   7  -1  -1   -3.50    2.10
  -7   1   1    2.90    2.80
  -7   1   1   -3.80    2.50
   6  -1  -1    4.30    1.90
  -6   1   1    1.30    2.20
  -6   1   1    3.30    2.00
   5  -1  -1   -0.30    1.40
  -5   1   1    0.20    1.40
  -5   1   1    1.00    1.70
   4  -1  -1  102.99    4.30
  -4   1   1  106.29    4.60
  -4   1   1  108.59    4.60
   3  -1  -1  214.78    6.70
  -3   1   1  225.68    6.90
  -3   1   1  222.08    6.90
   2  -1  -1  426.76   10.60
   2  -1  -1  435.06   10.90
   2  -1  -1  430.26   11.30
  -2   1   1  450.85   11.40
  -2   1   1  423.46   11.10
   1  -1  -1   -1.00    0.90
   1  -1  -1   -2.50    0.60
   1  -1  -1   -2.00    0.70
   1  -1  -1   -2.80    1.00
  -1   1   1   -4.10    0.90
  -1   1   1   -2.10    0.60
  -1   1   1   -3.80    0.90
  -1   1   1   -3.70    0.60
   0  -1  -1 1275.27   32.40
   0  -1  -1 1377.26   32.30
   0   1   1 1387.26   32.50
   0   1   1 1296.27   32.30
  -1  -1  -1   30.70    2.50
  -1  -1  -1   32.80    2.40
   1   1   1   35.10    2.70
   1   1   1   33.70    2.50
  -2  -1  -1    8.90    1.60
  -2  -1  -1    9.50    1.80
   2   1   1   10.20    1.70
   2   1   1   10.60    1.90
  -3  -1  -1  376.66   11.10
  -3  -1  -1  368.46   10.70
   3   1   1  363.06   10.30
   3   1   1  376.66   10.80
   3   1   1  374.06   11.00
  -4  -1  -1   47.90    3.50
  -4  -1  -1   53.79    4.00
   4   1   1   47.70    4.00
   4   1   1   51.89    3.30
   4   1   1   45.40    3.40
  -5  -1  -1   11.20    2.60
  -5  -1  -1    6.60    2.40
   5   1   1    6.80    1.90
   5   1   1    9.00    2.10
  -6  -1  -1   42.20    5.10
  -6  -1  -1   47.50    4.80
   6   1   1   47.90    4.30
   6   1   1   43.30    4.50
  -7  -1  -1   18.10    3.50
  -7  -1  -1   18.90    3.80
   7   1   1   15.80    3.60
   7   1   1   10.20    3.40
  -8  -1  -1   15.90    4.20
  -8  -1  -1    6.80    4.70
   8   1   1    9.30    4.20
  10  -2  -1    1.80    5.10
  10  -2  -1    5.30    3.40
   9  -2  -1   -1.30    4.30
  -9   2   1    6.00    3.40
  -9   2   1   -7.10    3.40
  -9   2   1    3.80    4.50
   8  -2  -1    3.60    2.90
  -8   2   1   -1.90    2.50
  -8   2   1   -1.50    2.70
  -8   2   1    0.80    3.50
   7  -2  -1   -1.70    2.10
  -7   2   1    0.30    2.50
  -7   2   1   -3.50    2.20
   6  -2  -1   10.00    2.30
  -6   2   1   13.40    2.80
  -6   2   1   19.30    2.80
   5  -2  -1  100.19    4.70
  -5   2   1  101.49    4.50
  -5   2   1  104.19    5.00
  -5   2   1  100.39    4.80
   4  -2  -1   53.79    2.00
   4  -2  -1   48.50    3.10
  -4   2   1   50.69    3.30
  -4   2   1   47.70    3.00
  -4   2   1   49.40    3.40
   3  -2  -1    4.80    1.30
  -3   2   1    5.40    1.30
  -3   2   1    7.10    1.70
   2  -2  -1 2362.86   55.09
   2  -2  -1 2205.38   55.79
   2  -2  -1 2377.66   55.49
  -2   2   1 2326.07   55.89
  -2   2   1 2276.07   55.49
   1  -2  -1  495.65   12.50
   1  -2  -1  472.45   12.60
   1  -2  -1  489.55   12.80
  -1   2   1  504.65   12.60
  -1   2   1  477.85   12.40
  -1   2   1  508.35   12.00
   0  -2  -1    0.30    1.10
   0  -2  -1    0.80    1.30
   0  -2  -1    0.00    1.30
   0   2   1    0.10    0.90
   0   2   1   -1.10    1.10
  -1  -2  -1   24.90    2.50
  -1  -2  -1   26.30    2.60
   1   2   1   23.40    2.40
  -2  -2  -1   16.60    2.40
  -2  -2  -1   16.30    2.30
   2   2   1   19.70    2.30
  -3  -2  -1   90.89    4.90
  -3  -2  -1   86.79    4.40
   3   2   1   86.39    3.60
   3   2   1   88.79    4.40
  -4  -2  -1   22.00    2.90
  -4  -2  -1   22.40    2.90
   4   2   1   23.90    2.90
   4   2   1   19.80    2.20
  -5  -2  -1   42.90    4.60
  -5  -2  -1   51.39    5.20
   5   2   1   58.49    3.80
  -6  -2  -1   12.80    3.50
  -6  -2  -1    9.90    3.60
   6   2   1   12.90    2.70
  -7  -2  -1    6.20    3.90
  -7  -2  -1    4.30    4.20
   7   2   1    6.70    3.30
   7   2   1    5.40    3.60
  10  -3  -1    2.30    5.30
 -10   3   1    6.20    5.80
 -10   3   1   13.70    6.10
  -9   3   1   16.70    4.00
  -9   3   1   14.20    5.10
  -9   3   1    9.40    4.10
   8  -3  -1   -0.40    2.70
  -8   3   1   -3.80    3.00
  -8   3   1    2.60    2.90
  -8   3   1    1.50    2.70
   7  -3  -1    2.80    2.10
  -7   3   1    2.60    2.60
  -7   3   1    5.00    2.90
  -7   3   1    1.10    2.00
   6  -3  -1    5.00    1.70
  -6   3   1    3.50    2.10
  -6   3   1    4.10    1.70
  -6   3   1    7.50    2.20
   5  -3  -1  169.58    4.90
   5  -3  -1  156.98    6.20
  -5   3   1  163.38    6.00
  -5   3   1  157.38    6.50
  -5   3   1  163.38    6.30
   4  -3  -1    0.20    1.40
   4  -3  -1    3.30    1.30
  -4   3   1    1.00    1.10
  -4   3   1    1.70    1.70
   3  -3  -1   -1.00    1.20
   3  -3  -1   -0.80    1.10
  -3   3   1   -0.40    1.10
  -3   3   1   -0.60    1.30
   2  -3  -1  273.97    8.30
   2  -3  -1  293.47    8.20
   2  -3  -1  294.37    7.30
  -2   3   1  294.37    8.40
  -2   3   1  278.07    8.00
   1  -3  -1   73.09    3.80
   1  -3  -1   76.39    3.20
   1  -3  -1   76.09    3.40
  -1   3   1   73.89    3.20
  -1   3   1   77.59    3.20
  -1   3   1   75.09    2.60
  -1   3   1   77.19    3.50
   0  -3  -1    2.80    1.40
   0  -3  -1    2.00    1.30
   0  -3  -1    2.10    1.50
   0   3   1    2.40    1.30
   0   3   1    2.00    1.00
   0   3   1    2.70    1.00
  -1  -3  -1  166.08    6.00
  -1  -3  -1  166.28    6.00
  -1  -3  -1  161.18    6.00
   1   3   1  161.98    5.90
   1   3   1  170.78    4.90
  -2  -3  -1   -1.90    1.40
  -2  -3  -1    3.30    1.60
   2   3   1    1.40    1.40
  -3  -3  -1   10.10    2.20
  -3  -3  -1    6.70    2.10
   3   3   1    6.60    1.30
   3   3   1    8.70    1.60
  -4  -3  -1  182.88    7.90
  -4  -3  -1  189.48    8.00
   4   3   1  190.08    7.40
   4   3   1  182.98    6.00
  -5  -3  -1   24.80    4.10
  -5  -3  -1   20.00    3.90
   5   3   1   19.60    2.40
  -6  -3  -1   -1.60    3.20
  -6  -3  -1    2.30    4.00
   6   3   1    1.60    2.00
   6   3   1    4.50    3.10
   6   3   1    2.00    2.50
  -7  -3  -1   -4.30    5.00
   7   3   1    7.30    4.80
   7   3   1   -0.80    3.80
  10  -4  -1   -9.90    4.70
 -10   4   1    6.00    4.60
 -10   4   1    2.50    5.60
 -10   4   1   -7.00    5.10
   9  -4  -1    3.60    4.40
  -9   4   1    4.50    4.00
  -9   4   1    8.60    3.30
  -9   4   1    8.90    5.20
   8  -4  -1    2.00    2.40
  -8   4   1    6.60    2.80
  -8   4   1    3.70    3.20
  -8   4   1    5.20    3.20
   7  -4  -1   24.90    3.30
   7  -4  -1   19.90    2.40
  -7   4   1   21.60    3.70
  -7   4   1   16.80    2.70
  -7   4   1   18.20    4.00
   6  -4  -1   23.40    2.60
   6  -4  -1   31.50    3.00
  -6   4   1   23.80    3.10
  -6   4   1   23.90    3.10
  -6   4   1   29.60    3.70
   5  -4  -1    5.00    1.30
   5  -4  -1    0.80    1.70
  -5   4   1    5.40    1.80
  -5   4   1    5.40    1.50
   4  -4  -1  322.87    9.50
   4  -4  -1  308.37    9.70
  -4   4   1  307.97    9.30
  -4   4   1  318.47    9.90
   3  -4  -1    0.20    1.20
   3  -4  -1    0.50    1.40
  -3   4   1    0.20    1.10
  -3   4   1    0.10    1.50
   2  -4  -1   45.30    1.70
   2  -4  -1   48.30    2.90
   2  -4  -1   45.20    3.00
  -2   4   1   50.39    3.20
  -2   4   1   46.20    2.80
  -2   4   1   44.70    2.70
  -2   4   1   45.10    2.00
   1  -4  -1   25.40    2.20
   1  -4  -1   21.50    2.70
   1  -4  -1   25.10    2.70
  -1   4   1   28.20    1.90
  -1   4   1   25.00    2.50
  -1   4   1   22.70    2.30
  -1   4   1   24.90    2.30
   0  -4  -1    6.60    1.50
   0  -4  -1    3.10    1.70
   0  -4  -1    3.50    1.50
   0   4   1    1.40    1.30
   0   4   1    4.30    1.20
   0   4   1    4.70    1.30
  -1  -4  -1   12.10    2.00
  -1  -4  -1   17.20    2.60
  -1  -4  -1   18.80    2.60
   1   4   1   15.80    1.80
   1   4   1   16.80    2.00
   1   4   1   15.30    2.00
  -2  -4  -1    3.90    1.90
  -2  -4  -1    3.20    1.80
  -2  -4  -1    3.20    2.30
   2   4   1    6.90    1.80
   2   4   1    3.10    1.20
   2   4   1    3.30    1.70
  -3  -4  -1   30.90    4.20
  -3  -4  -1   34.70    4.20
  -3  -4  -1   34.20    3.90
   3   4   1   21.30    2.60
   3   4   1   27.40    2.30
   3   4   1   29.50    2.40
   3   4   1   35.00    3.60
  -4  -4  -1   25.50    3.70
  -4  -4  -1   39.80    4.50
   4   4   1   31.30    3.40
   4   4   1   40.20    2.60
  -5  -4  -1    5.70    3.70
  -5  -4  -1    4.60    3.90
   5   4   1    3.20    2.40
   5   4   1    1.10    3.20
   5   4   1    4.90    1.70
  -6  -4  -1    1.80    4.50
  -6  -4  -1    1.90    4.80
   6   4   1    2.00    2.60
  10  -5  -1   -4.90    4.40
 -10   5   1    8.20    5.70
 -10   5   1   -1.00    5.40
 -10   5   1    4.20    4.80
   9  -5  -1    5.60    3.40
  -9   5   1    8.80    3.70
  -9   5   1    4.20    4.10
  -9   5   1    8.20    4.10
   8  -5  -1   -2.10    2.40
   8  -5  -1    2.60    1.90
  -8   5   1   -0.90    3.10
  -8   5   1    5.80    3.20
  -8   5   1    1.40    2.70
   7  -5  -1    3.50    2.00
   7  -5  -1   -0.40    1.60
  -7   5   1    3.70    2.90
  -7   5   1    2.30    2.10
  -7   5   1    0.50    2.30
   6  -5  -1    6.10    2.70
  -6   5   1    5.70    2.00
  -6   5   1    6.40    2.40
   5  -5  -1   37.50    3.70
   5  -5  -1   41.70    3.20
  -5   5   1   43.20    3.20
  -5   5   1   38.50    3.60
   4  -5  -1   20.00    2.60
   4  -5  -1   28.30    3.30
  -4   5   1   21.00    2.60
  -4   5   1   24.80    3.30
   3  -5  -1  122.89    5.20
   3  -5  -1  116.49    5.00
  -3   5   1  135.19    5.50
  -3   5   1  121.19    4.90
   2  -5  -1   37.10    1.60
   2  -5  -1   39.10    3.10
   2  -5  -1   39.80    2.90
  -2   5   1   40.70    3.10
  -2   5   1   38.50    2.20
  -2   5   1   35.70    3.10
  -2   5   1   36.00    2.80
   1  -5  -1   77.59    4.40
   1  -5  -1   81.79    3.60
   1  -5  -1   84.19    4.30
  -1   5   1   83.09    3.80
  -1   5   1   77.79    3.50
  -1   5   1   79.39    4.10
  -1   5   1   79.89    4.10
   0  -5  -1  192.28    7.10
   0  -5  -1  180.98    7.00
   0  -5  -1  180.58    7.10
   0   5   1  183.78    5.80
   0   5   1  184.68    6.20
   0   5   1  191.28    6.90
  -1  -5  -1   52.39    4.40
  -1  -5  -1   50.99    4.00
  -1  -5  -1   55.59    4.50
   1   5   1   52.89    4.10
   1   5   1   55.89    2.60
   1   5   1   51.09    3.60
  -2  -5  -1    7.70    2.70
  -2  -5  -1    6.70    2.80
  -2  -5  -1    4.60    2.40
   2   5   1    7.40    2.00
   2   5   1    6.30    2.00
  -3  -5  -1   29.40    3.90
  -3  -5  -1   27.10    4.30
  -3  -5  -1   31.10    4.20
   3   5   1   32.40    3.80
   3   5   1   30.40    4.10
  -4  -5  -1   39.70    5.10
  -4  -5  -1   49.20    6.20
  -4  -5  -1   46.40    5.80
   4   5   1   42.30    4.50
   4   5   1   44.70    5.80
  -5  -5  -1   -0.10    5.10
  -5  -5  -1   -1.20    4.50
  -5  -5  -1    2.80    4.20
   5   5   1   -1.40    4.00
   5   5   1    8.80    2.80
  10  -6  -1   -7.90    4.50
 -10   6   1    3.10    5.10
 -10   6   1    1.90    5.20
 -10   6   1    4.50    4.90
   9  -6  -1   22.60    2.90
   9  -6  -1   26.20    3.80
  -9   6   1   37.40    4.80
  -9   6   1   23.70    4.30
  -9   6   1   26.20    4.90
   8  -6  -1   14.90    3.00
  -8   6   1   14.00    3.20
  -8   6   1   15.50    3.50
  -8   6   1   14.00    3.80
  -7   6   1    2.60    2.50
  -7   6   1    6.90    2.50
   6  -6  -1   25.70    3.30
   6  -6  -1   18.80    2.70
  -6   6   1   23.30    4.80
  -6   6   1   26.40    3.40
   5  -6  -1   65.59    4.20
   5  -6  -1   72.39    4.80
  -5   6   1   67.89    4.20
  -5   6   1   73.09    4.90
   4  -6  -1    6.60    2.10
   4  -6  -1    4.40    1.80
  -4   6   1    7.20    1.90
  -4   6   1    7.80    2.20
   3  -6  -1    7.10    2.00
   3  -6  -1    8.60    2.00
  -3   6   1    7.20    1.90
  -3   6   1    7.60    1.60
  -3   6   1    8.50    2.20
  -3   6   1   10.80    1.50
   2  -6  -1   16.70    2.50
   2  -6  -1   18.20    2.40
   2  -6  -1   15.30    1.30
  -2   6   1   20.50    2.60
  -2   6   1   16.20    2.10
  -2   6   1   18.00    1.90
  -2   6   1   16.90    2.30
   1  -6  -1    5.40    1.70
   1  -6  -1    1.50    1.60
   1  -6  -1    3.60    2.30
  -1   6   1    2.50    1.70
  -1   6   1    1.70    1.70
  -1   6   1    4.00    1.70
  -1   6   1    3.00    1.70
   0  -6  -1    5.60    1.90
   0  -6  -1    2.20    2.30
   0  -6  -1    4.50    2.30
   0   6   1    1.90    1.70
   0   6   1    3.40    1.50
   0   6   1    1.30    1.90
  -1  -6  -1    2.90    2.80
  -1  -6  -1    1.30    2.40
  -1  -6  -1   -1.60    2.30
   1   6   1    0.60    1.10
   1   6   1    1.70    1.80
   1   6   1    1.40    2.10
  -2  -6  -1   49.60    5.70
  -2  -6  -1   52.49    6.30
  -2  -6  -1   63.49    5.90
   2   6   1   52.89    4.60
   2   6   1   45.60    5.40
  -3  -6  -1    3.90    3.80
  -3  -6  -1    1.50    3.40
  -3  -6  -1    2.90    4.00
   3   6   1    0.10    2.30
   3   6   1    0.80    3.20
  -4  -6  -1   28.80    5.80
  -4  -6  -1   13.70    5.80
  -4  -6  -1   13.80    5.00
   4   6   1   26.50    3.90
   4   6   1   17.60    4.50
  10  -7  -1   12.50    2.80
  10  -7  -1    4.80    3.00
 -10   7   1   -0.10    5.40
 -10   7   1   -4.90    4.80
 -10   7   1    4.00    5.20
   9  -7  -1   25.50    3.90
  -9   7   1   29.20    5.20
  -9   7   1   23.10    4.90
  -9   7   1   33.80    5.40
   8  -7  -1    3.00    3.10
  -8   7   1    3.60    3.20
  -8   7   1   -1.90    3.30
  -8   7   1    4.70    3.60
   7  -7  -1  161.48    8.30
   7  -7  -1  131.29    6.70
  -7   7   1  144.99    7.30
  -7   7   1  139.59    7.70
   6  -7  -1   57.49    4.60
   6  -7  -1   51.19    7.70
  -6   7   1   45.50    4.40
  -6   7   1   67.79    5.70
   5  -7  -1   66.29    5.40
  -5   7   1   65.59    5.50
  -5   7   1   58.09    5.30
   4  -7  -1    5.00    2.10
   4  -7  -1    5.80    2.70
  -4   7   1    3.60    1.80
  -4   7   1    6.40    2.50
  -4   7   1    6.40    2.20
   3  -7  -1   83.99    5.30
   3  -7  -1   83.19    4.70
  -3   7   1   85.19    3.80
  -3   7   1   84.69    5.10
  -3   7   1   83.39    5.00
  -3   7   1   76.39    4.70
   2  -7  -1   39.80    3.50
   2  -7  -1   40.40    4.70
   2  -7  -1   34.10    3.90
  -2   7   1   40.30    4.00
  -2   7   1   34.30    4.00
  -2   7   1   39.80    3.60
   1  -7  -1   46.70    3.60
   1  -7  -1   52.79    4.40
   1  -7  -1   47.70    5.70
  -1   7   1   48.70    3.80
  -1   7   1   46.80    4.30
  -1   7   1   43.20    3.70
   0  -7  -1   45.30    5.70
   0  -7  -1   54.99    4.60
   0  -7  -1   43.30    5.50
   0   7   1   40.90    4.60
   0   7   1   44.40    4.20
   0   7   1   45.80    3.20
  -1  -7  -1    4.80    3.50
  -1  -7  -1    2.30    3.90
  -1  -7  -1    0.70    2.70
   1   7   1   -2.40    2.20
   1   7   1   -4.50    4.30
  -2  -7  -1   65.89    7.20
  -2  -7  -1   49.80    6.10
  -2  -7  -1   59.29    7.60
   2   7   1   62.59    7.30
   2   7   1   51.89    4.90
  -3  -7  -1   -1.90    5.20
  -3  -7  -1    2.20    5.10
  -3  -7  -1    8.90    5.60
   3   7   1    0.50    5.00
   3   7   1   -6.10    2.60
  10  -8  -1   16.70    4.80
  10  -8  -1   20.00    4.00
 -10   8   1   14.30    5.50
 -10   8   1   22.70    6.00
 -10   8   1   16.00    6.50
   9  -8  -1   15.70    3.30
   9  -8  -1   12.00    4.20
  -9   8   1   20.20    5.10
  -9   8   1   17.60    4.30
  -9   8   1   13.60    5.40
   8  -8  -1    5.90    2.90
   8  -8  -1    0.30    4.20
  -8   8   1    2.40    3.20
  -8   8   1   -0.70    3.30
   7  -8  -1   33.40    4.70
   7  -8  -1   42.60    5.10
  -7   8   1   34.80    4.50
  -7   8   1   37.00    5.10
   6  -8  -1    4.50    3.60
   6  -8  -1    4.10    2.80
  -6   8   1    5.60    3.70
  -6   8   1    4.40    2.70
   5  -8  -1   -0.40    2.40
   5  -8  -1    3.00    3.10
  -5   8   1   -3.80    2.20
  -5   8   1   -0.80    2.30
  -5   8   1    0.70    3.70
   4  -8  -1   -1.50    2.40
   4  -8  -1    3.80    3.10
  -4   8   1   -0.20    2.50
  -4   8   1    1.80    2.20
  -4   8   1    2.10    2.80
   3  -8  -1    2.10    2.90
   3  -8  -1    1.20    2.30
   3  -8  -1    0.90    2.20
  -3   8   1    0.40    2.60
  -3   8   1    5.20    2.50
  -3   8   1    1.20    2.30
   2  -8  -1   30.10    4.30
   2  -8  -1   33.90    4.00
  -2   8   1   31.60    3.40
  -2   8   1   28.80    3.60
  -2   8   1   32.90    4.50
  -2   8   1   27.50    3.60
   1  -8  -1    7.70    3.70
  -1   8   1    0.10    2.90
  -1   8   1   -0.60    2.40
  -1   8   1   -0.60    2.30
   0  -8  -1    2.20    3.80
   0  -8  -1   -1.20    3.00
   0  -8  -1   -3.30    3.80
   0   8   1    5.20    1.80
   0   8   1    1.20    2.50
  -1  -8  -1    0.00    4.80
  -1  -8  -1    9.10    5.00
  -1  -8  -1    0.70    3.90
   1   8   1    8.10    4.20
   1   8   1    9.30    3.40
  -2  -8  -1   21.30    5.90
  -2  -8  -1   20.10    6.60
  -2  -8  -1   18.50    6.10
   2   8   1   23.00    4.10
   2   8   1   23.60    5.50
  10  -9  -1   -3.40    4.70
  10  -9  -1    2.90    5.60
 -10   9   1   -0.50    6.90
   9  -9  -1   51.59    7.20
   9  -9  -1   24.70    7.20
  -9   9   1   45.40    6.00
  -9   9   1   39.00    6.60
  -9   9   1   35.80    5.80
   8  -9  -1   30.40    5.50
   8  -9  -1   24.50    5.40
  -8   9   1   36.30    5.10
  -8   9   1   35.70    5.70
   7  -9  -1    3.80    4.40
   7  -9  -1    8.20    4.00
  -7   9   1    1.10    3.60
  -7   9   1    6.90    4.60
   6  -9  -1    9.30    3.80
   6  -9  -1    5.50    4.20
  -6   9   1    5.20    3.30
  -6   9   1    8.50    4.10
   5  -9  -1   34.80    4.40
   5  -9  -1   36.50    5.00
  -5   9   1   33.60    4.30
  -5   9   1   26.10    4.60
  -5   9   1   35.20    4.00
   4  -9  -1    1.30    3.70
   4  -9  -1   -4.50    2.70
  -4   9   1    2.00    3.00
  -4   9   1   -3.30    3.30
  -4   9   1    7.30    3.30
   3  -9  -1   -2.30    2.90
   3  -9  -1    5.50    2.80
   3  -9  -1    0.50    3.80
  -3   9   1    0.30    3.30
  -3   9   1    3.60    2.50
  -3   9   1    2.30    3.20
  -3   9   1    7.40    3.40
   2  -9  -1   26.30    3.60
   2  -9  -1   23.70    4.60
  -2   9   1   21.20    4.50
  -2   9   1   19.00    3.60
  -2   9   1   25.90    3.50
  -2   9   1   22.00    4.30
   1  -9  -1    0.80    4.70
   1  -9  -1    5.20    3.00
  -1   9   1    3.40    2.80
  -1   9   1    0.70    4.40
  -1   9   1    0.10    2.60
   0  -9  -1   28.90    6.00
   0  -9  -1   18.40    4.40
   0   9   1   24.70    5.30
   0   9   1   21.00    3.90
  -1  -9  -1   -2.30    6.10
  -1  -9  -1   -2.20    6.40
   1   9   1    0.90    5.50
   1   9   1    3.90    3.70
   9 -10  -1   -8.30    6.60
   9 -10  -1   -6.60    5.60
  -9  10   1    0.20    6.80
   8 -10  -1   -5.10    4.90
   8 -10  -1   -3.10    6.00
  -8  10   1    7.30    5.00
  -8  10   1   -3.30    5.80
   7 -10  -1    1.40    4.60
   7 -10  -1    4.30    5.30
  -7  10   1    3.30    4.50
  -7  10   1    5.80    5.40
   6 -10  -1   -4.30    3.90
   6 -10  -1    4.30    5.10
  -6  10   1   -0.90    4.10
  -6  10   1   -0.40    4.60
   5 -10  -1   -1.30    3.90
   5 -10  -1   -2.10    4.20
   5 -10  -1    2.70    4.40
  -5  10   1    1.80    4.30
  -5  10   1    1.00    4.10
  -5  10   1    8.10    4.60
   4 -10  -1   13.20    3.90
   4 -10  -1    5.80    4.30
   4 -10  -1    4.40    5.00
  -4  10   1    3.60    3.80
  -4  10   1    8.70    4.40
   3 -10  -1    5.40    4.00
   3 -10  -1   -6.20    4.60
   3 -10  -1    0.50    3.60
  -3  10   1    7.90    4.40
  -3  10   1    3.90    3.90
  -3  10   1   -3.20    5.00
  -3  10   1    2.20    2.90
   2 -10  -1   -1.30    5.20
   2 -10  -1    1.00    3.90
  -2  10   1   -9.40    4.50
  -2  10   1    1.30    3.40
  -2  10   1   -1.30    3.30
   1 -10  -1   23.70    6.60
  -1  10   1   26.40    4.20
  -1  10   1   27.50    5.90
   8 -11  -1  -14.40    6.20
   8 -11  -1    1.80    7.40
  -8  11   1   10.30    5.80
  -8  11   1    2.80    7.00
   7 -11  -1   17.10    6.90
   7 -11  -1    4.20    6.40
   7 -11  -1   14.70    6.20
  -7  11   1   14.00    5.30
  -7  11   1   24.80    7.10
  -7  11   1    8.50    5.40
   6 -11  -1    1.40    5.80
   6 -11  -1   -6.40    5.60
   6 -11  -1    5.50    5.20
  -6  11   1    0.00    4.90
  -6  11   1    5.80    6.00
  -6  11   1   -4.70    4.90
   5 -11  -1    0.20    4.70
   5 -11  -1   -1.70    5.70
   5 -11  -1   -4.20    5.80
  -5  11   1    9.40    5.80
  -5  11   1    6.90    4.80
  -5  11   1    9.10    4.70
   4 -11  -1   -5.50    4.50
   4 -11  -1    5.00    6.40
  -4  11   1    4.40    5.10
  -4  11   1    6.80    5.10
   3 -11  -1    6.20    7.30
   3 -11  -1   12.50    6.50
  -3  11   1    7.00    4.70
  -3  11   1    7.00    5.20
  -3  11   1    7.10    3.60
  -4  12  -2    3.70    4.70
   4 -12   2    2.50    5.20
  -5  12  -2    0.90    4.70
   5 -12   2    3.70    5.50
  -6  12  -2   -0.70    4.50
   6 -12   2    2.10    5.80
  -1  11  -2    3.50    3.70
  -2  11  -2    0.10    3.60
  -2  11  -2   -1.80    4.40
   2 -11   2    3.80    3.20
   2 -11   2   -5.40    4.70
  -3  11  -2    8.60    4.50
  -3  11  -2   -6.60    3.70
   3 -11   2   -3.00    3.50
   3 -11   2   -8.60    4.60
  -4  11  -2   11.40    3.90
  -4  11  -2   13.40    3.90
   4 -11   2    5.60    4.50
   4 -11   2   11.90    4.40
  -5  11  -2   15.80    4.00
  -5  11  -2    1.80    4.00
   5 -11   2   -2.80    4.20
   5 -11   2    4.70    4.70
  -6  11  -2   -2.10    3.80
  -6  11  -2   -1.30    4.60
   6 -11   2    2.10    4.90
   6 -11   2    3.30    4.80
  -7  11  -2   -5.00    3.70
   7 -11   2    6.40    5.30
   7 -11   2    8.40    5.40
  -8  11  -2   -1.40    5.70
   8 -11   2   -8.50    6.60
   1  10  -2   -2.70    5.60
   1  10  -2    1.10    3.10
  -1 -10   2    2.40    6.20
   0  10  -2    1.60    3.40
   0 -10   2   -1.60    4.30
  -1  10  -2    1.90    2.90
  -1  10  -2   12.20    3.60
  -1  10  -2    6.10    3.60
   1 -10   2    2.70    2.10
   1 -10   2    7.80    3.80
  -2  10  -2    9.00    3.30
  -2  10  -2    8.60    3.50
  -2  10  -2   14.40    3.30
   2 -10   2    7.60    2.90
   2 -10   2    9.80    4.40
  -3  10  -2   -3.50    2.70
  -3  10  -2    3.50    3.00
   3 -10   2   -1.80    2.90
   3 -10   2   -9.30    3.50
  -4  10  -2    8.60    3.00
  -4  10  -2   14.50    3.00
   4 -10   2   15.60    4.20
   4 -10   2    4.20    3.40
  -5  10  -2   41.30    5.20
  -5  10  -2   45.80    5.20
   5 -10   2   42.80    5.10
   5 -10   2   41.70    5.70
  -6  10  -2   -5.70    2.80
  -6  10  -2   -1.20    3.40
   6 -10   2    0.20    4.00
   6 -10   2   -7.10    3.80
  -7  10  -2    7.00    3.50
  -7  10  -2   12.30    4.30
   7 -10   2   14.40    5.00
   7 -10   2    9.10    4.30
  -8  10  -2    8.80    4.80
   8 -10   2   11.40    6.20
   8 -10   2    2.20    5.30
   8 -10   2    0.40    5.10
  -9  10  -2   -8.70    5.30
   9 -10   2   -4.50    7.00
   2   9  -2   20.60    5.30
   2   9  -2   13.10    3.80
  -2  -9   2   10.10    6.30
  -2  -9   2   18.30    6.40
  -2  -9   2   10.30    5.10
   1   9  -2    3.20    2.90
   1   9  -2    6.70    5.10
  -1  -9   2   13.90    4.00
  -1  -9   2    8.90    4.70
   0   9  -2   35.40    4.40
   0   9  -2   39.00    4.30
   0  -9   2   49.50    5.90
   0  -9   2   33.30    5.10
  -1   9  -2    4.10    2.50
  -1   9  -2   -0.80    2.90
  -1   9  -2    1.50    2.90
   1  -9   2   -1.70    2.00
   1  -9   2    2.80    3.00
  -2   9  -2   -1.00    2.40
  -2   9  -2    2.10    2.50
  -2   9  -2    4.60    2.60
   2  -9   2    4.70    2.90
   2  -9   2    1.80    2.30
  -3   9  -2    1.50    2.40
  -3   9  -2    6.90    2.50
   3  -9   2    6.20    3.00
   3  -9   2    4.00    2.60
  -4   9  -2    0.60    2.20
  -4   9  -2    1.20    2.10
   4  -9   2    2.40    2.80
   4  -9   2    1.60    2.60
  -5   9  -2    2.20    2.20
  -5   9  -2    7.30    3.80
  -5   9  -2   -1.00    2.40
   5  -9   2    1.80    2.90
   5  -9   2    5.30    3.00
  -6   9  -2    0.00    2.40
  -6   9  -2    5.00    3.80
   6  -9   2    0.30    3.20
   6  -9   2   -1.10    3.40
  -7   9  -2   -4.90    2.80
  -7   9  -2    3.30    3.60
  -7   9  -2    4.30    4.30
   7  -9   2   -2.90    4.30
   7  -9   2   -3.70    3.50
   7  -9   2    0.20    3.50
  -8   9  -2   11.40    3.60
  -8   9  -2    6.50    4.40
   8  -9   2   -2.80    4.40
   8  -9   2    0.60    5.00
   8  -9   2   -4.30    3.70
  -9   9  -2    8.80    5.50
   9  -9   2    4.00    6.00
   3   8  -2   -3.70    2.70
   3   8  -2    5.30    5.00
  -3  -8   2    3.10    4.20
  -3  -8   2    2.80    5.70
  -3  -8   2   -1.50    5.30
   2   8  -2    4.50    2.90
   2   8  -2    3.30    4.10
  -2  -8   2    5.80    3.40
  -2  -8   2   -4.60    4.10
  -2  -8   2    3.90    4.60
   1   8  -2   26.00    3.40
   1   8  -2   20.70    3.60
  -1  -8   2   30.10    4.50
  -1  -8   2   23.30    4.50
   0   8  -2   28.20    3.60
   0   8  -2   34.90    3.70
   0  -8   2   29.50    4.30
   0  -8   2   31.10    4.20
  -1   8  -2    4.80    2.40
  -1   8  -2    5.50    2.90
  -1   8  -2    8.70    2.40
   1  -8   2    6.50    2.70
   1  -8   2    8.00    1.90
  -2   8  -2   -0.70    2.00
  -2   8  -2    1.10    1.90
  -2   8  -2    1.50    1.90
   2  -8   2    3.00    1.90
   2  -8   2    3.10    2.40
  -3   8  -2  167.88    6.80
  -3   8  -2  162.98    6.20
   3  -8   2  167.88    7.60
   3  -8   2  145.79    6.80
  -4   8  -2  170.58    7.10
  -4   8  -2  169.48    7.90
  -4   8  -2  173.38    6.50
   4  -8   2  171.08    7.70
   4  -8   2  161.08    7.40
  -5   8  -2   47.90    4.30
  -5   8  -2   55.79    5.80
   5  -8   2   54.59    5.00
   5  -8   2   57.29    5.20
  -6   8  -2   18.80    3.80
  -6   8  -2    8.50    2.40
  -6   8  -2   10.90    2.90
   6  -8   2   10.70    3.00
   6  -8   2   13.20    3.20
   6  -8   2   12.90    3.90
  -7   8  -2   -1.00    2.70
  -7   8  -2    7.70    3.80
  -7   8  -2    3.10    3.40
   7  -8   2    7.90    3.00
   7  -8   2    3.30    3.40
   7  -8   2   -1.40    3.70
  -8   8  -2    2.80    3.90
  -8   8  -2    2.00    3.20
   8  -8   2    2.70    4.70
   8  -8   2    3.70    2.80
  -9   8  -2   -5.90    4.40
  -9   8  -2    1.00    5.00
   9  -8   2    1.20    6.00
   9  -8   2   -1.50    4.90
 -10   8  -2   -3.30    6.50
   5   7  -2    8.90    5.00
  -5  -7   2   29.60    7.00
  -5  -7   2   -5.80    7.10
   4   7  -2    1.30    4.40
   4   7  -2    3.60    2.70
  -4  -7   2   -1.80    5.40
  -4  -7   2   -2.80    4.70
  -4  -7   2    3.20    4.20
   3   7  -2   13.30    3.10
  -3  -7   2   15.10    3.70
  -3  -7   2   10.50    5.90
  -3  -7   2   15.00    4.50
   2   7  -2   37.00    4.40
   2   7  -2   36.50    4.10
  -2  -7   2   31.00    4.00
  -2  -7   2   38.90    4.80
   1   7  -2    2.40    2.40
   1   7  -2   -0.40    2.00
  -1  -7   2   -0.80    2.30
  -1  -7   2    0.20    2.70
   0   7  -2   43.80    3.90
   0   7  -2   34.50    3.60
   0   7  -2   26.80    3.20
   0  -7   2   33.70    4.20
   0  -7   2   34.30    4.30
   0  -7   2   30.50    2.20
  -1   7  -2   61.59    4.00
  -1   7  -2   58.19    3.90
  -1   7  -2   62.49    4.00
   1  -7   2   62.09    4.70
   1  -7   2   64.19    3.50
  -2   7  -2    2.10    1.90
  -2   7  -2    2.00    1.50
  -2   7  -2    0.40    1.60
   2  -7   2   -2.00    2.00
   2  -7   2    2.30    1.60
  -3   7  -2    7.80    1.70
   3  -7   2    7.40    2.40
   3  -7   2    9.80    2.00
  -4   7  -2   16.60    2.30
  -4   7  -2   20.00    3.00
   4  -7   2   15.50    2.70
   4  -7   2   18.00    2.80
  -5   7  -2   63.69    4.10
  -5   7  -2   55.49    4.90
   5  -7   2   47.30    4.20
   5  -7   2   60.59    4.90
  -6   7  -2    0.20    2.30
  -6   7  -2    4.30    2.80
  -6   7  -2    4.50    2.00
   6  -7   2    1.40    2.60
   6  -7   2    2.10    3.00
   6  -7   2   -1.80    1.90
  -7   7  -2   -1.60    2.70
  -7   7  -2   -0.80    2.80
   7  -7   2   -1.60    3.50
   7  -7   2   -4.40    2.60
  -8   7  -2    6.50    3.00
  -8   7  -2   -1.50    5.30
   8  -7   2    1.90    4.20
  -9   7  -2    9.50    4.90
  -9   7  -2    3.10    3.50
   9  -7   2   10.20    3.60
   9  -7   2    5.30    4.80
 -10   7  -2    3.60    6.60
  10  -7   2    0.90    5.30
   5   6  -2    5.30    4.70
   5   6  -2   -0.60    2.60
  -5  -6   2    1.10    4.20
  -5  -6   2    4.40    5.20
  -5  -6   2    1.60    4.60
   4   6  -2    5.20    2.50
  -4  -6   2    3.80    3.20
  -4  -6   2    1.20    4.10
  -4  -6   2    5.50    3.50
   3   6  -2   25.80    3.70
   3   6  -2   23.80    3.00
  -3  -6   2   20.40    4.10
  -3  -6   2   25.10    4.00
  -3  -6   2   26.10    4.20
   2   6  -2   93.09    5.00
   2   6  -2   89.59    5.50
  -2  -6   2   96.99    6.00
  -2  -6   2  100.99    5.80
   1   6  -2    8.50    1.90
   1   6  -2   10.30    2.20
  -1  -6   2   10.50    2.40
  -1  -6   2   13.80    2.60
   0   6  -2   15.90    1.90
   0   6  -2   12.00    2.00
   0  -6   2   17.10    2.50
   0  -6   2   13.10    1.40
   0  -6   2   17.80    2.70
  -1   6  -2   65.09    3.40
  -1   6  -2   71.39    3.50
  -1   6  -2   68.19    3.90
   1  -6   2   71.09    3.40
   1  -6   2   65.29    4.40
  -2   6  -2  549.95   15.30
  -2   6  -2  534.45   14.00
   2  -6   2  540.85   15.40
   2  -6   2  512.35   14.60
  -3   6  -2  147.49    5.00
  -3   6  -2  148.49    6.20
  -3   6  -2  138.89    5.80
   3  -6   2  158.48    6.50
   3  -6   2  146.09    5.90
  -4   6  -2    4.20    1.90
  -4   6  -2    3.90    1.60
   4  -6   2    1.00    1.70
   4  -6   2    1.90    1.70
  -5   6  -2   68.29    5.00
  -5   6  -2   88.29    5.30
  -5   6  -2   77.99    4.40
   5  -6   2   74.69    5.20
   5  -6   2   77.39    5.20
   5  -6   2   72.19    4.90
  -6   6  -2   -0.10    1.80
  -6   6  -2   -1.50    2.10
  -6   6  -2    4.70    2.30
   6  -6   2   -0.10    2.70
   6  -6   2    5.80    1.70
   6  -6   2   -1.50    2.10
  -7   6  -2    6.70    3.10
   7  -6   2    9.20    3.50
  -8   6  -2   -2.50    3.30
   8  -6   2   -1.30    2.70
   8  -6   2    5.30    3.70
  -9   6  -2    3.80    3.50
  -9   6  -2   -0.40    4.70
   9  -6   2    0.20    3.60
   9  -6   2    5.20    4.30
 -10   6  -2   -3.90    6.10
  10  -6   2    4.70    4.80
   6   5  -2    7.00    2.60
   6   5  -2    5.80    4.70
  -6  -5   2    3.60    5.80
  -6  -5   2    9.30    4.90
  -6  -5   2    8.70    4.60
   5   5  -2   18.90    2.50
   5   5  -2   12.60    3.90
  -5  -5   2   17.40    4.80
  -5  -5   2   15.90    3.90
  -5  -5   2   25.80    4.40
   4   5  -2   15.80    3.40
   4   5  -2   14.30    2.30
  -4  -5   2   17.10    3.40
  -4  -5   2   15.70    4.20
  -4  -5   2   18.10    4.20
   3   5  -2    1.20    1.60
  -3  -5   2    0.30    2.10
  -3  -5   2   -1.70    2.60
   2   5  -2  109.59    5.30
   2   5  -2  119.39    5.10
  -2  -5   2  115.99    5.80
  -2  -5   2  114.19    5.60
   1   5  -2   68.29    3.70
   1   5  -2   63.19    3.40
  -1  -5   2   60.09    4.00
  -1  -5   2   65.59    3.90
   0   5  -2    3.90    1.40
   0   5  -2    8.70    1.50
   0   5  -2    4.80    1.50
   0  -5   2    7.80    1.70
   0  -5   2    4.90    1.10
   0  -5   2    6.10    1.90
  -1   5  -2   37.70    2.80
  -1   5  -2   34.00    2.20
  -1   5  -2   33.10    1.70
  -1   5  -2   38.40    2.40
   1  -5   2   37.20    3.20
   1  -5   2   35.00    2.60
  -2   5  -2  101.39    3.70
  -2   5  -2  102.49    4.50
  -2   5  -2  106.09    3.10
   2  -5   2  101.19    4.50
   2  -5   2  106.99    4.90
  -3   5  -2  703.93   18.90
  -3   5  -2  696.13   18.80
   3  -5   2  686.03   18.90
   3  -5   2  699.83   18.80
  -4   5  -2   22.20    2.80
  -4   5  -2   23.00    2.60
  -4   5  -2   28.00    3.40
   4  -5   2   26.40    2.80
   4  -5   2   30.50    3.50
   4  -5   2   27.80    3.50
  -5   5  -2   14.20    2.70
  -5   5  -2   14.50    2.30
  -5   5  -2   11.20    2.20
   5  -5   2   12.30    2.40
   5  -5   2   12.80    2.10
   5  -5   2   14.30    2.60
  -6   5  -2    1.10    1.80
  -6   5  -2    1.30    2.20
   6  -5   2    2.00    2.70
   6  -5   2    1.20    1.70
  -7   5  -2    4.00    3.10
   7  -5   2    5.70    2.00
   7  -5   2    3.60    2.90
  -8   5  -2   16.80    4.40
   8  -5   2   18.70    3.90
  -9   5  -2    7.00    3.60
  -9   5  -2   18.10    5.10
   9  -5   2   21.10    4.50
   9  -5   2   12.60    4.30
 -10   5  -2    3.20    6.80
  10  -5   2    3.90    6.50
   7   4  -2    2.20    2.70
  -7  -4   2    1.90    4.70
  -7  -4   2    0.90    5.70
  -7  -4   2   -2.00    4.50
   6   4  -2   -3.40    3.50
   6   4  -2    5.30    2.20
  -6  -4   2    1.70    4.20
  -6  -4   2   -1.60    3.60
  -6  -4   2    0.80    3.40
   5   4  -2   15.10    2.50
   5   4  -2   15.50    3.10
  -5  -4   2   13.70    3.70
  -5  -4   2   11.50    3.20
  -5  -4   2   10.00    3.10
   4   4  -2   40.00    3.30
   4   4  -2   45.60    4.30
  -4  -4   2   45.30    4.40
  -4  -4   2   44.90    7.30
  -4  -4   2   46.20    4.40
   3   4  -2   10.40    2.30
   3   4  -2   12.80    1.80
  -3  -4   2   12.60    2.50
  -3  -4   2    7.40    2.40
   2   4  -2   80.69    4.00
   2   4  -2   81.59    3.90
  -2  -4   2   83.39    4.50
  -2  -4   2   79.19    4.30
   1   4  -2    5.00    1.40
   1   4  -2    5.60    1.30
  -1  -4   2    5.70    0.70
  -1  -4   2    5.50    1.70
  -1  -4   2    6.70    1.60
   0   4  -2  123.79    4.90
   0   4  -2  132.09    4.00
   0   4  -2  133.09    4.40
   0   4  -2  131.39    4.50
   0  -4   2  127.49    4.10
   0  -4   2  133.79    5.20
   0  -4   2  131.69    4.40
  -1   4  -2    0.50    1.10
  -1   4  -2    1.60    0.80
  -1   4  -2    1.40    1.20
  -1   4  -2    1.10    0.80
   1  -4   2   -1.10    1.00
   1  -4   2    2.30    1.50
  -2   4  -2   19.10    2.20
   2  -4   2   18.50    2.30
   2  -4   2   18.60    2.20
  -3   4  -2    5.90    1.30
  -3   4  -2    5.90    1.40
   3  -4   2    4.90    1.60
   3  -4   2    5.10    1.80
   3  -4   2    7.40    1.90
  -4   4  -2    2.60    1.20
  -4   4  -2    2.30    1.40
   4  -4   2    0.50    1.60
   4  -4   2    4.90    1.60
   4  -4   2    0.90    1.70
  -5   4  -2   78.49    4.50
  -5   4  -2   79.19    4.20
   5  -4   2   76.79    4.50
   5  -4   2   78.29    4.60
  -6   4  -2    1.80    1.80
  -6   4  -2    0.20    2.20
   6  -4   2    4.00    1.70
   6  -4   2    2.40    2.40
  -7   4  -2    2.40    4.90
   7  -4   2    4.40    2.70
   7  -4   2   -0.40    2.30
  -8   4  -2    7.00    4.20
   8  -4   2   11.80    3.60
  -9   4  -2    4.20    3.50
  -9   4  -2    2.10    5.00
   9  -4   2    1.30    3.80
   9  -4   2   10.30    4.80
 -10   4  -2   10.20    7.50
   8   3  -2   -2.20    4.00
   7   3  -2   -2.00    4.00
   7   3  -2   -3.30    2.30
   7   3  -2   -0.40    2.10
  -7  -3   2    9.90    4.40
  -7  -3   2   -7.10    3.00
   6   3  -2    4.80    1.90
   6   3  -2    6.20    2.10
  -6  -3   2    7.80    3.60
  -6  -3   2    9.10    3.00
   5   3  -2   45.10    2.70
   5   3  -2   37.10    3.40
   5   3  -2   40.20    4.20
  -5  -3   2   39.30    4.00
  -5  -3   2   44.00    5.10
   4   3  -2   62.39    3.70
   4   3  -2   78.79    4.40
   4   3  -2   76.99    2.80
  -4  -3   2   70.99    4.20
  -4  -3   2   68.59    4.80
   3   3  -2   10.50    2.00
   3   3  -2   14.00    1.80
  -3  -3   2   15.80    2.50
  -3  -3   2   11.10    1.30
  -3  -3   2   13.10    2.30
   2   3  -2  349.37   10.00
   2   3  -2  347.47   10.10
  -2  -3   2  356.96   10.20
  -2  -3   2  339.47   10.40
  -2  -3   2  359.26    8.70
   1   3  -2   71.79    3.10
   1   3  -2   69.89    3.00
   1   3  -2   68.09    3.40
  -1  -3   2   73.79    3.20
  -1  -3   2   73.69    3.70
   0   3  -2  375.56   10.00
   0   3  -2  358.86    9.50
   0   3  -2  361.96   10.30
   0   3  -2  378.16    9.50
   0  -3   2  373.66   10.40
   0  -3   2  385.36    9.50
  -1   3  -2  634.54   16.40
  -1   3  -2  628.04   15.30
   1  -3   2  648.84   16.50
   1  -3   2  627.94   16.30
  -2   3  -2 1472.55   37.20
  -2   3  -2 1510.25   36.30
   2  -3   2 1625.24   37.50
   2  -3   2 1505.65   37.30
   2  -3   2 1445.56   37.30
  -3   3  -2   24.90    2.50
  -3   3  -2   27.60    2.30
   3  -3   2   25.00    2.70
   3  -3   2   24.70    2.90
   3  -3   2   23.20    2.70
  -4   3  -2    0.10    1.40
  -4   3  -2    0.30    1.40
   4  -3   2   -0.20    1.50
   4  -3   2   -0.90    1.30
  -5   3  -2    1.50    2.00
  -5   3  -2    1.80    1.60
  -5   3  -2    1.50    1.40
   5  -3   2    5.20    1.70
   5  -3   2    2.20    1.70
   5  -3   2    2.90    1.90
  -6   3  -2   11.30    2.20
  -6   3  -2    6.60    1.90
  -6   3  -2    5.50    2.50
   6  -3   2    3.90    4.10
   6  -3   2    6.40    2.10
   6  -3   2    7.60    2.50
  -7   3  -2    0.30    2.90
  -7   3  -2    0.40    2.20
   7  -3   2   -2.20    2.60
   7  -3   2    3.30    2.80
   7  -3   2    2.60    2.60
  -8   3  -2   28.40    5.20
   8  -3   2   24.20    4.10
  -9   3  -2    1.20    5.20
  -9   3  -2    8.20    5.20
   9  -3   2   20.90    5.10
   9  -3   2   11.40    4.00
   8   2  -2    6.20    2.50
   8   2  -2   -0.40    3.20
   8   2  -2    8.30    4.20
  -8  -2   2    4.40    3.10
  -8  -2   2    2.30    4.60
   7   2  -2   13.60    3.40
   7   2  -2    6.40    2.50
   7   2  -2    7.80    2.80
  -7  -2   2   14.40    2.80
  -7  -2   2   11.60    3.50
   6   2  -2   13.10    2.60
   6   2  -2   14.10    2.60
   6   2  -2   12.10    2.20
  -6  -2   2   14.40    2.50
  -6  -2   2   15.80    3.60
   5   2  -2    1.20    1.60
   5   2  -2    1.80    1.60
   5   2  -2   -0.80    1.40
  -5  -2   2    4.80    1.70
  -5  -2   2    0.70    2.30
  -5  -2   2    3.40    1.70
   4   2  -2   61.39    2.90
   4   2  -2   62.69    3.40
   4   2  -2   62.59    3.80
  -4  -2   2   57.89    3.30
  -4  -2   2   63.19    4.20
  -4  -2   2   61.59    3.10
   3   2  -2    0.50    0.90
   3   2  -2    0.00    1.10
   3   2  -2    0.90    1.20
  -3  -2   2    1.00    1.40
  -3  -2   2    2.00    1.10
   2   2  -2    8.20    1.40
   2   2  -2    7.90    1.40
  -2  -2   2    8.30    1.10
  -2  -2   2    6.30    1.40
  -2  -2   2    3.90    1.30
   1   2  -2    1.40    1.10
   1   2  -2    1.40    0.90
   1   2  -2    0.50    0.80
   1   2  -2   -0.10    1.00
  -1  -2   2   -0.20    0.90
  -1  -2   2   -0.90    1.10
   0   2  -2   18.80    1.60
   0   2  -2   20.10    1.00
   0   2  -2   20.60    1.50
   0   2  -2   19.70    1.90
   0  -2   2   23.00    2.00
   0  -2   2   22.10    1.20
  -1   2  -2 1631.44   38.10
  -1   2  -2 1559.44   38.90
   1  -2   2 1603.14   38.90
   1  -2   2 1613.84   39.20
  -2   2  -2    3.80    1.30
  -2   2  -2    2.40    1.00
  -2   2  -2    3.40    1.30
   2  -2   2    2.90    0.90
   2  -2   2    2.50    1.50
   2  -2   2    3.90    1.40
   2  -2   2    2.40    1.20
  -3   2  -2   38.80    2.60
  -3   2  -2   41.80    2.90
  -3   2  -2   42.30    2.70
   3  -2   2   38.60    2.60
   3  -2   2   48.90    3.10
   3  -2   2   39.50    3.00
  -4   2  -2   12.10    1.90
  -4   2  -2   15.10    1.90
  -4   2  -2   12.10    2.00
   4  -2   2   13.80    2.10
   4  -2   2   12.00    2.10
   4  -2   2   14.30    1.90
  -5   2  -2    7.80    1.90
  -5   2  -2    4.00    2.10
  -5   2  -2    7.70    1.90
   5  -2   2    9.20    2.00
   5  -2   2    7.40    1.80
   5  -2   2   10.00    2.30
  -6   2  -2    4.30    1.80
  -6   2  -2    5.00    2.10
  -6   2  -2    1.70    2.30
   6  -2   2    2.40    2.40
   6  -2   2    0.20    2.30
   6  -2   2   -0.90    2.10
  -7   2  -2    1.40    2.60
  -7   2  -2    2.70    3.30
   7  -2   2    4.10    2.80
   7  -2   2    4.90    3.00
   7  -2   2    0.70    2.80
  -8   2  -2    5.30    4.60
  -8   2  -2    1.30    3.10
  -8   2  -2    4.00    3.00
   8  -2   2    1.40    3.70
   8  -2   2   -4.00    3.60
   8  -2   2    3.20    4.20
  -9   2  -2    8.80    3.70
  -9   2  -2    5.40    6.10
   9  -2   2    9.70    4.70
   9  -2   2   10.90    5.00
   9  -2   2    2.00    6.10
   9   1  -2    4.20    4.00
   9   1  -2    2.40    2.90
   8   1  -2   -6.00    3.10
   8   1  -2    0.80    2.50
   8   1  -2   -6.00    3.00
  -8  -1   2    4.00    1.90
  -8  -1   2   -8.10    3.30
   7   1  -2   56.69    4.70
   7   1  -2   49.80    4.20
  -7  -1   2   49.60    3.40
  -7  -1   2   51.49    5.40
  -7  -1   2   51.69    5.60
   6   1  -2   19.40    2.70
   6   1  -2   21.10    2.60
   6   1  -2   17.10    2.40
  -6  -1   2   22.20    3.00
  -6  -1   2   21.20    3.20
  -6  -1   2   17.00    2.00
   5   1  -2   43.60    3.10
   5   1  -2   40.20    3.10
   5   1  -2   35.10    3.20
  -5  -1   2   40.60    3.90
  -5  -1   2   42.60    3.40
  -5  -1   2   37.00    2.40
   4   1  -2  215.28    7.30
   4   1  -2  217.48    6.90
   4   1  -2  218.48    6.70
  -4  -1   2  213.98    7.40
  -4  -1   2  206.48    6.20
  -4  -1   2  228.88    6.80
   3   1  -2   39.60    2.70
   3   1  -2   35.30    2.30
   3   1  -2   34.40    2.30
  -3  -1   2   35.60    2.40
  -3  -1   2   32.00    2.80
   2   1  -2   19.00    1.80
   2   1  -2   18.80    2.00
   2   1  -2   18.30    1.90
   2   1  -2   22.30    1.80
  -2  -1   2   17.90    2.00
  -2  -1   2   20.00    1.80
   1   1  -2   30.80    1.70
   1   1  -2   29.60    1.70
  -1  -1   2   32.00    2.20
  -1  -1   2   29.90    2.00
  -1  -1   2   30.10    1.80
  -1  -1   2   30.70    1.90
   0   1  -2 3442.86   84.49
   0   1  -2 3285.77   83.79
   0  -1   2 3559.74   84.09
   0  -1   2 3658.23   85.09
  -1   1  -2   27.40    1.90
  -1   1  -2   27.10    2.30
  -1   1  -2   26.30    1.80
   1  -1   2   27.50    2.10
   1  -1   2   29.20    2.50
   1  -1   2   25.40    1.70
  -2   1  -2  235.68    6.80
  -2   1  -2  221.78    7.00
  -2   1  -2  226.98    6.90
   2  -1   2  230.88    6.70
   2  -1   2  240.18    7.20
  -3   1  -2   83.59    3.90
  -3   1  -2   79.79    3.80
   3  -1   2   88.79    4.10
   3  -1   2   82.59    3.90
   3  -1   2   82.29    3.80
  -4   1  -2    3.50    1.80
  -4   1  -2    4.60    1.60
   4  -1   2    1.70    1.30
   4  -1   2    5.00    1.80
   4  -1   2    3.90    1.70
  -5   1  -2    0.70    1.80
  -5   1  -2    3.80    1.70
   5  -1   2    2.10    1.90
   5  -1   2    5.50    1.70
   5  -1   2   -0.70    2.10
  -6   1  -2   15.20    3.20
  -6   1  -2   16.30    2.80
   6  -1   2   12.90    2.90
   6  -1   2   12.40    3.00
   6  -1   2   10.70    2.60
  -7   1  -2   20.90    4.20
  -7   1  -2   15.30    3.20
   7  -1   2   14.60    3.30
   7  -1   2   17.90    3.90
   7  -1   2   16.70    3.60
  -8   1  -2   12.90    4.00
  -8   1  -2   17.90    5.10
   8  -1   2   10.40    4.40
   8  -1   2   17.30    4.60
   8  -1   2   21.50    4.60
   9  -1   2   -2.60    5.60
   9   0  -2    2.20    3.80
   9   0  -2    2.30    2.60
  -9   0   2   -6.40    3.90
   8   0  -2   53.69    4.60
  -8   0   2   46.20    6.50
  -8   0   2   49.60    5.90
   7   0  -2    5.00    2.30
   7   0  -2    7.60    2.60
  -7   0   2    6.40    2.90
  -7   0   2    5.90    2.70
   6   0  -2   34.90    3.10
   6   0  -2   38.10    3.70
  -6   0   2   33.60    4.30
  -6   0   2   37.90    4.00
   5   0  -2   54.89    3.60
   5   0  -2   55.99    3.10
  -5   0   2   52.59    3.90
  -5   0   2   58.69    3.80
   4   0  -2  167.78    5.40
   4   0  -2  161.28    5.70
  -4   0   2  164.58    6.10
  -4   0   2  172.38    5.90
   3   0  -2  167.88    5.10
   3   0  -2  161.68    5.40
  -3   0   2  175.68    4.50
  -3   0   2  163.98    5.40
  -3   0   2  165.28    5.70
   2   0  -2   27.30    1.60
   2   0  -2   27.00    1.70
   2   0  -2   27.30    2.20
   2   0  -2   29.40    1.90
  -2   0   2   28.70    1.60
  -2   0   2   32.40    2.30
   1   0  -2  170.08    4.60
   1   0  -2  167.08    5.00
   1   0  -2  173.98    4.90
  -1   0   2  166.78    5.00
  -1   0   2  178.48    5.20
   0   0  -2  580.24   14.20
   0   0  -2  555.94   14.60
   0   0   2  588.14   14.60
   0   0   2  550.54   14.20
  -1   0  -2  255.97    7.10
  -1   0  -2  250.67    7.40
   1   0   2  244.08    7.10
   1   0   2  254.77    7.50
  -2   0  -2   -0.40    1.10
  -2   0  -2    1.00    1.40
   2   0   2   -1.10    1.40
   2   0   2    0.60    1.20
  -3   0  -2  140.49    5.60
  -3   0  -2  143.99    5.40
   3   0   2  146.19    5.60
   3   0   2  136.89    5.20
   3   0   2  137.79    5.30
  -4   0  -2   37.80    3.60
  -4   0  -2   33.60    3.30
   4   0   2   35.00    3.20
   4   0   2   36.70    3.70
   4   0   2   39.10    3.10
  -5   0  -2   72.19    4.70
  -5   0  -2   78.79    5.20
   5   0   2   73.39    4.40
   5   0   2   74.59    5.20
   5   0   2   73.59    4.90
  -6   0  -2   28.50    3.60
  -6   0  -2   24.50    3.70
   6   0   2   22.60    3.50
   6   0   2   25.60    4.00
   6   0   2   23.70    3.00
  -7   0  -2   17.10    3.60
  -7   0  -2    6.70    3.80
   7   0   2   15.70    4.30
   7   0   2   13.10    3.50
   7   0   2    8.80    3.40
  -8   0  -2    6.10    6.10
  -8   0  -2    6.00    5.30
   8   0   2    7.80    4.30
   8   0   2   -2.90    5.70
  10  -1  -2   -2.90    3.60
  10  -1  -2   -0.90    5.20
   9  -1  -2    2.80    2.90
   9  -1  -2    6.30    4.30
  -9   1   2    1.50    4.60
  -9   1   2   -2.60    3.70
   8  -1  -2   15.10    2.70
   8  -1  -2   11.40    3.40
  -8   1   2    8.30    3.30
  -8   1   2    9.30    7.80
   7  -1  -2   87.39    5.50
   7  -1  -2   84.89    4.50
  -7   1   2   81.39    6.00
  -7   1   2   82.09    5.70
   6  -1  -2   41.70    3.60
   6  -1  -2   40.00    3.10
  -6   1   2   47.70    4.40
  -6   1   2   47.50    4.10
   5  -1  -2   47.10    2.90
   5  -1  -2   56.39    3.60
  -5   1   2   51.19    3.80
  -5   1   2   51.29    3.60
   4  -1  -2   22.10    1.80
   4  -1  -2   19.10    2.40
  -4   1   2   18.40    2.30
  -4   1   2   20.00    2.20
   3  -1  -2   19.90    2.20
   3  -1  -2   18.40    1.50
   3  -1  -2   19.90    1.20
   3  -1  -2   20.10    1.60
  -3   1   2   24.40    1.20
  -3   1   2   18.50    2.40
   2  -1  -2 2101.69   49.30
   2  -1  -2 2043.00   49.70
   2  -1  -2 2122.29   49.80
   2  -1  -2 2095.09   50.29
  -2   1   2 1994.80   49.50
  -2   1   2 2070.89   49.70
  -2   1   2 2085.69   50.29
   1  -1  -2  181.68    5.70
   1  -1  -2  183.88    5.60
   1  -1  -2  196.98    4.80
   1  -1  -2  183.58    5.20
  -1   1   2  185.18    5.70
  -1   1   2  185.28    5.60
  -1   1   2  178.68    4.70
   0  -1  -2   17.20    2.20
   0  -1  -2   17.10    2.30
   0   1   2   13.30    1.70
   0   1   2   18.40    2.10
  -1  -1  -2  220.28    7.00
  -1  -1  -2  218.38    6.80
   1   1   2  211.68    6.70
   1   1   2  224.38    7.00
  -2  -1  -2   35.20    3.20
  -2  -1  -2   25.80    2.70
   2   1   2   27.60    3.00
   2   1   2   29.90    2.50
  -3  -1  -2   29.10    3.20
  -3  -1  -2   24.10    2.90
   3   1   2   32.70    3.60
   3   1   2   27.50    2.60
   3   1   2   22.90    2.60
  -4  -1  -2   -1.90    1.80
  -4  -1  -2    0.60    1.70
   4   1   2    0.50    1.40
   4   1   2    1.00    1.60
   4   1   2    0.20    2.20
  -5  -1  -2   69.49    5.50
  -5  -1  -2   89.59    5.80
   5   1   2   79.99    4.90
   5   1   2   77.39    4.80
   5   1   2   82.79    5.90
  -6  -1  -2   12.70    3.30
  -6  -1  -2    2.70    3.10
   6   1   2   -1.80    2.50
   6   1   2    3.40    2.70
  -7  -1  -2    8.20    4.20
  -7  -1  -2   18.50    4.50
   7   1   2    5.40    3.60
   7   1   2    1.00    3.70
  -8  -1  -2    6.30    5.50
   8   1   2    7.50    4.70
  10  -2  -2   -7.30    4.90
  10  -2  -2   -0.50    3.10
 -10   2   2   -5.00    5.60
 -10   2   2   -1.50    4.90
   9  -2  -2   -1.40    3.70
   9  -2  -2   -1.90    2.30
  -9   2   2   -1.60    3.40
  -9   2   2    3.60    3.70
  -9   2   2   -2.00    4.20
   8  -2  -2    0.80    2.20
   8  -2  -2    0.60    2.70
  -8   2   2   -1.70    2.50
  -8   2   2   -3.50    3.40
  -8   2   2    0.40    3.00
   7  -2  -2   40.50    4.20
  -7   2   2   40.50    5.20
  -7   2   2   44.20    4.50
   6  -2  -2    7.80    2.00
  -6   2   2    9.20    1.70
  -6   2   2   10.60    2.40
  -6   2   2    9.00    2.40
   5  -2  -2   20.60    2.60
  -5   2   2   16.80    2.50
  -5   2   2   15.30    2.50
  -5   2   2   12.50    2.00
   4  -2  -2   55.99    3.40
   4  -2  -2   60.49    2.10
   4  -2  -2   61.19    2.50
  -4   2   2   57.09    3.10
  -4   2   2   61.59    3.90
   3  -2  -2   96.09    2.70
   3  -2  -2   91.69    3.30
   3  -2  -2   95.39    3.30
   3  -2  -2   94.49    4.10
  -3   2   2  102.89    4.30
  -3   2   2   93.19    3.50
   2  -2  -2 3893.91   96.19
   2  -2  -2 3967.70   96.49
   2  -2  -2 4136.09   96.59
   2  -2  -2 4033.50   95.79
  -2   2   2 4096.79   96.29
  -2   2   2 4011.10   96.79
  -2   2   2 4017.00   96.49
   1  -2  -2   60.19    3.00
   1  -2  -2   64.69    2.60
   1  -2  -2   57.49    3.20
  -1   2   2   62.79    3.50
  -1   2   2   58.09    2.40
  -1   2   2   65.29    3.10
  -1   2   2   61.89    3.10
   0  -2  -2  194.08    5.70
   0  -2  -2  192.18    6.20
   0  -2  -2  182.68    6.30
   0   2   2  188.58    5.80
   0   2   2  176.18    6.00
   0   2   2  190.08    6.50
  -1  -2  -2  474.45   13.60
  -1  -2  -2  480.45   13.40
   1   2   2  494.45   13.70
   1   2   2  493.65   13.50
  -2  -2  -2    0.80    1.30
  -2  -2  -2   -0.60    1.50
   2   2   2    0.40    1.30
   2   2   2    1.90    1.90
  -3  -2  -2   -0.30    1.80
  -3  -2  -2    0.20    1.80
   3   2   2    2.20    1.50
   3   2   2    2.30    2.30
   3   2   2    0.70    1.30
  -4  -2  -2  128.09    6.40
  -4  -2  -2  118.79    6.00
   4   2   2  114.19    5.60
   4   2   2  114.59    5.30
   4   2   2  125.69    6.80
  -5  -2  -2  165.98    9.70
  -5  -2  -2  178.88    8.40
   5   2   2  175.78    7.10
  -6  -2  -2    5.40    3.30
  -6  -2  -2   -1.90    4.10
   6   2   2   -0.40    2.80
   6   2   2    6.50    3.10
  -7  -2  -2    7.30    4.90
  -7  -2  -2    1.70    4.90
   7   2   2    8.00    3.90
  10  -3  -2   -7.80    5.00
  10  -3  -2   -3.10    2.80
 -10   3   2    2.00    5.60
 -10   3   2    5.20    4.90
 -10   3   2   -1.10    4.50
   9  -3  -2   12.00    2.90
  -9   3   2    6.00    3.40
  -9   3   2   11.40    4.30
  -9   3   2    7.90    4.30
   8  -3  -2   66.99    5.60
  -8   3   2   69.79    5.80
  -8   3   2   58.29    6.70
  -8   3   2   67.39    5.60
   7  -3  -2    4.40    2.20
  -7   3   2    3.80    4.10
  -7   3   2    4.50    2.40
  -7   3   2    7.20    2.80
   6  -3  -2   14.90    2.20
  -6   3   2   18.40    2.60
  -6   3   2   13.20    2.40
  -6   3   2   16.80    2.70
   5  -3  -2    3.20    1.00
   5  -3  -2    2.30    1.40
  -5   3   2    1.30    1.70
  -5   3   2    2.00    1.50
   4  -3  -2    0.40    1.20
   4  -3  -2   -0.20    1.40
   4  -3  -2   -2.20    1.10
  -4   3   2    0.80    1.20
  -4   3   2    1.30    1.70
   3  -3  -2   29.00    1.80
   3  -3  -2   25.60    2.30
   3  -3  -2   25.00    2.50
   3  -3  -2   30.70    2.50
  -3   3   2   26.70    2.20
  -3   3   2   27.70    2.90
   2  -3  -2   92.49    4.10
   2  -3  -2   93.39    3.60
   2  -3  -2   97.59    3.10
   2  -3  -2   89.39    3.90
  -2   3   2   91.29    3.50
  -2   3   2   92.09    4.10
  -2   3   2   88.69    2.60
   1  -3  -2  451.05   12.90
   1  -3  -2  460.05   12.50
   1  -3  -2  472.85   12.30
  -1   3   2  470.15   12.50
  -1   3   2  449.86   12.30
  -1   3   2  473.75   12.80
   0  -3  -2  107.99    4.40
   0  -3  -2  106.69    4.70
   0  -3  -2  105.79    4.70
   0   3   2  102.89    4.00
   0   3   2  108.99    4.50
  -1  -3  -2    9.40    1.70
  -1  -3  -2    8.40    1.80
  -1  -3  -2   13.30    2.20
   1   3   2    7.60    1.60
   1   3   2    8.30    1.60
  -2  -3  -2   31.10    3.40
  -2  -3  -2   37.40    3.50
   2   3   2   30.60    3.00
  -3  -3  -2   51.89    4.60
  -3  -3  -2   49.60    6.60
   3   3   2   62.69    4.10
   3   3   2   57.69    3.40
  -4  -3  -2    8.10    3.00
  -4  -3  -2    7.60    3.00
   4   3   2    4.30    2.00
  -5  -3  -2    3.60    3.70
  -5  -3  -2    2.80    3.10
   5   3   2    3.00    2.20
  -6  -3  -2    2.70    4.00
  -6  -3  -2  -10.30    4.80
   6   3   2    6.30    3.00
   6   3   2    8.60    3.80
  10  -4  -2   -3.50    2.70
  10  -4  -2   -5.70    4.70
 -10   4   2    0.20    4.50
 -10   4   2   -1.10    4.40
 -10   4   2   -4.60    5.60
  -9   4   2   -3.00    3.80
  -9   4   2    0.90    3.40
  -9   4   2    2.70    4.20
   8  -4  -2   50.59    4.90
  -8   4   2   55.39    5.40
  -8   4   2   44.70    5.30
  -8   4   2   56.79    5.70
   7  -4  -2   15.30    2.30
  -7   4   2   18.40    3.40
  -7   4   2   13.40    3.20
  -7   4   2   14.50    3.20
   6  -4  -2  206.18    6.30
   6  -4  -2  207.78    7.80
  -6   4   2  216.68    8.20
  -6   4   2  215.08    7.60
   5  -4  -2  164.28    6.30
   5  -4  -2  167.68    6.40
   5  -4  -2  159.88    5.40
  -5   4   2  158.28    6.00
  -5   4   2  157.68    6.70
   4  -4  -2  919.91   23.70
   4  -4  -2  916.61   24.40
   4  -4  -2  947.81   23.80
  -4   4   2  907.21   23.70
  -4   4   2  958.50   24.70
   3  -4  -2   11.30    1.30
   3  -4  -2   11.10    1.90
   3  -4  -2   12.90    1.90
   3  -4  -2   11.50    1.90
  -3   4   2   15.10    2.00
  -3   4   2   12.50    2.10
   2  -4  -2   41.10    2.90
   2  -4  -2   45.80    3.20
   2  -4  -2   49.90    3.10
   2  -4  -2   45.80    2.10
  -2   4   2   46.10    2.80
  -2   4   2   45.90    2.00
  -2   4   2   43.50    3.10
  -2   4   2   46.20    3.30
   1  -4  -2   -1.50    1.40
   1  -4  -2   -0.60    1.50
   1  -4  -2    1.40    1.30
  -1   4   2   -0.40    1.10
  -1   4   2   -1.20    1.30
  -1   4   2   -1.80    1.10
  -1   4   2   -0.10    1.10
   0  -4  -2   17.80    2.50
   0  -4  -2   20.40    2.40
   0  -4  -2   17.40    2.50
   0   4   2   16.30    2.10
   0   4   2   21.90    2.50
  -1  -4  -2   57.39    4.00
  -1  -4  -2   55.79    4.10
  -1  -4  -2   52.49    3.70
   1   4   2   53.89    3.10
   1   4   2   48.10    3.50
  -2  -4  -2  136.99    6.60
  -2  -4  -2  121.09    7.00
  -2  -4  -2  111.89    8.80
   2   4   2  134.69    5.90
   2   4   2  130.69    4.90
  -3  -4  -2  391.66   13.10
  -3  -4  -2  384.56   13.30
  -3  -4  -2  386.06   13.20
   3   4   2  389.76   10.90
   3   4   2  403.86   11.10
  -4  -4  -2   10.30    3.90
  -4  -4  -2    8.00    3.30
   4   4   2    8.30    2.20
  -5  -4  -2   -7.80    4.30
  -5  -4  -2   -5.70    3.50
   5   4   2    3.50    3.30
   5   4   2   -0.90    2.10
   5   4   2    1.20    2.40
  -6  -4  -2    1.30    6.10
   6   4   2    6.40    4.50
  11  -5  -2    1.00    3.40
 -11   5   2   13.00    8.20
  10  -5  -2   16.40    5.20
 -10   5   2   26.70    5.50
 -10   5   2   25.60    5.50
 -10   5   2   32.50    6.90
   9  -5  -2   27.60    4.30
  -9   5   2   31.70    4.80
  -9   5   2   35.30    4.70
  -9   5   2   24.80    4.80
   8  -5  -2   45.30    2.60
   8  -5  -2   43.40    4.60
  -8   5   2   45.30    5.20
  -8   5   2   50.89    5.80
  -8   5   2   49.10    5.70
   7  -5  -2   19.90    2.70
   7  -5  -2   25.60    3.40
  -7   5   2   15.80    2.80
  -7   5   2   19.70    5.20
   6  -5  -2   12.90    2.90
   6  -5  -2   15.80    2.50
   6  -5  -2   11.60    2.20
  -6   5   2   13.50    2.50
  -6   5   2   15.60    2.60
   5  -5  -2    3.20    1.90
   5  -5  -2    0.90    1.30
   5  -5  -2    4.00    2.00
  -5   5   2    2.80    1.60
  -5   5   2    2.60    1.90
   4  -5  -2    6.30    1.60
   4  -5  -2    5.50    1.30
   4  -5  -2    1.70    1.90
   4  -5  -2    1.50    1.70
  -4   5   2    1.40    1.40
  -4   5   2    2.00    1.80
   3  -5  -2   77.89    4.20
   3  -5  -2   75.49    2.80
   3  -5  -2   79.09    4.30
   3  -5  -2   75.39    4.10
  -3   5   2   80.29    3.90
  -3   5   2   73.49    2.60
  -3   5   2   78.99    4.50
   2  -5  -2    5.00    1.10
   2  -5  -2    5.60    1.80
   2  -5  -2    5.40    1.80
   2  -5  -2    4.10    1.60
  -2   5   2    6.50    1.90
  -2   5   2    3.30    1.30
  -2   5   2    2.60    1.50
  -2   5   2    4.30    1.50
   1  -5  -2  118.69    5.60
   1  -5  -2  127.59    5.70
  -1   5   2  125.99    4.60
  -1   5   2  138.09    5.20
  -1   5   2  133.69    5.50
   0  -5  -2    4.00    2.10
   0  -5  -2    5.60    2.00
   0  -5  -2    5.30    1.70
   0   5   2    8.30    1.80
   0   5   2    5.40    1.80
   0   5   2    2.80    1.70
  -1  -5  -2    7.60    2.20
  -1  -5  -2   11.50    2.90
  -1  -5  -2    8.90    4.60
   1   5   2   12.20    2.30
   1   5   2   12.70    2.00
   1   5   2   14.20    2.40
  -2  -5  -2   20.50    3.70
  -2  -5  -2   17.30    3.30
  -2  -5  -2   15.90    3.20
   2   5   2   20.10    2.30
   2   5   2   17.00    3.00
   2   5   2   18.40    2.60
  -3  -5  -2    0.70    3.40
  -3  -5  -2    4.30    2.90
  -3  -5  -2    0.50    3.50
   3   5   2    2.60    3.00
   3   5   2   -2.10    2.10
   3   5   2    4.40    1.90
   3   5   2    0.50    1.60
  -4  -5  -2   -5.30    3.70
  -4  -5  -2    5.00    4.30
  -4  -5  -2  -10.50    4.60
   4   5   2   -4.00    2.30
   4   5   2    2.80    2.00
   4   5   2   -0.50    3.40
  -5  -5  -2    8.20    6.30
  -5  -5  -2    9.90    5.60
   5   5   2   16.60    3.60
  10  -6  -2   -4.10    4.40
 -10   6   2    7.30    4.90
 -10   6   2    1.40    5.10
 -10   6   2    3.70    5.00
   9  -6  -2   12.50    3.30
   9  -6  -2    5.80    2.20
   9  -6  -2   10.40    1.80
  -9   6   2   18.40    4.30
  -9   6   2   11.00    3.90
  -9   6   2    6.70    3.80
   8  -6  -2   63.99    4.20
   8  -6  -2   79.19    4.70
  -8   6   2   67.19    5.80
  -8   6   2   78.29    6.50
  -8   6   2   70.39    6.40
   7  -6  -2   14.20    3.30
   7  -6  -2   23.20    2.80
  -7   6   2   17.50    3.20
  -7   6   2   16.00    2.90
   6  -6  -2   69.99    4.70
   6  -6  -2   71.59    4.50
   6  -6  -2   70.69    5.50
  -6   6   2   67.79    5.50
  -6   6   2   71.39    4.80
   5  -6  -2   31.40    3.50
   5  -6  -2   31.50    4.10
   5  -6  -2   28.80    3.80
  -5   6   2   38.00    4.40
  -5   6   2   38.20    3.40
   4  -6  -2    5.60    2.10
   4  -6  -2    7.20    2.30
   4  -6  -2    4.00    2.00
  -4   6   2    4.00    1.70
  -4   6   2    4.20    2.30
   3  -6  -2   16.40    1.50
   3  -6  -2   16.00    2.70
   3  -6  -2   15.80    2.50
   3  -6  -2   12.20    2.40
  -3   6   2   17.50    2.90
  -3   6   2   14.90    2.30
  -3   6   2   10.60    2.10
  -3   6   2   16.30    1.70
   2  -6  -2  215.08    7.60
   2  -6  -2  237.98    8.30
   2  -6  -2  219.68    8.30
   2  -6  -2  214.78    6.20
  -2   6   2  225.58    8.00
  -2   6   2  220.58    7.90
  -2   6   2  225.18    7.90
  -2   6   2  212.88    6.70
   1  -6  -2   97.09    5.50
   1  -6  -2   87.99    5.20
  -1   6   2   93.49    4.20
  -1   6   2   92.59    7.20
  -1   6   2   94.09    4.70
   0  -6  -2    1.90    2.60
   0  -6  -2    1.70    2.00
   0  -6  -2    5.60    2.80
   0   6   2    5.20    1.90
   0   6   2   -1.40    1.90
   0   6   2   -1.20    1.90
  -1  -6  -2  172.68    8.40
  -1  -6  -2  181.98    8.10
  -1  -6  -2  176.08    8.40
   1   6   2  175.38    6.00
   1   6   2  170.68    7.70
   1   6   2  172.08    7.20
  -2  -6  -2   16.70    3.60
  -2  -6  -2    8.10    3.60
  -2  -6  -2   11.80    4.00
   2   6   2    8.50    3.00
   2   6   2    9.00    1.60
   2   6   2    8.60    1.80
   2   6   2   -1.60    2.90
  -3  -6  -2    8.40    4.70
  -3  -6  -2    6.80    4.70
  -3  -6  -2    0.50    4.00
   3   6   2    1.60    2.80
   3   6   2    5.30    3.90
  -4  -6  -2   -4.00    6.30
  -4  -6  -2   -2.20    4.90
  -4  -6  -2    3.30    6.10
   4   6   2    4.30    3.00
  10  -7  -2    9.10    2.10
 -10   7   2   13.10    6.10
 -10   7   2    9.50    5.00
 -10   7   2   12.20    4.70
   9  -7  -2   -0.20    4.60
   9  -7  -2   -2.20    2.60
   9  -7  -2   -3.30    3.10
  -9   7   2   -3.00    3.80
  -9   7   2    1.80    4.80
  -9   7   2    2.20    3.70
   8  -7  -2   14.90    2.80
  -8   7   2   11.40    3.70
  -8   7   2   16.20    3.90
   7  -7  -2    7.50    2.80
   7  -7  -2   10.20    3.70
   7  -7  -2    0.50    2.50
  -7   7   2    9.60    2.60
  -7   7   2    7.30    3.00
   6  -7  -2    1.10    2.90
   6  -7  -2    0.40    2.20
   6  -7  -2   -1.60    2.50
  -6   7   2   -1.80    2.40
  -6   7   2    3.20    2.20
   5  -7  -2    3.10    2.30
   5  -7  -2   -1.40    2.40
   5  -7  -2   -0.50    2.50
  -5   7   2    2.30    2.70
  -5   7   2    1.50    2.10
   4  -7  -2   12.20    5.10
   4  -7  -2   12.70    2.70
   4  -7  -2    7.00    2.70
  -4   7   2   13.50    3.10
  -4   7   2    8.80    4.50
  -4   7   2    8.60    2.30
   3  -7  -2    8.10    1.30
   3  -7  -2    5.60    2.40
   3  -7  -2    4.40    2.70
   3  -7  -2    9.20    2.40
  -3   7   2    2.80    2.60
  -3   7   2    4.90    1.70
  -3   7   2    6.20    2.30
  -3   7   2   11.40    2.40
   2  -7  -2   50.89    4.20
   2  -7  -2   41.30    2.70
   2  -7  -2   46.50    5.20
   2  -7  -2   45.80    4.20
  -2   7   2   40.20    6.10
  -2   7   2   35.90    4.30
  -2   7   2   38.10    4.60
   1  -7  -2   10.90    3.30
  -1   7   2    6.90    2.50
  -1   7   2    2.80    2.80
  -1   7   2    8.70    2.50
   0  -7  -2  146.19    8.30
   0  -7  -2  156.98    8.20
   0  -7  -2  135.09    7.30
   0   7   2  150.58    6.40
   0   7   2  149.39    7.70
   0   7   2  152.08    6.00
  -1  -7  -2    0.20    3.70
  -1  -7  -2   -6.50    3.60
  -1  -7  -2    4.10    3.40
   1   7   2   -2.50    3.00
   1   7   2    2.40    2.80
   1   7   2    1.50    1.90
  -2  -7  -2    1.60    4.70
  -2  -7  -2   -0.90    4.80
  -2  -7  -2    3.10    4.40
   2   7   2   -6.50    3.90
   2   7   2    2.10    2.90
  -3  -7  -2    7.30    6.40
  -3  -7  -2    6.70    5.80
  -3  -7  -2   11.50    6.60
   3   7   2    4.10    3.30
  10  -8  -2   15.70    3.70
  10  -8  -2   14.20    4.40
 -10   8   2    5.80    6.20
 -10   8   2   18.80    6.60
 -10   8   2   13.60    5.70
   9  -8  -2   -1.60    3.50
   9  -8  -2    5.20    3.50
  -9   8   2   -2.00    4.30
  -9   8   2    4.60    4.40
   8  -8  -2    3.80    3.10
   8  -8  -2   -2.70    4.40
   8  -8  -2   -4.60    3.00
  -8   8   2    0.30    3.70
  -8   8   2    7.20    3.50
   7  -8  -2    6.90    3.00
   7  -8  -2   -0.40    3.80
  -7   8   2   11.10    4.00
  -7   8   2    2.40    3.10
   6  -8  -2    0.80    3.10
   6  -8  -2    2.00    3.50
   6  -8  -2    4.30    3.00
  -6   8   2    3.80    2.90
  -6   8   2    4.00    3.10
   5  -8  -2   -1.20    3.20
   5  -8  -2    0.60    2.50
   5  -8  -2   -0.80    3.10
  -5   8   2    0.00    3.00
  -5   8   2    1.00    2.40
  -5   8   2   -0.10    2.60
   4  -8  -2   80.69    5.90
   4  -8  -2   67.29    6.20
   4  -8  -2   60.09    7.90
  -4   8   2   74.39    5.70
  -4   8   2   77.69    6.30
  -4   8   2   72.29    5.40
   3  -8  -2   38.40    4.80
   3  -8  -2   30.40    3.70
   3  -8  -2   33.20    4.40
  -3   8   2   41.90    5.20
  -3   8   2   36.30    4.80
  -3   8   2   37.20    3.40
  -3   8   2   39.00    4.20
   2  -8  -2   -0.40    3.40
   2  -8  -2    1.10    2.50
   2  -8  -2    0.50    1.70
  -2   8   2    2.50    2.90
  -2   8   2    3.70    2.90
  -2   8   2    2.90    2.80
  -2   8   2    3.00    2.20
   1  -8  -2    6.50    4.10
  -1   8   2    7.10    2.50
  -1   8   2    7.10    2.70
   0  -8  -2   57.99    6.60
   0  -8  -2   77.39    8.10
   0  -8  -2   71.49    8.20
   0   8   2   61.59    4.40
   0   8   2   62.09    7.10
   0   8   2   68.19    5.60
  -1  -8  -2   11.30    5.50
  -1  -8  -2    9.10    4.40
  -1  -8  -2    9.10    5.50
   1   8   2   11.30    3.60
   1   8   2    5.00    4.80
  -2  -8  -2    7.50    7.00
  -2  -8  -2   13.10    7.40
   2   8   2    9.10    3.60
  10  -9  -2    4.60    5.20
  10  -9  -2    5.10    5.40
 -10   9   2    2.20    6.90
   9  -9  -2    2.70    4.50
  -9   9   2    9.80    5.10
  -9   9   2    6.90    5.10
   8  -9  -2    7.00    3.90
   8  -9  -2    2.80    4.10
   8  -9  -2   -2.60    5.00
  -8   9   2   -6.90    4.60
  -8   9   2   -1.80    3.80
   7  -9  -2    0.90    4.30
   7  -9  -2   -1.50    3.80
   7  -9  -2    3.60    3.90
  -7   9   2   -2.80    3.50
  -7   9   2    6.90    4.60
   6  -9  -2   -1.10    4.00
   6  -9  -2    6.50    4.30
   6  -9  -2   10.60    3.60
  -6   9   2    1.50    3.30
  -6   9   2    6.20    4.40
   5  -9  -2    4.80    3.60
   5  -9  -2    4.10    4.10
  -5   9   2   -2.30    3.00
  -5   9   2   -0.40    3.40
  -5   9   2    0.50    3.60
   4  -9  -2    7.90    3.60
   4  -9  -2    3.50    4.40
   4  -9  -2    2.90    4.10
  -4   9   2    4.20    4.20
  -4   9   2    8.10    4.50
  -4   9   2    1.30    3.40
   3  -9  -2    4.70    3.50
   3  -9  -2   -6.50    4.00
   3  -9  -2    1.40    3.10
  -3   9   2    0.80    3.50
  -3   9   2    0.10    2.50
  -3   9   2   -1.50    3.30
   2  -9  -2   73.39    8.20
  -2   9   2   67.99    6.10
  -2   9   2   66.09    5.10
   1  -9  -2    0.50    5.00
   1  -9  -2   -0.30    3.70
  -1   9   2    5.30    3.30
  -1   9   2   -3.40    4.40
  -1   9   2    0.10    3.10
   0  -9  -2    3.30    6.10
   0   9   2    1.50    3.40
   0   9   2   -6.80    4.60
   9 -10  -2   -5.10    7.20
   9 -10  -2    2.40    6.20
  -9  10   2    4.50    5.40
   8 -10  -2   -5.50    5.70
   8 -10  -2   -6.30    5.20
  -8  10   2   11.50    6.60
  -8  10   2    5.20    5.10
   7 -10  -2    8.90    5.10
   7 -10  -2    3.50    5.60
   7 -10  -2    3.70    4.70
  -7  10   2   -9.90    5.40
  -7  10   2    5.70    4.60
  -7  10   2    0.60    4.40
   6 -10  -2   11.00    5.50
   6 -10  -2   10.30    4.90
   6 -10  -2   21.20    5.40
  -6  10   2   13.10    5.70
  -6  10   2   16.00    4.80
  -6  10   2   16.00    4.40
   5 -10  -2   12.30    5.10
   5 -10  -2   -2.40    4.30
   5 -10  -2    4.30    4.90
  -5  10   2    4.50    4.50
  -5  10   2    1.40    4.00
  -5  10   2   11.00    5.10
   4 -10  -2    7.20    4.70
   4 -10  -2   -3.40    5.20
   4 -10  -2    5.20    4.20
  -4  10   2    3.20    4.50
  -4  10   2    5.70    4.90
  -4  10   2   -1.00    4.30
   3 -10  -2    9.80    4.20
   3 -10  -2    5.20    5.30
   3 -10  -2    6.40    4.30
  -3  10   2   16.70    5.40
  -3  10   2   14.00    4.90
  -3  10   2    9.40    3.40
  -3  10   2    8.30    5.00
   2 -10  -2   49.70    7.00
  -2  10   2   41.70    6.50
  -2  10   2   47.00    4.70
  -2  10   2   46.10    5.20
   1 -10  -2   10.50    7.40
  -1  10   2   11.20    3.80
   7 -11  -2    8.00    6.60
   7 -11  -2    0.20    6.20
   7 -11  -2   -3.40    6.60
  -7  11   2    8.70    7.30
  -7  11   2    9.20    5.60
  -7  11   2    9.20    6.10
   6 -11  -2    2.20    5.70
   6 -11  -2   -5.60    5.90
   6 -11  -2   -8.20    6.00
  -6  11   2   -2.20    6.40
  -6  11   2   -5.30    5.80
  -6  11   2    0.20    5.50
   5 -11  -2   -5.10    5.40
   5 -11  -2    1.00    6.30
  -5  11   2   -1.70    6.00
  -5  11   2    0.90    5.80
  -5  11   2   -4.20    5.50
   4 -11  -2    8.20    5.50
   4 -11  -2    4.20    7.00
  -4  11   2    9.80    6.00
  -4  11   2    6.30    5.90
  -4  11   2    6.70    5.30
   4 -12   3    3.50    5.20
   5 -12   3   -5.80    5.50
  -1  11  -3    2.20    3.70
  -1  11  -3    3.10    4.40
  -2  11  -3    0.20    3.50
  -2  11  -3    2.20    3.90
   2 -11   3    1.90    3.40
  -3  11  -3   -2.50    3.20
  -3  11  -3   -6.80    5.50
   3 -11   3   -7.00    4.40
   3 -11   3   10.30    6.50
  -4  11  -3   -0.90    3.10
  -4  11  -3    5.40    3.80
   4 -11   3   -1.10    4.10
   4 -11   3   10.80    4.60
  -5  11  -3   -0.60    3.80
  -5  11  -3    2.00    3.00
   5 -11   3   -1.60    4.50
   5 -11   3    2.30    4.70
  -6  11  -3   10.60    3.60
   6 -11   3   14.40    4.80
   6 -11   3   11.70    5.30
  -7  11  -3    2.10    4.40
  -7  11  -3    0.30    3.60
   7 -11   3   -3.30    5.20
   7 -11   3    1.80    7.00
   7 -11   3   -9.90    8.20
  -8  11  -3    0.70    5.60
   1  10  -3    4.00    3.80
  -1 -10   3    7.50    7.50
   0  10  -3    4.60    3.20
   0  10  -3    4.80    3.90
   0 -10   3   -3.70    4.30
  -1  10  -3   20.90    4.50
  -1  10  -3   15.60    3.80
  -1  10  -3   12.20    3.60
   1 -10   3   13.60    2.50
   1 -10   3   14.20    4.00
  -2  10  -3   68.29    5.60
  -2  10  -3   57.79    6.10
  -2  10  -3   58.69    5.60
   2 -10   3   49.99    6.70
   2 -10   3   63.49    5.20
  -3  10  -3    8.90    2.80
  -3  10  -3    9.90    3.30
   3 -10   3   14.50    3.40
   3 -10   3   16.40    4.30
  -4  10  -3   14.40    2.80
  -4  10  -3   14.10    3.20
   4 -10   3   15.90    3.70
   4 -10   3   15.20    3.80
  -5  10  -3   -1.60    2.90
  -5  10  -3    2.20    2.50
   5 -10   3   -0.20    3.50
   5 -10   3    5.00    4.10
  -6  10  -3   31.90    3.60
  -6  10  -3   30.50    3.90
  -6  10  -3   30.40    4.20
   6 -10   3   28.80    5.10
   6 -10   3   36.50    5.40
  -7  10  -3   -4.70    3.70
  -7  10  -3    0.50    3.90
   7 -10   3    0.70    5.00
   7 -10   3    5.50    4.40
   7 -10   3    4.00    5.70
   8 -10   3   -1.70    6.60
   8 -10   3   -6.50    4.90
   2   9  -3   -5.40    2.40
  -2  -9   3   -0.10    4.40
  -2  -9   3    8.70    5.60
   1   9  -3    6.70    3.70
   1   9  -3    7.20    3.40
  -1  -9   3    5.90    4.60
  -1  -9   3    5.60    4.00
   0   9  -3    1.20    2.50
   0   9  -3    4.70    4.80
   0  -9   3   -1.70    3.10
   0  -9   3   -0.10    3.50
  -1   9  -3    8.90    2.90
  -1   9  -3    5.00    2.50
   1  -9   3    6.50    2.10
   1  -9   3    4.70    2.80
  -2   9  -3   52.49    4.50
  -2   9  -3   44.10    4.20
   2  -9   3   38.90    5.20
   2  -9   3   45.60    4.60
  -3   9  -3   15.80    2.30
   3  -9   3   14.10    3.40
   3  -9   3   10.60    3.10
  -4   9  -3   13.70    2.30
   4  -9   3   15.10    3.20
   4  -9   3   20.50    3.50
  -5   9  -3   16.70    2.60
   5  -9   3   20.90    3.80
   5  -9   3   16.10    3.40
  -6   9  -3    1.00    2.90
   6  -9   3    6.30    3.50
   6  -9   3    5.10    3.50
   6  -9   3    0.90    4.00
  -7   9  -3   -0.10    3.30
  -7   9  -3   -0.80    3.30
   7  -9   3    8.70    4.10
   7  -9   3    4.90    5.10
   7  -9   3   10.70    3.60
  -8   9  -3   21.70    3.90
  -8   9  -3   30.10    9.40
   8  -9   3   31.20    6.60
   8  -9   3   28.10    4.10
   8  -9   3   21.30    5.10
  -9   9  -3   -2.90    5.20
   9  -9   3    4.30    7.00
   4   8  -3   11.80    5.70
   4   8  -3    4.70    4.50
  -4  -8   3    7.40    6.60
  -4  -8   3    6.10    6.70
   3   8  -3   -0.70    2.60
   3   8  -3    2.90    4.10
  -3  -8   3   -8.30    4.80
  -3  -8   3    4.10    5.90
  -3  -8   3    8.00    4.10
   2   8  -3    7.40    2.90
   2   8  -3    2.30    3.40
  -2  -8   3    3.80    3.50
  -2  -8   3    1.60    4.20
   1   8  -3   47.50    4.30
  -1  -8   3   46.70    6.00
  -1  -8   3   44.80    5.30
   0   8  -3    6.70    2.40
   0   8  -3    6.80    2.50
   0  -8   3    4.90    1.50
   0  -8   3    8.00    2.70
   0  -8   3    5.10    2.90
  -1   8  -3   28.40    3.50
  -1   8  -3   18.80    2.80
   1  -8   3   18.70    2.40
   1  -8   3   20.50    3.20
  -2   8  -3    7.70    2.00
   2  -8   3    6.40    2.70
   2  -8   3   11.50    2.30
  -3   8  -3  141.09    5.20
   3  -8   3  151.78    7.20
   3  -8   3  141.09    6.70
  -4   8  -3  105.89    3.60
  -4   8  -3  107.39    4.60
   4  -8   3  103.59    6.30
   4  -8   3  104.99    6.20
  -5   8  -3   46.00    4.10
   5  -8   3   50.29    5.20
   5  -8   3   42.50    6.20
   5  -8   3   53.19    5.00
  -6   8  -3    1.50    2.60
   6  -8   3    0.40    3.60
   6  -8   3    8.50    2.90
   6  -8   3    1.60    2.50
  -7   8  -3    4.20    3.20
   7  -8   3    4.20    4.50
   7  -8   3    3.10    3.80
   7  -8   3   -1.60    2.70
  -8   8  -3   -0.30    3.50
  -8   8  -3   -2.60    6.50
   8  -8   3    5.50    3.70
   8  -8   3    3.70    5.30
  -9   8  -3    8.00    5.40
   9  -8   3   -2.30    5.60
   5   7  -3   -2.50    5.40
   5   7  -3   -6.10    4.50
  -5  -7   3   -6.40    5.80
  -5  -7   3   -5.30    6.30
   4   7  -3    9.40    4.50
   4   7  -3   -0.80    2.50
  -4  -7   3   -2.40    4.80
  -4  -7   3   -3.60    4.60
  -4  -7   3    4.00    3.90
   3   7  -3    3.40    2.20
   3   7  -3    8.50    3.20
  -3  -7   3    4.00    4.00
  -3  -7   3   -0.30    3.10
   2   7  -3   49.90    4.20
   2   7  -3   50.39    5.20
  -2  -7   3   58.49    5.90
  -2  -7   3   51.99    5.40
   1   7  -3   10.40    2.50
   1   7  -3    5.10    2.00
  -1  -7   3    8.40    2.80
  -1  -7   3    6.30    2.70
   0   7  -3   43.10    3.70
   0   7  -3   36.70    3.50
   0   7  -3   35.10    3.60
   0  -7   3   34.60    4.10
   0  -7   3   35.80    2.80
   0  -7   3   42.80    4.00
  -1   7  -3   25.20    3.00
  -1   7  -3   26.80    2.90
  -1   7  -3   22.30    2.60
   1  -7   3   23.30    2.90
   1  -7   3   24.60    3.40
  -2   7  -3   95.19    3.20
  -2   7  -3   96.59    4.70
  -2   7  -3   95.79    3.90
   2  -7   3   96.09    4.80
   2  -7   3   96.39    5.40
  -3   7  -3   84.49    3.10
  -3   7  -3   85.99    3.50
  -3   7  -3   82.79    4.60
   3  -7   3   85.99    4.90
   3  -7   3   84.99    5.20
  -4   7  -3  148.69    6.20
   4  -7   3  134.09    9.70
   4  -7   3  156.68    6.70
  -5   7  -3   11.70    2.10
  -5   7  -3   11.50    2.20
   5  -7   3   13.60    3.00
   5  -7   3    8.10    2.40
   5  -7   3    9.90    3.30
  -6   7  -3   60.99    4.90
   6  -7   3   64.89    6.40
   6  -7   3   52.29    4.40
   6  -7   3   44.60    5.20
  -7   7  -3   23.80    3.90
   7  -7   3   20.90    4.60
  -8   7  -3   -3.10    3.70
  -8   7  -3    3.20    3.10
   8  -7   3   -4.40    8.70
   8  -7   3    1.30    3.20
  -9   7  -3    3.20    5.10
   9  -7   3    0.30    5.20
   6   6  -3   -0.70    4.70
  -6  -6   3   12.40    5.80
  -6  -6   3   -6.10    6.60
   5   6  -3    3.10    2.30
   5   6  -3   -6.50    4.40
  -5  -6   3    0.50    3.80
  -5  -6   3   -0.50    9.50
  -5  -6   3   -2.70    4.30
   4   6  -3    1.70    2.20
   4   6  -3    4.00    3.60
  -4  -6   3   -1.00    4.00
  -4  -6   3   -1.10    3.50
  -4  -6   3    1.10    3.00
   3   6  -3   74.69    5.60
   3   6  -3   74.79    4.60
  -3  -6   3   82.29    5.90
  -3  -6   3   64.89    9.30
   2   6  -3   70.49    4.30
   2   6  -3   64.89    4.80
  -2  -6   3   69.19    5.20
  -2  -6   3   65.99    5.10
   1   6  -3    3.50    1.70
   1   6  -3    6.40    1.80
  -1  -6   3    2.80    0.90
  -1  -6   3    2.20    2.00
  -1  -6   3    2.60    1.90
   0   6  -3   45.70    3.00
   0   6  -3   44.80    3.40
   0   6  -3   44.40    3.10
   0  -6   3   42.00    2.60
   0  -6   3   42.30    3.40
   0  -6   3   39.30    3.80
  -1   6  -3  160.38    4.90
  -1   6  -3  161.68    5.20
  -1   6  -3  163.38    6.40
  -1   6  -3  164.08    5.90
   1  -6   3  168.68    6.80
   1  -6   3  156.88    5.80
  -2   6  -3   89.79    3.30
  -2   6  -3   90.99    4.40
  -2   6  -3   88.09    3.20
   2  -6   3   92.59    4.50
   2  -6   3   94.89    5.00
  -3   6  -3  168.48    6.60
  -3   6  -3  162.98    5.10
   3  -6   3  184.48    7.10
   3  -6   3  175.08    6.80
  -4   6  -3  102.69    4.20
  -4   6  -3  106.89    4.80
   4  -6   3   98.39    5.30
   4  -6   3  105.09    5.50
   4  -6   3  106.19    5.80
  -5   6  -3    8.40    2.00
  -5   6  -3    8.10    1.90
   5  -6   3    5.30    4.10
   5  -6   3    6.80    2.10
   5  -6   3   10.10    3.10
  -6   6  -3    8.80    2.60
   6  -6   3   10.70    2.80
   6  -6   3    8.70    2.30
   6  -6   3   10.30    3.50
  -7   6  -3   20.90    3.70
   7  -6   3    9.00    3.80
  -8   6  -3   16.40    4.60
  -8   6  -3    1.60    5.00
   8  -6   3   15.40    3.00
   8  -6   3   11.10    4.50
  -9   6  -3    0.70    5.70
  -9   6  -3   -7.20    5.40
   9  -6   3    4.30    5.20
   9  -6   3   -6.80    4.40
   6   5  -3    5.20    2.60
   6   5  -3    3.30    4.80
  -6  -5   3    2.20    4.50
  -6  -5   3    4.50    5.30
  -6  -5   3    2.20    4.00
   5   5  -3   14.90    2.80
  -5  -5   3   17.60    4.10
  -5  -5   3   16.00    4.80
  -5  -5   3   16.70    4.10
   4   5  -3   47.80    4.90
   4   5  -3   39.90    4.00
  -4  -5   3   38.00    4.60
  -4  -5   3   41.30    5.20
   3   5  -3   11.90    2.50
   3   5  -3    5.30    2.40
  -3  -5   3   11.50    2.70
  -3  -5   3   14.90    3.20
   2   5  -3   25.50    2.70
   2   5  -3   30.10    3.20
  -2  -5   3   30.60    3.50
  -2  -5   3   31.80    3.80
   1   5  -3   14.30    1.90
   1   5  -3   11.30    1.80
   1   5  -3   13.00    2.00
  -1  -5   3    8.30    2.10
  -1  -5   3   12.50    2.00
  -1  -5   3   11.80    1.20
   0   5  -3  223.98    7.60
   0   5  -3  212.78    6.80
   0   5  -3  223.08    7.10
   0   5  -3  223.68    6.60
   0  -5   3  227.88    6.70
   0  -5   3  218.08    6.70
   0  -5   3  227.88    7.80
  -1   5  -3   11.70    1.40
  -1   5  -3    9.60    1.30
  -1   5  -3    7.00    1.50
  -1   5  -3    5.30    1.40
   1  -5   3    8.80    1.80
   1  -5   3   11.50    2.00
  -2   5  -3 1372.06   32.30
  -2   5  -3 1329.07   33.80
  -2   5  -3 1302.97   31.90
   2  -5   3 1311.27   33.60
   2  -5   3 1323.07   33.80
  -3   5  -3  135.19    5.40
  -3   5  -3  141.19    4.30
   3  -5   3  134.39    5.80
   3  -5   3  134.39    5.60
   3  -5   3  128.59    5.90
  -4   5  -3    0.90    1.40
  -4   5  -3    2.80    1.50
   4  -5   3    4.60    2.10
   4  -5   3    3.40    1.90
   4  -5   3    4.20    1.50
  -5   5  -3   -1.90    2.80
  -5   5  -3    1.90    1.80
   5  -5   3    8.20    2.80
   5  -5   3    3.80    1.90
   5  -5   3    0.70    1.90
  -6   5  -3   14.40    3.00
  -6   5  -3   15.30    2.20
   6  -5   3    8.20    3.10
  -7   5  -3    2.80    3.10
   7  -5   3   -0.20    3.10
  -8   5  -3   -1.70    3.30
  -8   5  -3    9.30    4.40
   8  -5   3    7.50    4.50
   8  -5   3   13.50    3.60
  -9   5  -3   -4.80    5.30
   9  -5   3    2.40    4.90
   9  -5   3   -0.50    4.50
   7   4  -3    3.80    5.10
   7   4  -3   10.40    3.00
  -7  -4   3   11.20    6.40
  -7  -4   3   -1.70    4.80
  -7  -4   3    2.50    4.00
   6   4  -3    1.60    2.20
  -6  -4   3    0.50    3.10
  -6  -4   3    3.50    4.20
  -6  -4   3   -1.00    3.40
   5   4  -3   43.40    4.90
   5   4  -3   30.20    3.40
  -5  -4   3   48.20    4.80
  -5  -4   3   31.70    4.40
  -5  -4   3   38.50    4.60
   4   4  -3  162.38    6.40
  -4  -4   3  153.28    7.30
  -4  -4   3  161.48    7.30
   3   4  -3    2.80    1.70
   3   4  -3    3.00    1.40
  -3  -4   3    2.00    2.10
  -3  -4   3    1.10    2.10
   2   4  -3  109.69    4.70
   2   4  -3  110.09    4.50
  -2  -4   3  109.39    5.10
  -2  -4   3  112.29    4.80
  -2  -4   3  111.99    3.60
   1   4  -3    6.70    1.30
   1   4  -3    5.30    1.30
   1   4  -3    7.20    1.30
   1   4  -3    2.80    1.40
  -1  -4   3    4.30    1.50
  -1  -4   3    3.40    1.40
   0   4  -3   50.09    3.10
   0   4  -3   53.89    3.80
   0   4  -3   55.29    2.50
   0   4  -3   52.29    2.30
   0  -4   3   48.70    3.30
   0  -4   3   57.39    2.40
  -1   4  -3   85.99    3.10
  -1   4  -3   79.99    3.90
   1  -4   3   81.79    3.80
   1  -4   3   88.89    4.10
  -2   4  -3   56.39    3.20
  -2   4  -3   53.89    1.90
   2  -4   3   54.79    3.40
   2  -4   3   50.49    3.40
   2  -4   3   55.79    3.60
  -3   4  -3  345.17    9.00
  -3   4  -3  337.57   10.20
   3  -4   3  330.87   10.30
   3  -4   3  330.47   10.20
   3  -4   3  334.17   10.40
  -4   4  -3  111.39    4.90
  -4   4  -3  111.79    4.60
   4  -4   3  106.39    5.20
   4  -4   3  118.29    5.50
   4  -4   3  117.09    5.60
  -5   4  -3    1.90    1.40
  -5   4  -3    1.90    2.00
   5  -4   3   -0.40    1.60
   5  -4   3    1.00    2.30
  -6   4  -3   66.49    5.20
  -6   4  -3   49.40    4.10
   6  -4   3   58.09    5.20
   6  -4   3   63.49    4.70
  -7   4  -3   13.60    3.90
   7  -4   3   16.20    3.90
   7  -4   3   17.30    3.50
  -8   4  -3    4.80    3.30
  -8   4  -3   -2.80    4.00
   8  -4   3   -1.10    3.80
   8  -4   3    5.30    4.30
  -9   4  -3    7.00    5.70
   9  -4   3   -0.10    5.20
   9  -4   3    4.70    5.30
  -8  -3   3    8.00    5.90
   7   3  -3    6.10    2.10
   7   3  -3    8.30    4.30
   7   3  -3    7.90    2.60
  -7  -3   3    9.00    4.60
  -7  -3   3    4.90    3.10
   6   3  -3   17.40    2.30
   6   3  -3   12.30    2.50
  -6  -3   3   13.80    2.70
  -6  -3   3   14.00    3.80
   5   3  -3    4.40    1.80
   5   3  -3    1.10    2.20
  -5  -3   3    6.90    1.80
  -5  -3   3    2.90    2.00
  -5  -3   3    5.70    2.90
   4   3  -3    2.50    2.00
   4   3  -3   -2.30    1.40
  -4  -3   3    1.70    2.00
  -4  -3   3   -0.70    1.90
  -4  -3   3   -0.50    1.30
   3   3  -3   49.00    3.30
   3   3  -3   48.30    3.00
  -3  -3   3   50.89    2.50
  -3  -3   3   45.30    3.70
  -3  -3   3   42.30    3.50
   2   3  -3  119.09    4.40
   2   3  -3  116.99    4.20
   2   3  -3  117.69    4.40
  -2  -3   3  111.49    4.40
  -2  -3   3  112.29    4.80
  -2  -3   3  114.49    3.90
   1   3  -3   10.80    1.60
   1   3  -3   10.50    1.40
   1   3  -3    9.80    1.30
   1   3  -3    8.30    1.40
  -1  -3   3    9.20    1.30
  -1  -3   3   10.40    1.80
   0   3  -3  319.27    9.30
   0   3  -3  326.27    8.80
   0   3  -3  327.97    9.10
   0  -3   3  335.67    9.40
   0  -3   3  340.47    8.30
  -1   3  -3   81.09    3.50
   1  -3   3   84.29    4.10
   1  -3   3   93.39    3.90
  -2   3  -3   21.00    1.60
  -2   3  -3   18.90    2.40
   2  -3   3   19.50    2.70
   2  -3   3   25.50    2.60
  -3   3  -3  100.39    3.80
  -3   3  -3   90.19    4.30
  -3   3  -3   93.69    4.20
   3  -3   3   91.09    4.50
   3  -3   3   89.89    4.60
   3  -3   3   88.59    3.60
   3  -3   3  104.49    4.60
  -4   3  -3    8.90    1.90
  -4   3  -3   10.60    2.00
  -4   3  -3    6.00    1.60
   4  -3   3    8.50    1.90
   4  -3   3   10.80    2.30
   4  -3   3    5.30    1.50
  -5   3  -3   51.69    4.30
  -5   3  -3   53.39    3.80
  -5   3  -3   54.69    4.00
   5  -3   3   46.70    3.80
   5  -3   3   51.19    4.60
   5  -3   3   52.39    3.80
  -6   3  -3   74.99    5.70
  -6   3  -3   76.69    5.00
  -6   3  -3   84.59    5.00
   6  -3   3   85.99    5.40
   6  -3   3   74.39    5.80
   6  -3   3   69.79    5.10
  -7   3  -3    9.50    3.20
  -7   3  -3   11.40    3.80
   7  -3   3   16.20    3.70
   7  -3   3    7.60    3.50
   7  -3   3   12.90    3.50
  -8   3  -3   13.10    3.40
  -8   3  -3    9.90    3.60
  -8   3  -3   11.50    4.80
   8  -3   3    6.00    4.10
   8  -3   3    8.90    4.40
   8  -3   3    1.00    3.90
  -9   3  -3    6.40    6.40
   9  -3   3   -2.40    5.10
   9  -3   3   -2.00    5.60
   8   2  -3    5.90    2.70
   8   2  -3    6.10    3.30
  -8  -2   3    1.10    2.40
   7   2  -3   56.19    4.70
   7   2  -3   55.19    4.50
  -7  -2   3   53.09    5.20
  -7  -2   3   52.19    4.00
  -7  -2   3   55.29    6.50
   6   2  -3   64.99    4.20
   6   2  -3   64.69    4.20
   6   2  -3   74.19    5.20
  -6  -2   3   64.69    3.80
  -6  -2   3   65.49    4.70
  -6  -2   3   56.89    5.70
   5   2  -3   19.90    2.40
   5   2  -3   10.40    1.90
   5   2  -3   11.20    2.80
  -5  -2   3   12.10    2.10
  -5  -2   3   11.20    2.00
  -5  -2   3   13.60    2.90
   4   2  -3   14.40    1.90
   4   2  -3   16.20    1.80
   4   2  -3   12.20    2.00
  -4  -2   3   17.10    2.60
  -4  -2   3   13.70    1.90
   3   2  -3    1.00    1.30
   3   2  -3    0.30    1.20
  -3  -2   3    0.70    1.30
  -3  -2   3   -0.20    1.10
   2   2  -3  143.89    4.90
   2   2  -3  143.79    4.70
   2   2  -3  138.79    4.80
  -2  -2   3  147.19    4.70
  -2  -2   3  145.19    5.00
  -2  -2   3  138.39    4.80
   1   2  -3   -1.70    0.80
   1   2  -3   -1.20    1.10
  -1  -2   3   -1.20    1.00
  -1  -2   3    0.10    0.90
  -1  -2   3   -1.10    1.30
   0   2  -3   89.19    3.20
   0   2  -3   83.49    3.30
   0   2  -3   82.79    3.80
   0  -2   3   93.09    4.00
   0  -2   3   92.09    3.40
  -1   2  -3  142.09    3.80
  -1   2  -3  133.29    4.50
  -1   2  -3  132.89    5.00
   1  -2   3  139.79    4.60
   1  -2   3  128.49    3.80
   1  -2   3  137.89    5.20
  -2   2  -3  118.49    4.80
  -2   2  -3  129.79    4.20
  -2   2  -3  113.59    4.40
   2  -2   3  127.39    5.10
   2  -2   3  123.09    4.00
   2  -2   3  130.79    4.80
  -3   2  -3   30.50    2.70
  -3   2  -3   31.70    2.80
  -3   2  -3   29.80    2.70
   3  -2   3   24.00    2.70
   3  -2   3   34.60    2.50
   3  -2   3   31.90    3.10
  -4   2  -3   38.00    3.50
  -4   2  -3   35.20    3.10
  -4   2  -3   32.70    3.20
   4  -2   3   41.90    3.30
   4  -2   3   35.50    3.80
   4  -2   3   31.90    3.00
  -5   2  -3   79.79    5.10
  -5   2  -3   75.49    4.90
  -5   2  -3   73.29    5.20
   5  -2   3   81.09    5.20
   5  -2   3   82.99    5.10
   5  -2   3   74.09    4.60
  -6   2  -3    8.10    2.60
  -6   2  -3    9.60    3.70
  -6   2  -3    7.70    2.60
   6  -2   3   13.20    3.20
   6  -2   3    9.60    3.30
   6  -2   3    8.20    2.70
  -7   2  -3   14.00    4.20
  -7   2  -3   12.70    3.60
   7  -2   3    9.80    3.50
   7  -2   3    5.70    3.50
   7  -2   3   11.80    3.70
  -8   2  -3    2.40    3.50
  -8   2  -3    7.80    5.10
   8  -2   3    8.20    4.60
   8  -2   3    1.90    4.40
   8  -2   3    8.00    4.80
  -9   2  -3    7.90    7.40
  -9   2  -3    9.60    6.10
   9  -2   3    5.50    6.00
   9   1  -3    4.90    3.10
   9   1  -3    6.00    4.40
  -9  -1   3    8.00    4.90
   8   1  -3    0.20    2.50
   8   1  -3   11.70    3.40
  -8  -1   3   10.90    4.10
  -8  -1   3    4.80    3.90
   7   1  -3   51.49    4.30
   7   1  -3   50.59    4.80
  -7  -1   3   38.40    2.70
  -7  -1   3   42.00    5.30
  -7  -1   3   49.20    5.40
   6   1  -3    1.10    1.80
   6   1  -3   -1.10    1.90
  -6  -1   3    1.60    1.30
  -6  -1   3   -3.10    2.10
  -6  -1   3    3.10    2.20
   5   1  -3    1.00    1.20
   5   1  -3    0.50    1.70
  -5  -1   3    1.50    1.10
  -5  -1   3    0.50    1.80
  -5  -1   3    0.30    1.90
   4   1  -3   66.19    3.50
   4   1  -3   65.49    3.20
  -4  -1   3   67.29    3.00
  -4  -1   3   69.79    4.00
  -4  -1   3   67.69    3.60
   3   1  -3   25.00    2.00
   3   1  -3   30.00    2.40
   3   1  -3   23.70    2.10
  -3  -1   3   26.50    2.10
  -3  -1   3   24.00    2.30
  -3  -1   3   28.70    2.70
   2   1  -3  101.19    3.60
   2   1  -3  106.99    3.70
  -2  -1   3   99.99    3.60
  -2  -1   3  102.29    3.80
  -2  -1   3  102.29    3.90
  -2  -1   3  104.19    3.80
   1   1  -3  384.26   10.60
   1   1  -3  389.86   10.30
   1   1  -3  394.06   10.20
   1   1  -3  384.86   10.00
  -1  -1   3  398.96   10.70
  -1  -1   3  399.36   10.00
   0   1  -3   31.40    2.70
   0   1  -3   34.60    1.80
   0  -1   3   37.20    2.90
   0  -1   3   32.30    1.80
   0  -1   3   38.50    1.90
  -1   1  -3    0.90    1.30
  -1   1  -3    0.90    1.10
  -1   1  -3    1.50    1.00
   1  -1   3   -0.70    1.50
   1  -1   3   -1.10    0.90
  -2   1  -3   11.50    1.80
  -2   1  -3   11.80    1.60
  -2   1  -3   13.30    1.70
   2  -1   3   16.00    2.20
   2  -1   3   14.10    1.60
  -3   1  -3   72.79    3.90
  -3   1  -3   74.29    3.90
   3  -1   3   72.79    4.20
   3  -1   3   72.79    3.60
  -4   1  -3   56.79    4.10
  -4   1  -3   54.19    3.70
   4  -1   3   53.79    3.80
   4  -1   3   59.79    4.10
   4  -1   3   62.39    4.40
  -5   1  -3   66.29    5.30
  -5   1  -3   67.59    4.70
   5  -1   3   69.29    5.30
   5  -1   3   66.49    5.30
   5  -1   3   67.39    4.90
  -6   1  -3   60.79    5.20
  -6   1  -3   65.69    6.40
   6  -1   3   78.79    5.50
   6  -1   3   64.59    5.70
   6  -1   3   62.89    6.10
  -7   1  -3    1.80    4.10
   7  -1   3   -2.50    3.40
   7  -1   3    1.40    3.90
   7  -1   3    0.20    3.60
  -8   1  -3    8.10    6.00
  -8   1  -3   -5.90    4.50
  -8   1  -3   -1.00    6.50
   8  -1   3   -4.40    4.70
   8  -1   3   -2.20    5.20
   9   0  -3   14.50    3.40
   9   0  -3    5.60    4.40
  -9   0   3   15.80    5.20
  -9   0   3   21.10    4.50
   8   0  -3    5.20    2.50
   8   0  -3    7.60    3.60
  -8   0   3    6.00    3.80
  -8   0   3    7.30    3.40
   7   0  -3   50.79    4.60
   7   0  -3   38.60    4.00
  -7   0   3   47.90    4.80
  -7   0   3   43.40    5.50
   6   0  -3  154.98    6.40
   6   0  -3  166.68    6.10
  -6   0   3  156.18    6.90
  -6   0   3  162.58    6.80
   5   0  -3   57.29    3.60
   5   0  -3   53.19    3.20
  -5   0   3   56.39    3.80
  -5   0   3   58.59    3.90
   4   0  -3    2.60    1.10
   4   0  -3    3.60    1.40
  -4   0   3    0.50    1.50
  -4   0   3    2.60    1.50
  -4   0   3    1.80    0.90
   3   0  -3  646.94   16.00
   3   0  -3  631.14   16.30
   3   0  -3  615.54   16.50
  -3   0   3  631.64   16.60
  -3   0   3  616.64   15.70
   2   0  -3   42.50    2.40
   2   0  -3   43.90    2.30
   2   0  -3   39.20    2.70
   2   0  -3   41.70    2.00
  -2   0   3   44.00    2.80
  -2   0   3   46.00    2.40
   1   0  -3    0.40    1.10
   1   0  -3    0.80    1.00
  -1   0   3    0.40    1.40
   0   0  -3  168.58    4.80
   0   0  -3  172.08    5.80
   0   0   3  169.28    5.30
   0   0   3  187.28    6.00
  -1   0  -3  288.77    8.80
  -1   0  -3  291.97    8.40
   1   0   3  291.17    8.40
   1   0   3  297.17    8.90
  -2   0  -3  337.77    9.90
  -2   0  -3  334.27   10.10
   2   0   3  330.17    9.80
   2   0   3  339.27   10.30
  -3   0  -3   79.89    4.20
  -3   0  -3   74.89    4.30
   3   0   3   77.79    3.90
   3   0   3   71.39    4.50
  -4   0  -3    5.40    2.10
  -4   0  -3    6.00    2.20
   4   0   3    2.60    2.40
   4   0   3    2.60    2.00
   4   0   3    4.40    1.60
  -5   0  -3   36.40    4.90
  -5   0  -3   47.90    4.80
   5   0   3   45.00    4.40
   5   0   3   46.10    4.80
   5   0   3   36.80    5.30
  -6   0  -3   36.50    4.90
  -6   0  -3   28.30    6.90
   6   0   3   28.40    4.60
   6   0   3   40.80    5.20
   6   0   3   28.70    3.90
  -7   0  -3    8.30    4.60
  -7   0  -3   10.50    4.00
   7   0   3    4.20    4.00
   7   0   3    3.10    3.70
   7   0   3    6.00    4.70
  -8   0  -3   25.40   11.50
  -8   0  -3    7.90    5.30
  10  -1  -3   16.80    3.70
  10  -1  -3    2.20    4.90
 -10   1   3    5.60    6.70
   9  -1  -3    2.40    3.00
   9  -1  -3   -4.20    3.50
  -9   1   3    4.30    4.60
  -9   1   3   -2.70    3.40
   8  -1  -3   40.40    4.30
   8  -1  -3   39.80    4.40
  -8   1   3   47.40    6.40
  -8   1   3   34.70    4.20
   7  -1  -3    1.60    2.30
   7  -1  -3    0.00    2.00
  -7   1   3   -1.10    2.60
  -7   1   3   -0.60    2.30
   6  -1  -3    2.30    1.70
   6  -1  -3   -1.50    1.70
  -6   1   3    0.80    2.20
  -6   1   3   -0.20    1.70
   5  -1  -3    2.70    1.50
   5  -1  -3    5.70    1.70
  -5   1   3    4.20    2.10
  -5   1   3    5.60    1.80
   4  -1  -3  402.26   10.90
   4  -1  -3  400.76   10.40
   4  -1  -3  382.86   11.30
   4  -1  -3  375.66    9.80
  -4   1   3  392.56   11.50
  -4   1   3  402.96    9.90
   3  -1  -3  181.68    6.30
   3  -1  -3  190.38    5.20
   3  -1  -3  185.68    5.70
   3  -1  -3  190.68    5.50
  -3   1   3  187.48    6.40
  -3   1   3  191.78    5.50
   2  -1  -3 2057.49   50.69
   2  -1  -3 2093.89   51.09
  -2   1   3 2136.49   50.69
  -2   1   3 2153.88   51.19
  -2   1   3 2023.40   49.80
   1  -1  -3   40.80    2.90
   1  -1  -3   42.60    1.50
  -1   1   3   40.50    3.00
  -1   1   3   40.40    2.90
   0  -1  -3  183.38    6.40
   0  -1  -3  197.58    6.30
   0   1   3  188.38    6.50
   0   1   3  187.68    6.10
  -1  -1  -3  243.38    7.70
  -1  -1  -3  242.98    8.00
   1   1   3  238.98    7.60
   1   1   3  248.38    8.10
  -2  -1  -3   11.10    2.10
  -2  -1  -3   10.80    1.80
   2   1   3   10.40    2.00
   2   1   3    8.80    1.70
  -3  -1  -3   13.10    2.50
  -3  -1  -3   16.90    2.70
   3   1   3   15.60    2.20
   3   1   3   15.90    2.80
  -4  -1  -3  135.69   10.10
  -4  -1  -3  151.38    7.00
   4   1   3  148.69    6.40
   4   1   3  159.38    6.50
   4   1   3  151.78    7.40
  -5  -1  -3   14.90    3.60
  -5  -1  -3    2.60    5.60
   5   1   3    9.90    3.90
   5   1   3    6.40    2.90
   5   1   3   13.10    2.80
  -6  -1  -3    4.80    3.70
  -6  -1  -3   -7.40    3.20
   6   1   3    1.80    4.20
   6   1   3    1.40    3.10
  -7  -1  -3   -4.60    4.90
  -7  -1  -3   -8.50    4.70
   7   1   3    6.70    3.90
   7   1   3    0.20    4.90
  10  -2  -3    3.10    3.40
  10  -2  -3    1.70    5.00
 -10   2   3    0.50    5.90
 -10   2   3    4.40    5.60
 -10   2   3   -4.20    4.40
   9  -2  -3   10.90    2.90
   9  -2  -3   11.20    4.00
  -9   2   3    9.60    4.90
  -9   2   3   21.00    4.20
  -9   2   3    8.20    3.50
   8  -2  -3  137.79    7.40
   8  -2  -3  124.39    6.00
  -8   2   3  150.98    8.50
  -8   2   3  143.69    7.60
  -8   2   3  141.29    7.50
   7  -2  -3  281.17    8.80
   7  -2  -3  249.18   12.90
  -7   2   3  274.07   10.70
  -7   2   3  294.67   10.50
  -7   2   3  283.37   10.10
   6  -2  -3   66.29    4.20
   6  -2  -3   56.49    3.30
  -6   2   3   56.79    4.40
  -6   2   3   55.59    4.50
  -6   2   3   57.29    3.80
   5  -2  -3   45.20    2.50
   5  -2  -3   39.30    3.20
  -5   2   3   42.80    3.70
  -5   2   3   42.20    3.10
   4  -2  -3  109.49    3.40
   4  -2  -3  100.39    4.70
   4  -2  -3  104.79    4.00
   4  -2  -3  106.29    3.70
  -4   2   3  106.09    4.00
  -4   2   3  107.59    4.90
   3  -2  -3   10.70    1.80
   3  -2  -3   11.80    1.30
   3  -2  -3   10.60    1.60
  -3   2   3   11.20    1.20
  -3   2   3   11.10    1.70
  -3   2   3   12.30    2.00
   2  -2  -3  359.56   10.40
   2  -2  -3  374.26    9.30
   2  -2  -3  369.26   10.30
  -2   2   3  361.66   10.50
  -2   2   3  354.86    9.30
  -2   2   3  367.16   10.40
   1  -2  -3   41.90    3.10
   1  -2  -3   48.40    2.20
  -1   2   3   42.40    2.80
  -1   2   3   45.50    3.00
  -1   2   3   42.20    3.30
   0  -2  -3  264.67    8.20
   0  -2  -3  259.57    7.50
   0  -2  -3  256.37    8.40
   0   2   3  259.57    8.00
   0   2   3  258.87    8.50
   0   2   3  256.47    8.10
  -1  -2  -3  252.47    8.50
  -1  -2  -3  258.07    8.40
   1   2   3  257.67    8.30
   1   2   3  255.97    8.70
  -2  -2  -3   73.99    4.40
  -2  -2  -3   71.79    4.20
   2   2   3   64.09    3.70
   2   2   3   79.69    4.90
  -3  -2  -3  158.18    6.90
  -3  -2  -3  145.29    6.80
   3   2   3  156.28    6.40
   3   2   3  158.78    7.50
  -4  -2  -3  180.48    8.00
  -4  -2  -3  172.68    8.10
   4   2   3  172.28    7.10
   4   2   3  170.18    7.30
   4   2   3  176.38    8.60
  -5  -2  -3    4.20    3.10
  -5  -2  -3   -1.70    3.40
   5   2   3   -1.50    2.80
   5   2   3   -3.20    2.90
  -6  -2  -3   17.00    4.30
  -6  -2  -3   14.90    5.20
   6   2   3    7.20    3.70
   6   2   3    2.50    3.60
  -7  -2  -3    9.90    6.60
   7   2   3   -1.70    4.40
  10  -3  -3   13.80    5.00
  10  -3  -3   10.80    3.30
 -10   3   3    5.20    5.60
 -10   3   3    5.70    5.20
 -10   3   3    6.70    4.50
   9  -3  -3    3.50    2.60
  -9   3   3    2.90    3.40
  -9   3   3    2.20    4.30
  -9   3   3    4.50    3.70
   8  -3  -3    8.70    3.10
   8  -3  -3    9.50    2.40
  -8   3   3   10.70    2.90
  -8   3   3    8.60    2.90
  -8   3   3    9.10    3.50
   7  -3  -3    6.50    2.40
   7  -3  -3    6.40    2.00
  -7   3   3    3.60    3.00
  -7   3   3    8.20    2.70
  -7   3   3   10.80    2.60
   6  -3  -3    8.10    1.80
   6  -3  -3    6.80    1.60
  -6   3   3    0.70    2.00
  -6   3   3    7.40    2.00
   5  -3  -3   50.99    2.70
   5  -3  -3   54.19    3.50
   5  -3  -3   58.19    2.40
  -5   3   3   53.69    4.00
  -5   3   3   51.79    3.30
   4  -3  -3 1042.50   26.50
   4  -3  -3 1080.09   26.40
   4  -3  -3 1067.39   27.60
   4  -3  -3 1077.29   26.50
  -4   3   3 1042.20   26.40
  -4   3   3 1044.40   27.60
   3  -3  -3    3.60    1.10
   3  -3  -3    6.50    1.50
   3  -3  -3    3.60    1.20
  -3   3   3    3.40    1.10
  -3   3   3    6.20    1.90
   2  -3  -3   -1.10    1.10
   2  -3  -3    3.00    1.50
   2  -3  -3    1.40    1.30
  -2   3   3   -1.10    1.40
  -2   3   3    0.10    0.90
  -2   3   3    0.70    1.60
   1  -3  -3  177.38    6.50
   1  -3  -3  184.48    5.70
  -1   3   3  173.98    6.30
  -1   3   3  180.78    6.20
  -1   3   3  171.88    6.70
   0  -3  -3  581.74   15.40
   0  -3  -3  570.64   16.20
   0  -3  -3  567.64   16.00
   0   3   3  555.54   16.20
   0   3   3  573.94   15.40
   0   3   3  583.74   15.90
  -1  -3  -3   46.60    3.40
  -1  -3  -3   50.49    3.80
  -1  -3  -3   47.50    3.70
   1   3   3   37.20    3.20
   1   3   3   49.00    3.60
   1   3   3   51.79    4.30
  -2  -3  -3    3.50    2.10
  -2  -3  -3    4.50    2.30
   2   3   3    5.80    1.90
   2   3   3    4.90    2.60
  -3  -3  -3   20.80    3.20
  -3  -3  -3   19.30    3.30
   3   3   3   16.30    2.40
  -4  -3  -3    8.50    3.40
  -4  -3  -3   11.60    3.70
   4   3   3   10.90    2.70
  -5  -3  -3    2.30    3.70
  -5  -3  -3    5.20    4.60
   5   3   3    5.10    3.00
   5   3   3    6.20    3.20
  -6  -3  -3   -0.80    5.40
  -6  -3  -3   -5.30    6.00
   6   3   3   -1.00    3.50
  10  -4  -3   11.60    5.10
  10  -4  -3    7.20    3.00
 -10   4   3    7.20    4.90
 -10   4   3    6.30    5.80
 -10   4   3    4.90    4.00
   9  -4  -3   71.99    5.00
  -9   4   3   64.39    6.70
  -9   4   3   92.69    6.50
  -9   4   3   71.69    8.60
   8  -4  -3    0.70    2.00
   8  -4  -3    4.30    2.90
  -8   4   3   -1.00    2.70
  -8   4   3    0.30    3.10
  -8   4   3   -1.50    2.90
   7  -4  -3   27.00    3.40
   7  -4  -3   23.90    1.80
   7  -4  -3   28.90    2.90
  -7   4   3   20.90    3.00
  -7   4   3   30.60    4.00
   6  -4  -3    0.30    1.40
   6  -4  -3    1.20    1.40
   6  -4  -3    1.50    1.90
  -6   4   3   -1.80    1.70
  -6   4   3    3.30    1.70
   5  -4  -3   37.70    3.50
   5  -4  -3   32.60    3.10
   5  -4  -3   36.10    2.80
   5  -4  -3   34.00    2.60
  -5   4   3   37.50    3.10
  -5   4   3   37.20    3.80
   4  -4  -3  113.19    5.10
   4  -4  -3  115.89    4.80
   4  -4  -3  117.19    4.20
   4  -4  -3  121.99    4.70
  -4   4   3  115.79    5.40
  -4   4   3  109.59    4.50
   3  -4  -3    6.30    1.60
   3  -4  -3    8.50    1.30
   3  -4  -3   11.30    2.00
   3  -4  -3    8.60    1.70
  -3   4   3    7.10    1.40
  -3   4   3    6.00    1.70
   2  -4  -3    1.90    1.50
   2  -4  -3    4.30    1.60
   2  -4  -3    3.70    1.20
   2  -4  -3    4.90    1.60
  -2   4   3    5.00    1.20
  -2   4   3    4.90    1.40
  -2   4   3    1.30    1.40
  -2   4   3    4.50    1.80
   1  -4  -3   95.49    4.60
   1  -4  -3   94.09    4.30
  -1   4   3   86.59    4.30
  -1   4   3   93.69    4.60
   0  -4  -3   54.09    4.20
   0  -4  -3   58.99    4.00
   0  -4  -3   56.69    3.80
   0   4   3   55.39    3.60
   0   4   3   56.79    3.70
  -1  -4  -3  148.49    6.60
  -1  -4  -3  137.69    6.50
   1   4   3  147.99    6.10
   1   4   3  141.79    5.80
  -2  -4  -3  276.37   10.40
  -2  -4  -3  278.27   10.40
  -2  -4  -3  278.17   10.30
   2   4   3  276.77    9.00
  -3  -4  -3   16.20    4.00
  -3  -4  -3    8.20    3.50
  -3  -4  -3   16.20    3.30
   3   4   3   13.10    2.80
  -4  -4  -3   -2.00    4.10
  -4  -4  -3   -3.10    3.60
   4   4   3    3.50    3.10
   4   4   3    0.30    2.50
  -5  -4  -3   15.90    6.00
  -5  -4  -3    8.00    4.70
   5   4   3   10.30    3.40
  11  -5  -3    4.90    3.50
 -11   5   3    0.20    8.20
  10  -5  -3    7.70    4.60
  10  -5  -3    0.50    2.90
 -10   5   3    5.20    4.80
 -10   5   3    0.10    4.20
 -10   5   3    1.20    5.30
   9  -5  -3   -1.70    3.10
   9  -5  -3    1.30    2.50
  -9   5   3    0.70    3.80
  -9   5   3    1.50    3.70
  -9   5   3    2.10    3.60
   8  -5  -3   31.70    2.30
   8  -5  -3   36.90    3.30
  -8   5   3   39.70    4.60
  -8   5   3   37.70    5.10
  -8   5   3   30.20    3.70
   7  -5  -3    7.50    1.60
   7  -5  -3    5.50    1.80
  -7   5   3    4.00    2.70
  -7   5   3    3.40    2.30
   6  -5  -3    4.50    2.00
   6  -5  -3    3.50    1.80
  -6   5   3    6.10    1.90
  -6   5   3   -0.20    2.70
   5  -5  -3   17.50    2.30
   5  -5  -3   18.70    2.70
   5  -5  -3   17.90    2.60
   5  -5  -3   15.60    1.90
  -5   5   3   11.40    2.00
  -5   5   3   13.70    2.80
   4  -5  -3   11.00    2.20
   4  -5  -3   12.60    1.80
   4  -5  -3   12.70    2.40
   4  -5  -3   12.90    2.30
  -4   5   3   15.60    2.80
  -4   5   3   11.50    1.80
   3  -5  -3   15.60    2.50
   3  -5  -3   12.20    2.20
   3  -5  -3   15.20    2.40
   3  -5  -3   13.30    1.90
  -3   5   3   14.50    2.00
  -3   5   3   13.30    1.50
  -3   5   3   11.30    2.30
  -3   5   3   10.60    1.90
   2  -5  -3  181.98    6.70
   2  -5  -3  180.48    7.10
   2  -5  -3  174.98    6.70
   2  -5  -3  179.98    5.60
  -2   5   3  173.28    6.70
  -2   5   3  186.48    7.00
  -2   5   3  182.68    6.40
  -2   5   3  177.98    5.50
   1  -5  -3    0.00    1.80
   1  -5  -3    2.90    2.20
  -1   5   3    2.80    2.00
  -1   5   3    1.50    1.60
  -1   5   3    1.40    1.50
   0  -5  -3   15.80    2.40
   0  -5  -3   12.80    2.80
   0   5   3   11.80    2.10
   0   5   3   18.60    2.40
   0   5   3   12.40    2.30
  -1  -5  -3   48.50    5.10
  -1  -5  -3   50.19    5.40
  -1  -5  -3   47.60    4.70
   1   5   3   43.20    4.20
   1   5   3   40.90    4.30
  -2  -5  -3   99.49    6.50
  -2  -5  -3   96.79    7.30
  -2  -5  -3   96.69    6.80
   2   5   3   97.99    5.20
  -3  -5  -3   19.30    5.20
  -3  -5  -3   22.10    4.20
  -3  -5  -3   30.30    5.10
   3   5   3   32.10    4.00
   3   5   3   20.50    3.10
   3   5   3   25.80    3.50
  -4  -5  -3    2.20    5.40
  -4  -5  -3    3.10    4.00
  -4  -5  -3   -0.50    5.80
   4   5   3    4.30    2.80
   4   5   3    3.90    2.70
   4   5   3    2.60    3.00
  10  -6  -3    2.70    3.00
  10  -6  -3    9.10    4.40
 -10   6   3    3.50    5.20
 -10   6   3    5.90    4.70
 -10   6   3   -4.30    4.70
   9  -6  -3   16.40    3.60
   9  -6  -3   14.40    1.80
   9  -6  -3   13.20    2.60
  -9   6   3   11.40    3.90
  -9   6   3   20.00    4.30
  -9   6   3   10.50    4.60
   8  -6  -3    1.00    2.10
   8  -6  -3    2.10    1.90
  -8   6   3    4.00    3.00
  -8   6   3    2.30    3.10
   7  -6  -3    5.80    2.40
   7  -6  -3    6.30    3.10
  -7   6   3    0.80    2.40
   6  -6  -3    0.30    2.20
   6  -6  -3    0.70    2.60
   6  -6  -3   -3.50    1.90
  -6   6   3   -0.60    2.00
  -6   6   3   -1.60    2.20
   5  -6  -3    4.20    2.40
   5  -6  -3    4.30    1.50
   5  -6  -3    1.80    2.20
   5  -6  -3    4.20    2.10
  -5   6   3    5.30    2.60
  -5   6   3    4.30    2.00
   4  -6  -3   15.20    2.70
   4  -6  -3   15.30    2.90
   4  -6  -3   18.70    2.00
   4  -6  -3   15.80    2.50
  -4   6   3   13.10    3.00
  -4   6   3   14.20    2.30
   3  -6  -3   -0.30    2.00
   3  -6  -3   -0.50    2.00
   3  -6  -3   -1.10    2.10
  -3   6   3    0.90    1.70
  -3   6   3    1.60    2.20
  -3   6   3    1.60    3.10
  -3   6   3    0.40    1.30
   2  -6  -3   15.90    2.50
   2  -6  -3   20.60    3.00
   2  -6  -3   19.00    2.00
   2  -6  -3   19.70    2.80
  -2   6   3   16.30    2.00
  -2   6   3   18.70    2.60
  -2   6   3   14.90    2.30
  -2   6   3   18.80    2.90
   1  -6  -3   33.70    3.60
   1  -6  -3   24.90    3.40
  -1   6   3   27.20    3.50
  -1   6   3   29.20    3.20
  -1   6   3   25.70    3.20
   0  -6  -3   59.89    4.80
   0  -6  -3   51.49    7.60
   0  -6  -3   62.89    5.40
   0   6   3   68.09    4.80
   0   6   3   55.49    4.60
   0   6   3   54.29    4.20
  -1  -6  -3  103.09    7.70
  -1  -6  -3  106.29    6.90
  -1  -6  -3  102.09    6.90
   1   6   3  116.89    5.60
   1   6   3  107.79    5.80
  -2  -6  -3    2.90    4.50
  -2  -6  -3   15.20    4.40
  -2  -6  -3    1.70    4.20
   2   6   3   14.90    3.40
   2   6   3    5.90    2.60
   2   6   3    5.60    2.70
  -3  -6  -3   -3.20    5.30
  -3  -6  -3    2.30    4.60
  -3  -6  -3   -1.70    5.60
   3   6   3    4.10    3.20
   3   6   3    0.50    2.30
   3   6   3    2.00    2.60
   3   6   3   -1.70    4.80
 -10   7   3   -2.70    4.90
 -10   7   3    2.40    5.50
 -10   7   3   -0.20    4.50
   9  -7  -3    6.70    2.90
   9  -7  -3   12.40    3.70
  -9   7   3    7.40    3.90
  -9   7   3    8.10    4.10
   8  -7  -3    9.90    2.90
   8  -7  -3    5.20    2.90
  -8   7   3    0.00    3.20
  -8   7   3    4.40    3.20
   7  -7  -3    2.30    3.90
   7  -7  -3   -6.40    2.40
   7  -7  -3    0.20    2.60
  -7   7   3    3.30    2.60
  -7   7   3    0.50    2.90
   6  -7  -3    1.50    2.40
   6  -7  -3    0.40    2.70
   6  -7  -3   -1.60    3.00
  -6   7   3    4.60    2.70
  -6   7   3   -1.40    3.20
   5  -7  -3   11.60    3.10
   5  -7  -3   13.00    2.80
   5  -7  -3   19.60    4.60
  -5   7   3   15.40    2.70
  -5   7   3    7.00    3.20
   4  -7  -3    2.70    1.60
   4  -7  -3    0.80    2.40
   4  -7  -3    3.70    2.70
  -4   7   3    1.60    2.10
  -4   7   3    0.10    3.00
  -4   7   3    3.10    2.10
   3  -7  -3   14.80    2.90
   3  -7  -3   10.50    2.60
   3  -7  -3   11.80    3.00
  -3   7   3   11.70    2.80
  -3   7   3   19.50    3.40
  -3   7   3    8.30    2.60
  -3   7   3   12.80    1.90
   2  -7  -3   18.00    3.70
   2  -7  -3   21.30    2.40
   2  -7  -3   24.40    5.00
  -2   7   3   18.50    2.90
  -2   7   3   20.30    2.60
  -2   7   3   17.90    3.40
   1  -7  -3   25.70    4.20
  -1   7   3   22.10    2.90
  -1   7   3   26.50    3.50
  -1   7   3   37.20    6.20
   0  -7  -3   22.10    4.70
   0  -7  -3   19.50    3.30
   0  -7  -3   22.00    4.40
   0   7   3   19.80    3.30
   0   7   3   19.40    3.10
  -1  -7  -3   34.90    5.60
  -1  -7  -3   37.70    5.70
  -1  -7  -3   39.70    4.80
   1   7   3   34.40    4.50
   1   7   3   31.30    4.20
   1   7   3   43.00    5.00
  -2  -7  -3    0.30    5.60
  -2  -7  -3    0.70    4.80
  -2  -7  -3    6.90    6.00
   2   7   3    5.00    3.50
  10  -8  -3   -0.30    4.10
  10  -8  -3    1.00    4.00
 -10   8   3   -6.70    6.20
 -10   8   3    9.10    5.70
   9  -8  -3   17.50    3.80
  -9   8   3   22.60    4.70
  -9   8   3   11.50    4.90
   8  -8  -3    1.20    4.40
   8  -8  -3    2.50    3.60
   8  -8  -3   -7.80    3.40
  -8   8   3   -2.80    3.60
  -8   8   3    3.60    3.70
   7  -8  -3   -1.60    3.30
   7  -8  -3    1.70    3.20
   7  -8  -3   -1.30    3.80
  -7   8   3    2.60    3.10
  -7   8   3   -5.50    3.50
   6  -8  -3    2.90    3.20
   6  -8  -3    3.40    3.80
   6  -8  -3    0.70    3.20
  -6   8   3    3.40    3.50
  -6   8   3    8.90    3.20
   5  -8  -3    2.30    3.40
   5  -8  -3    3.20    3.60
   5  -8  -3    0.10    3.00
  -5   8   3    4.60    2.80
  -5   8   3   -2.90    3.50
  -5   8   3    3.30    3.10
   4  -8  -3    0.70    3.30
   4  -8  -3   -1.80    2.80
   4  -8  -3    1.50    1.60
   4  -8  -3   -1.40    3.00
  -4   8   3   -1.40    3.60
  -4   8   3    0.90    2.70
  -4   8   3    0.80    3.00
   3  -8  -3   11.20    3.30
   3  -8  -3    7.60    1.90
   3  -8  -3    4.60    3.80
  -3   8   3    8.50    2.40
  -3   8   3    8.50    3.10
  -3   8   3    6.60    3.50
   2  -8  -3    3.00    2.10
   2  -8  -3    1.80    4.30
  -2   8   3    3.50    3.30
  -2   8   3    2.30    2.60
   1  -8  -3   62.79    8.10
  -1   8   3   62.09    5.00
  -1   8   3   58.19    6.70
  -1   8   3   65.09    6.20
   0  -8  -3   11.30    5.40
   0   8   3   11.40    3.30
   0   8   3   12.90    4.40
   0   8   3   11.30    3.30
  -1  -8  -3   -1.10    5.80
  -1  -8  -3   -4.20    5.60
   1   8   3   -1.60    3.10
   1   8   3    8.20    3.60
 -10   9   3  -12.80    5.60
   9  -9  -3    6.80    4.40
  -9   9   3    7.30    5.90
  -9   9   3    5.40    5.10
   8  -9  -3   -3.90    5.00
   8  -9  -3   -2.30    4.30
   8  -9  -3    2.80    4.30
  -8   9   3    3.40    5.50
  -8   9   3   10.00    4.60
   7  -9  -3    2.10    4.20
   7  -9  -3   -1.10    4.30
   7  -9  -3    1.10    4.60
  -7   9   3    3.80    4.60
  -7   9   3    5.60    3.90
   6  -9  -3    1.50    4.50
   6  -9  -3    1.20    4.00
  -6   9   3   -3.70    4.50
  -6   9   3   -5.50    3.60
  -6   9   3   -2.80    3.60
   5  -9  -3   -4.40    3.80
   5  -9  -3    6.30    4.40
   5  -9  -3   14.30    4.30
  -5   9   3    4.00    4.30
  -5   9   3    6.50    3.70
  -5   9   3   -0.30    3.50
   4  -9  -3   24.00    4.90
   4  -9  -3   21.80    5.10
  -4   9   3   17.50    4.30
  -4   9   3   31.70    5.20
  -4   9   3   17.90    3.90
   3  -9  -3   -5.80    4.30
   3  -9  -3    4.90    3.80
  -3   9   3   10.70    4.30
  -3   9   3    1.40    2.80
  -3   9   3    4.80    5.10
   2  -9  -3   22.20    4.10
   2  -9  -3   12.60    2.70
   2  -9  -3   15.10    5.40
  -2   9   3   16.50    4.40
  -2   9   3   10.50    3.30
  -2   9   3    9.20    4.70
   1  -9  -3    5.20    5.80
  -1   9   3    4.30    3.50
  -1   9   3   -2.60    4.90
  -1   9   3    2.20    3.60
   0  -9  -3    2.00    7.00
   0   9   3   -6.40    3.70
   9 -10  -3   10.00    7.20
  -9  10   3    3.80    5.90
   8 -10  -3   -0.80    6.40
   8 -10  -3   -8.80    5.40
  -8  10   3    8.80    7.10
  -8  10   3   15.20    5.50
   7 -10  -3   13.80    5.50
   7 -10  -3    4.90    5.80
   7 -10  -3   -3.40    5.10
  -7  10   3   -6.70    4.40
  -7  10   3    3.50    5.90
  -7  10   3   -0.60    5.00
   6 -10  -3    4.50    5.30
   6 -10  -3    6.50    5.20
   6 -10  -3   -0.40    5.40
  -6  10   3    3.50    5.30
  -6  10   3   -4.50    4.90
  -6  10   3   -1.00    4.50
   5 -10  -3    6.40    5.40
   5 -10  -3   -2.20    5.20
   5 -10  -3    3.10    4.80
  -5  10   3   -0.50    4.90
  -5  10   3    1.50    4.80
  -5  10   3    6.00    4.60
   4 -10  -3    4.10    5.80
   4 -10  -3    6.10    5.10
   4 -10  -3    8.90    4.90
  -4  10   3   10.80    5.10
  -4  10   3    2.70    4.90
  -4  10   3    3.80    4.90
   3 -10  -3   -0.10    6.20
  -3  10   3   -3.00    5.10
  -3  10   3   13.80    5.20
  -3  10   3   16.70    3.50
   2 -10  -3   21.00    7.30
  -2  10   3   17.40    3.80
  -2  10   3   15.40    5.00
   6 -11  -3    1.20    6.70
   6 -11  -3   -0.50    6.50
  -6  11   3   -2.30    6.00
  -6  11   3    6.90    7.00
  -1  11  -4    2.00    3.30
  -1  11  -4   -2.80    3.80
  -2  11  -4    3.60    3.50
   2 -11   4    0.20    4.70
   2 -11   4    2.20    3.60
  -3  11  -4    0.70    3.00
   3 -11   4   -2.80    4.50
   3 -11   4    4.90    3.90
  -4  11  -4    0.30    2.60
   4 -11   4   -0.10    4.20
   4 -11   4   -2.20    4.40
  -5  11  -4   30.70    3.20
   5 -11   4   30.40    5.50
   5 -11   4   27.60    5.80
  -6  11  -4   10.20    3.10
  -6  11  -4   13.90    3.70
   6 -11   4   10.40    6.70
   6 -11   4   16.70    5.70
   6 -11   4   14.40    5.20
  -7  11  -4   15.50    4.80
   7 -11   4    9.00    7.60
   1  10  -4    0.20    4.30
   1  10  -4    3.00    3.10
  -1 -10   4    0.50    5.20
   0  10  -4    1.80    3.60
   0  10  -4   -1.20    3.00
   0 -10   4    9.60    4.30
  -1  10  -4    1.30    3.40
  -1  10  -4    0.90    3.10
  -1  10  -4   -3.50    3.00
   1 -10   4    2.30    3.50
   1 -10   4   -1.50    2.40
  -2  10  -4    5.00    3.10
  -2  10  -4    8.50    2.70
   2 -10   4    8.40    3.80
   2 -10   4    5.40    3.10
  -3  10  -4    6.20    2.30
  -3  10  -4   -4.10    2.80
   3 -10   4    3.70    3.40
   3 -10   4    4.20    3.80
  -4  10  -4    2.30    2.10
  -4  10  -4    5.30    3.00
   4 -10   4    9.10    3.90
   4 -10   4   12.30    4.00
  -5  10  -4   45.10    4.70
  -5  10  -4   40.00    4.30
  -5  10  -4   47.70    3.90
   5 -10   4   63.39    7.50
   5 -10   4   58.09    6.80
   5 -10   4   54.69    6.70
  -6  10  -4   13.40    2.70
  -6  10  -4   11.00    2.90
  -6  10  -4   11.80    3.10
  -6  10  -4   12.80    3.40
   6 -10   4   17.80    4.70
   6 -10   4    3.90    5.40
   6 -10   4   17.30    5.00
  -7  10  -4    2.50    3.60
   7 -10   4   -4.00    6.00
   7 -10   4    2.10    4.60
   7 -10   4    5.50    4.70
  -8  10  -4   -5.00    4.60
   8 -10   4    1.90    7.50
   3   9  -4   15.30    5.30
   3   9  -4   18.60    5.20
  -3  -9   4    2.90    6.60
   2   9  -4    6.40    2.90
   2   9  -4   -1.70    4.00
  -2  -9   4    3.90    4.60
  -2  -9   4    8.30    5.00
   1   9  -4    7.60    3.20
   1   9  -4    5.00    3.60
  -1  -9   4    4.20    3.80
  -1  -9   4   12.20    4.80
   0   9  -4   -3.20    2.70
   0   9  -4    2.20    2.80
   0   9  -4    9.50    3.20
   0  -9   4    1.10    1.70
   0  -9   4   -1.60    3.40
  -1   9  -4   11.00    2.40
  -1   9  -4   11.10    3.40
   1  -9   4    8.00    2.60
   1  -9   4    9.40    3.30
  -2   9  -4   77.89    4.20
   2  -9   4   74.49    5.50
   2  -9   4   93.79    6.70
  -3   9  -4  100.59    4.30
   3  -9   4   84.49    9.90
   3  -9   4  109.09    6.90
  -4   9  -4    3.20    1.70
  -4   9  -4    2.10    1.70
   4  -9   4    6.40    3.20
   4  -9   4    2.40    2.90
  -5   9  -4   41.50    3.40
  -5   9  -4   39.90    3.50
  -5   9  -4   43.50    4.00
   5  -9   4   51.49    6.10
   5  -9   4   42.80    5.10
   5  -9   4   40.70    5.40
  -6   9  -4   13.50    3.00
   6  -9   4    8.00    3.60
   6  -9   4   12.10    3.70
   6  -9   4   10.10    4.90
  -7   9  -4    6.20    3.50
  -7   9  -4   15.60    3.70
   7  -9   4    9.00    4.00
   7  -9   4    5.30    3.70
   7  -9   4    9.70    5.90
  -8   9  -4    3.60    4.50
   8  -9   4    3.90    6.50
   4   8  -4    7.80    4.60
   4   8  -4    0.30    5.20
  -4  -8   4    3.60    6.30
  -4  -8   4   13.20    6.50
   3   8  -4   12.00    4.50
   3   8  -4   -0.80    2.30
  -3  -8   4   -1.60    4.60
  -3  -8   4    2.70    4.60
   2   8  -4    2.00    3.10
   2   8  -4    8.20    2.50
  -2  -8   4    3.00    3.80
  -2  -8   4    4.80    3.50
   1   8  -4    0.80    2.20
   1   8  -4    1.70    2.70
  -1  -8   4   -0.30    3.00
  -1  -8   4   -2.20    3.10
   0   8  -4   18.20    2.80
   0   8  -4   16.60    2.80
   0  -8   4   26.00    3.00
   0  -8   4   17.30    2.90
   0  -8   4   11.70    3.30
  -1   8  -4   -3.50    2.20
  -1   8  -4   -0.70    2.10
  -1   8  -4    2.90    1.70
   1  -8   4   -0.60    2.00
   1  -8   4    0.20    2.30
  -2   8  -4    1.50    2.00
  -2   8  -4    1.40    1.50
  -2   8  -4    0.60    1.30
   2  -8   4    0.10    2.10
   2  -8   4    1.00    2.90
  -3   8  -4   55.19    4.30
  -3   8  -4   58.09    3.00
  -3   8  -4   52.99    2.70
   3  -8   4   63.29    5.30
   3  -8   4   60.09    5.10
  -4   8  -4   65.49    3.20
  -4   8  -4   72.19    3.50
  -4   8  -4   70.29    3.60
   4  -8   4   63.09    5.50
   4  -8   4   67.29    5.60
   4  -8   4   63.29    6.20
  -5   8  -4    4.80    2.10
   5  -8   4    6.90    3.30
   5  -8   4    2.10    3.70
   5  -8   4    5.80    3.10
  -6   8  -4   20.00    3.10
   6  -8   4   24.00    5.10
   6  -8   4   21.30    3.60
   6  -8   4   21.30    4.20
  -7   8  -4   -1.90    3.30
  -7   8  -4    2.60    3.40
   7  -8   4    1.70    5.10
   7  -8   4    2.30    3.20
   7  -8   4    3.70    3.90
  -8   8  -4    8.70    3.90
  -8   8  -4   14.20    4.50
   8  -8   4   14.00    3.50
   8  -8   4   13.20    5.60
  -9   8  -4   -2.30    5.60
   9  -8   4   -2.80    6.80
   5   7  -4    3.20    4.50
   5   7  -4    4.10    5.70
  -5  -7   4   -1.80    6.10
  -5  -7   4   12.60    6.00
   4   7  -4    0.90    2.20
  -4  -7   4    8.20    5.10
  -4  -7   4   -0.20    4.50
   3   7  -4   31.20    4.00
   3   7  -4   31.30    3.70
  -3  -7   4   22.30    4.20
  -3  -7   4   34.30    4.80
   2   7  -4   24.70    3.40
   2   7  -4   22.00    2.90
  -2  -7   4   23.70    3.60
  -2  -7   4   25.60    3.80
   1   7  -4   19.60    2.70
   1   7  -4   14.10    2.70
  -1  -7   4   20.60    3.00
  -1  -7   4   25.00    3.50
  -1  -7   4   19.60    2.20
   0   7  -4  107.39    4.60
   0   7  -4  115.79    5.70
   0   7  -4  100.79    5.10
   0  -7   4  113.19    5.00
   0  -7   4  109.09    6.10
   0  -7   4  105.49    4.60
  -1   7  -4  155.78    6.30
  -1   7  -4  160.48    5.10
  -1   7  -4  158.88    5.20
  -1   7  -4  155.38    6.60
   1  -7   4  157.58    6.20
   1  -7   4  134.09    9.70
  -2   7  -4    1.60    0.90
  -2   7  -4    1.10    1.60
   2  -7   4   -0.70    2.40
   2  -7   4    2.40    2.10
  -3   7  -4   10.10    1.20
  -3   7  -4    7.20    1.90
  -3   7  -4    7.90    1.10
  -3   7  -4    7.70    1.60
   3  -7   4   11.60    2.50
   3  -7   4   14.50    4.40
  -4   7  -4   37.50    3.30
  -4   7  -4   31.30    2.70
   4  -7   4   24.90    3.40
   4  -7   4   28.00    6.80
   4  -7   4   31.70    4.20
  -5   7  -4   25.10    2.50
  -5   7  -4   27.40    3.50
   5  -7   4   28.10    3.90
   5  -7   4   22.00    3.80
   5  -7   4   23.00    3.50
  -6   7  -4   36.30    3.60
   6  -7   4   30.70    4.80
   6  -7   4   30.50    3.80
   6  -7   4   46.00    5.80
  -7   7  -4   -3.90    2.80
  -7   7  -4    1.30    3.10
   7  -7   4    2.50    4.80
  -8   7  -4   -5.60    3.50
  -8   7  -4    2.00    4.20
   8  -7   4    8.60    5.40
   8  -7   4    5.70    3.50
  -9   7  -4    0.40    5.60
   9  -7   4   -0.80    6.20
   6   6  -4   11.30    5.70
   6   6  -4    8.50    4.90
  -6  -6   4    4.60    5.30
  -6  -6   4    7.70    6.70
   5   6  -4    2.70    4.10
   5   6  -4    3.10    2.60
  -5  -6   4    5.10    4.60
  -5  -6   4   10.50    5.40
  -5  -6   4    2.50    4.30
   4   6  -4    5.70    3.10
   4   6  -4    7.40    2.50
  -4  -6   4    3.00    4.10
  -4  -6   4    6.50    3.90
   3   6  -4   11.70    3.40
   3   6  -4   17.40    3.00
  -3  -6   4   15.40    3.50
  -3  -6   4   24.10    3.90
   2   6  -4    4.10    1.80
   2   6  -4    4.90    2.10
  -2  -6   4    2.00    2.40
  -2  -6   4    8.90    2.70
   1   6  -4    8.60    1.90
   1   6  -4    2.60    1.70
   1   6  -4    4.80    1.80
  -1  -6   4    7.70    2.00
  -1  -6   4    3.90    2.10
  -1  -6   4    6.40    1.50
   0   6  -4   13.50    1.90
   0   6  -4   11.30    1.90
   0   6  -4   13.60    1.60
   0   6  -4   14.40    2.20
   0  -6   4   14.40    2.50
   0  -6   4   13.20    1.80
   0  -6   4   12.90    1.90
  -1   6  -4   16.80    1.80
  -1   6  -4   14.70    2.40
  -1   6  -4   16.40    1.50
   1  -6   4   10.80    2.30
   1  -6   4   15.50    2.20
  -2   6  -4    0.60    1.60
  -2   6  -4   -0.40    1.30
   2  -6   4    5.00    2.10
   2  -6   4   -1.50    1.70
  -3   6  -4   19.40    1.40
  -3   6  -4   22.80    1.50
  -3   6  -4   22.80    2.60
   3  -6   4   19.80    3.00
   3  -6   4   18.40    2.80
   3  -6   4   31.70    3.70
  -4   6  -4   27.10    3.00
  -4   6  -4   24.20    2.50
   4  -6   4   21.90    4.40
   4  -6   4   19.00    3.10
   4  -6   4   24.50    3.20
  -5   6  -4    0.90    1.90
  -5   6  -4   -0.50    1.80
   5  -6   4   -0.20    2.10
   5  -6   4   -3.20    2.10
   5  -6   4   -0.50    2.70
  -6   6  -4   42.00    4.70
  -6   6  -4   38.70    4.30
   6  -6   4   47.30    6.30
  -7   6  -4   10.30    3.50
  -7   6  -4    4.60    3.00
   7  -6   4   13.90    4.70
  -8   6  -4   10.70    4.70
  -8   6  -4   12.50    3.70
   8  -6   4    4.90    3.60
   8  -6   4    5.60    5.20
  -9   6  -4   -2.30    5.90
   9  -6   4   -6.40    5.90
   7   5  -4   -2.40    4.40
  -7  -5   4   -1.70    5.60
  -7  -5   4    7.40    7.20
   6   5  -4    9.80    4.80
   6   5  -4    4.30    2.40
  -6  -5   4    5.10    4.30
  -6  -5   4    7.00    5.30
  -6  -5   4    0.60    4.80
   5   5  -4   12.90    2.90
   5   5  -4    7.20    4.00
  -5  -5   4    6.80    4.10
  -5  -5   4   14.50    4.40
   4   5  -4   11.30    2.60
   4   5  -4   17.80    3.20
  -4  -5   4   14.80    3.50
  -4  -5   4   10.40    6.50
   3   5  -4    1.70    1.80
   3   5  -4    1.90    2.00
  -3  -5   4    2.60    2.60
  -3  -5   4    1.80    2.50
   2   5  -4   29.10    2.60
   2   5  -4   23.90    3.00
  -2  -5   4   24.20    2.90
  -2  -5   4   31.00    3.50
  -2  -5   4   28.50    2.40
   1   5  -4    4.40    1.40
   1   5  -4    4.10    1.50
   1   5  -4    3.00    1.50
   1   5  -4    3.60    1.50
  -1  -5   4    4.20    2.10
  -1  -5   4    2.80    2.00
   0   5  -4    7.50    1.50
   0   5  -4    5.00    1.60
   0   5  -4    7.00    1.50
   0   5  -4    7.70    1.00
   0  -5   4    8.70    2.20
   0  -5   4    8.50    1.30
  -1   5  -4  179.88    5.60
  -1   5  -4  178.58    6.50
   1  -5   4  183.68    6.80
   1  -5   4  179.18    7.10
   1  -5   4  173.68    6.30
  -2   5  -4   47.60    3.50
   2  -5   4   51.49    3.60
   2  -5   4   50.49    4.10
   2  -5   4   55.69    3.90
  -3   5  -4   42.40    3.10
  -3   5  -4   33.90    2.00
   3  -5   4   35.00    3.70
   3  -5   4   30.60    3.60
   3  -5   4   37.20    3.20
  -4   5  -4    3.00    1.60
  -4   5  -4    3.70    1.60
   4  -5   4    5.70    2.10
   4  -5   4    2.30    2.30
   4  -5   4    7.40    1.90
  -5   5  -4    2.50    2.00
  -5   5  -4    2.20    1.80
   5  -5   4    6.20    2.20
   5  -5   4    5.40    3.00
  -6   5  -4    3.40    2.00
  -6   5  -4    7.80    3.00
   6  -5   4    2.30    3.40
  -7   5  -4   13.60    4.00
  -7   5  -4    1.20    2.90
   7  -5   4   -2.10    3.10
   7  -5   4   16.80    4.50
  -8   5  -4    1.40    3.80
  -8   5  -4    4.40    4.40
   8  -5   4   -0.20    4.10
   8  -5   4    1.10    4.80
  -9   5  -4    3.00    6.20
   9  -5   4    8.60    6.40
   7   4  -4   24.40    5.60
   7   4  -4   16.80    3.30
  -7  -4   4   17.80    5.70
  -7  -4   4   17.10    3.90
  -7  -4   4   18.60    5.60
   6   4  -4    7.60    2.50
   6   4  -4   13.30    6.20
  -6  -4   4    3.90    3.80
  -6  -4   4    4.50    3.00
  -6  -4   4    6.40    4.40
   5   4  -4   18.30    3.30
   5   4  -4   13.70    2.40
  -5  -4   4   19.70    2.70
  -5  -4   4   11.10    3.60
  -5  -4   4   19.00    3.80
   4   4  -4   28.70    3.10
   4   4  -4   21.50    3.00
  -4  -4   4   19.80    6.00
  -4  -4   4   22.40    2.60
  -4  -4   4   24.90    3.50
   3   4  -4   58.29    3.50
   3   4  -4   54.79    3.80
  -3  -4   4   53.69    4.10
  -3  -4   4   53.19    4.40
  -3  -4   4   54.89    3.00
   2   4  -4   53.99    3.00
   2   4  -4   50.59    3.20
   2   4  -4   49.99    3.20
  -2  -4   4   52.59    3.00
  -2  -4   4   53.59    3.80
  -2  -4   4   51.69    3.40
   1   4  -4  246.28    7.70
   1   4  -4  245.98    7.30
   1   4  -4  244.28    7.00
   1   4  -4  254.17    8.10
  -1  -4   4  242.48    7.10
  -1  -4   4  240.48    8.00
   0   4  -4   57.09    2.90
   0   4  -4   55.59    3.00
   0   4  -4   55.19    3.30
   0  -4   4   56.59    3.90
   0  -4   4   60.09    3.40
   0  -4   4   57.19    2.10
  -1   4  -4   89.89    3.50
  -1   4  -4   80.79    3.90
   1  -4   4   79.49    4.50
   1  -4   4   92.29    4.20
  -2   4  -4   21.00    2.40
   2  -4   4   15.10    2.30
   2  -4   4   17.70    2.20
  -3   4  -4   40.70    3.20
  -3   4  -4   44.80    2.50
   3  -4   4   35.90    3.90
   3  -4   4   40.70    3.60
   3  -4   4   40.70    3.20
  -4   4  -4    9.30    2.10
  -4   4  -4    6.20    1.90
  -4   4  -4    9.90    1.90
   4  -4   4    9.50    2.70
   4  -4   4    9.20    1.60
   4  -4   4    7.50    1.60
  -5   4  -4   10.50    2.60
  -5   4  -4   13.80    2.40
  -5   4  -4   10.70    2.40
   5  -4   4   10.50    3.10
   5  -4   4   11.50    2.20
   5  -4   4   13.40    2.20
  -6   4  -4  109.49    6.30
  -6   4  -4   92.29    5.70
   6  -4   4  102.69    5.70
   6  -4   4   99.89    7.20
   6  -4   4   99.69    6.20
  -7   4  -4   10.40    4.00
  -7   4  -4    1.90    3.00
  -7   4  -4   -2.40    3.00
   7  -4   4   -0.60    3.10
   7  -4   4    0.80    4.00
  -8   4  -4    8.30    4.80
   8  -4   4    3.70    4.40
   8  -4   4    6.80    5.00
  -9   4  -4   -3.30    6.80
   9  -4   4   -0.90    6.70
   8   3  -4    1.90    2.90
  -8  -3   4    0.10    5.80
  -8  -3   4    0.60    5.50
   7   3  -4    5.30    2.50
  -7  -3   4   -2.90    4.20
  -7  -3   4    2.30    2.60
  -7  -3   4    0.90    2.90
   6   3  -4   -1.20    2.00
   6   3  -4    0.80    3.10
  -6  -3   4    4.10    2.50
  -6  -3   4   -0.20    2.20
  -6  -3   4    0.20    3.20
   5   3  -4  117.29    5.50
   5   3  -4  112.39    5.90
  -5  -3   4  113.19    7.60
  -5  -3   4  105.29    6.50
  -5  -3   4  108.69    4.80
   4   3  -4   33.80    3.50
   4   3  -4   30.80    3.10
  -4  -3   4   29.60    3.70
  -4  -3   4   32.10    3.50
  -4  -3   4   35.80    3.10
   3   3  -4   19.70    2.30
   3   3  -4   17.50    2.00
   3   3  -4   17.20    2.10
  -3  -3   4   20.80    2.60
  -3  -3   4   16.40    2.30
  -3  -3   4   17.10    2.20
   2   3  -4    3.90    1.20
   2   3  -4    2.10    1.10
  -2  -3   4    1.20    1.30
  -2  -3   4    2.30    1.70
  -2  -3   4    2.90    1.40
  -2  -3   4    0.70    1.40
   1   3  -4   93.69    3.90
   1   3  -4   93.59    4.00
   1   3  -4   94.99    3.70
  -1  -3   4   99.89    3.50
  -1  -3   4  106.49    4.30
  -1  -3   4   99.59    4.50
   0   3  -4  254.27    7.70
   0   3  -4  271.47    7.50
   0  -3   4  255.37    8.40
   0  -3   4  267.57    6.60
   0  -3   4  257.77    7.80
  -1   3  -4  234.88    7.20
   1  -3   4  240.88    7.30
   1  -3   4  232.18    8.00
  -2   3  -4    4.80    1.10
  -2   3  -4    4.30    1.40
  -2   3  -4    3.30    1.40
   2  -3   4    4.00    2.00
   2  -3   4    6.70    1.80
   2  -3   4    6.00    1.00
  -3   3  -4  110.39    4.30
  -3   3  -4  108.89    4.80
  -3   3  -4  107.29    4.90
   3  -3   4  102.09    5.20
   3  -3   4  112.19    4.10
  -4   3  -4   -0.60    1.60
  -4   3  -4    1.80    1.80
  -4   3  -4    6.70    2.10
   4  -3   4    3.00    1.60
   4  -3   4    4.20    1.70
   4  -3   4    2.50    2.10
  -5   3  -4    1.30    1.80
  -5   3  -4    0.90    2.10
  -5   3  -4    0.30    2.30
   5  -3   4    5.80    2.10
   5  -3   4   -1.80    2.50
   5  -3   4   -0.10    2.00
  -6   3  -4    1.20    2.50
  -6   3  -4    5.70    2.90
  -6   3  -4    4.30    3.30
   6  -3   4    2.00    2.60
   6  -3   4    1.70    2.70
   6  -3   4    2.30    3.30
  -7   3  -4   16.00    3.80
  -7   3  -4   10.70    3.70
  -7   3  -4   15.40    4.60
   7  -3   4   16.10    4.80
   7  -3   4   13.30    4.00
  -8   3  -4  -10.20    4.30
  -8   3  -4   -0.20    4.40
  -8   3  -4    1.90    5.60
   8  -3   4   -2.50    5.30
   8  -3   4   -4.90    4.60
   8  -3   4    1.00    5.10
   8   2  -4   15.30    3.40
   8   2  -4   22.50    3.90
  -8  -2   4   16.40    4.10
  -8  -2   4    9.20    5.10
   7   2  -4   23.30    3.40
   7   2  -4   15.90    3.00
  -7  -2   4   17.10    3.50
  -7  -2   4   12.60    2.60
  -7  -2   4   18.40    4.40
   6   2  -4   40.50    4.00
   6   2  -4   33.00    3.80
  -6  -2   4   29.80    3.90
  -6  -2   4   32.00    4.10
  -6  -2   4   34.10    3.50
  -6  -2   4   30.30    3.10
   5   2  -4   73.59    4.30
   5   2  -4   76.09    4.30
  -5  -2   4   74.09    5.10
  -5  -2   4   76.39    4.50
  -5  -2   4   85.09    4.10
   4   2  -4  128.19    5.20
  -4  -2   4  128.99    5.70
  -4  -2   4  128.79    5.00
  -4  -2   4  131.79    5.20
   3   2  -4  167.88    5.70
   3   2  -4  168.28    5.70
  -3  -2   4  164.48    5.90
  -3  -2   4  170.28    5.80
  -3  -2   4  164.98    5.80
  -3  -2   4  161.38    5.90
   2   2  -4   97.89    3.80
   2   2  -4   93.39    3.90
  -2  -2   4  100.79    4.30
  -2  -2   4   98.89    3.90
  -2  -2   4   96.59    3.90
  -2  -2   4   92.99    4.00
   1   2  -4   63.29    2.90
   1   2  -4   67.69    2.90
   1   2  -4   62.69    3.00
  -1  -2   4   62.59    2.90
  -1  -2   4   64.99    3.60
   0   2  -4    5.60    1.10
   0   2  -4    8.40    1.30
   0   2  -4    9.70    1.90
   0  -2   4    5.60    0.90
   0  -2   4    6.60    1.40
   0  -2   4   10.40    2.00
  -1   2  -4  204.08    7.00
  -1   2  -4  206.98    5.70
  -1   2  -4  194.88    6.20
   1  -2   4  209.68    6.40
   1  -2   4  208.08    7.20
   1  -2   4  191.98    5.70
  -2   2  -4   82.09    3.50
  -2   2  -4   81.59    3.70
  -2   2  -4   77.29    4.10
   2  -2   4   82.39    4.50
   2  -2   4   79.39    3.30
  -3   2  -4   67.49    3.70
  -3   2  -4   60.29    3.80
  -3   2  -4   66.49    3.90
   3  -2   4   58.89    3.30
   3  -2   4   62.49    4.30
  -4   2  -4   61.89    4.40
  -4   2  -4   65.99    4.20
  -4   2  -4   71.59    4.60
   4  -2   4   63.99    4.40
   4  -2   4   65.19    5.00
   4  -2   4   68.59    4.10
  -5   2  -4   80.29    5.40
  -5   2  -4   86.09    5.80
  -5   2  -4   88.59    5.30
   5  -2   4   91.49    6.20
   5  -2   4   82.09    5.60
   5  -2   4   81.09    5.20
  -6   2  -4   21.70    6.20
  -6   2  -4   31.90    4.60
  -6   2  -4   29.00    3.90
   6  -2   4   30.80    4.70
   6  -2   4   35.00    4.70
   6  -2   4   27.40    3.70
  -7   2  -4   -2.20    3.60
  -7   2  -4    2.10    3.70
  -7   2  -4    2.60    4.40
   7  -2   4    0.40    3.80
   7  -2   4   -0.20    4.10
  -8   2  -4    1.50    4.90
  -8   2  -4    6.60    6.00
   8  -2   4    4.70    5.70
   8  -2   4   -2.40    5.40
   8  -2   4   -4.00    4.90
   9   1  -4   -0.30    4.10
   9   1  -4    1.70    2.80
  -9  -1   4   -1.70    5.20
  -9  -1   4   10.80    4.90
   8   1  -4    8.20    3.40
   8   1  -4    5.50    2.40
  -8  -1   4    2.40    3.90
  -8  -1   4    0.00    3.70
   7   1  -4   14.50    2.50
   7   1  -4   18.60    3.00
  -7  -1   4   13.40    3.60
  -7  -1   4   18.60    3.50
   6   1  -4  186.48    7.10
   6   1  -4  195.58    7.40
  -6  -1   4  195.88    5.80
  -6  -1   4  190.58    8.30
  -6  -1   4  193.78    7.80
  -6  -1   4  179.08    5.60
   5   1  -4    8.30    2.00
   5   1  -4    6.50    2.10
  -5  -1   4    3.90    2.20
  -5  -1   4    9.40    2.20
  -5  -1   4   10.60    1.60
   4   1  -4   99.09    4.20
   4   1  -4   97.69    4.10
   4   1  -4   99.39    4.50
  -4  -1   4   98.59    4.80
  -4  -1   4  103.09    4.00
  -4  -1   4   96.69    4.50
   3   1  -4   37.00    2.40
   3   1  -4   36.70    2.30
  -3  -1   4   37.50    3.00
  -3  -1   4   35.20    2.60
  -3  -1   4   36.00    2.90
   2   1  -4  441.66   11.50
   2   1  -4  424.26   11.20
   2   1  -4  414.46   11.60
  -2  -1   4  418.36   11.70
  -2  -1   4  429.36   11.00
  -2  -1   4  406.66   11.70
   1   1  -4   83.79    3.30
   1   1  -4   80.79    2.70
   1   1  -4   78.69    3.70
  -1  -1   4   81.59    2.70
  -1  -1   4   75.09    3.90
   0   1  -4   62.59    2.50
   0   1  -4   61.29    3.40
   0  -1   4   66.39    2.60
   0  -1   4   65.29    3.70
   0  -1   4   63.09    2.80
  -1   1  -4  186.08    5.80
  -1   1  -4  186.18    6.70
  -1   1  -4  190.78    6.00
   1  -1   4  192.98    6.80
   1  -1   4  188.78    5.90
  -2   1  -4   10.20    1.90
  -2   1  -4   10.20    1.80
  -2   1  -4    8.70    1.60
   2  -1   4   12.50    2.30
   2  -1   4    9.30    1.60
  -3   1  -4   75.99    4.30
  -3   1  -4   70.59    4.00
  -3   1  -4   75.89    4.40
   3  -1   4   67.79    3.90
   3  -1   4   80.69    4.70
  -4   1  -4   31.10    3.40
  -4   1  -4   24.30    3.20
   4  -1   4   26.00    3.70
   4  -1   4   28.30    3.50
   4  -1   4   22.70    3.00
  -5   1  -4   89.89    5.80
  -5   1  -4   82.89    7.60
   5  -1   4   92.29    6.00
   5  -1   4   89.59    5.80
   5  -1   4   94.79    6.80
  -6   1  -4   14.20    4.30
  -6   1  -4    8.60    3.50
   6  -1   4   10.10    3.60
   6  -1   4    9.40    3.60
  -7   1  -4    8.70    4.70
  -7   1  -4    5.30    4.40
  -7   1  -4   -5.30    4.80
   7  -1   4   10.60    4.50
   7  -1   4    2.90    4.80
  -8   1  -4    1.90    6.70
  -8   1  -4  -10.90    5.60
   8  -1   4   -3.30    6.30
   9   0  -4   20.30    3.70
   9   0  -4   22.10    4.60
  -9   0   4   21.00    5.50
  -9   0   4   21.00    5.40
   8   0  -4    2.30    3.10
   8   0  -4   -0.10    2.30
  -8   0   4   -0.60    3.10
  -8   0   4    3.00    4.20
   7   0  -4   -1.70    1.90
   7   0  -4    2.30    2.40
  -7   0   4   -1.70    2.70
  -7   0   4    1.30    2.80
   6   0  -4   37.60    3.40
   6   0  -4   34.10    3.90
  -6   0   4   31.00    3.90
  -6   0   4   35.10    4.40
   5   0  -4   42.40    3.50
   5   0  -4   39.40    2.90
  -5   0   4   39.80    2.10
  -5   0   4   38.10    3.80
  -5   0   4   31.80    3.50
   4   0  -4  118.59    5.00
   4   0  -4  117.69    4.30
   4   0  -4  121.09    4.70
  -4   0   4  117.39    4.10
  -4   0   4  112.89    5.00
  -4   0   4  123.39    5.20
   3   0  -4    4.10    1.50
   3   0  -4    2.60    1.20
   3   0  -4    1.80    1.10
   3   0  -4    1.90    1.10
  -3   0   4    2.30    1.30
  -3   0   4    3.80    1.60
   2   0  -4   33.60    2.60
   2   0  -4   31.10    2.20
  -2   0   4   32.30    2.70
  -2   0   4   34.40    1.50
  -2   0   4   34.70    2.90
   1   0  -4    0.20    1.10
   1   0  -4    1.60    1.10
  -1   0   4    1.10    1.60
   0   0  -4   77.69    4.00
   0   0  -4   80.59    2.80
   0   0   4   80.19    3.50
   0   0   4   75.79    4.20
  -1   0  -4 1144.49   30.10
  -1   0  -4 1212.88   29.60
   1   0   4 1183.78   30.20
   1   0   4 1155.18   29.40
  -2   0  -4    2.30    1.60
  -2   0  -4    1.30    1.20
   2   0   4    1.20    1.30
   2   0   4    3.70    2.00
  -3   0  -4   34.60    3.90
  -3   0  -4   46.60    3.80
   3   0   4   50.09    3.40
   3   0   4   41.00    4.40
  -4   0  -4    1.20    2.40
  -4   0  -4    0.50    2.60
   4   0   4   -4.00    1.90
   4   0   4    0.20    2.10
   4   0   4    1.30    2.70
  -5   0  -4    5.70    3.60
  -5   0  -4    2.90    3.10
   5   0   4    5.40    2.90
   5   0   4    8.90    2.90
   5   0   4    0.60    3.70
  -6   0  -4    7.80    4.50
  -6   0  -4   14.00    4.20
   6   0   4   13.70    4.70
   6   0   4   15.10    3.90
   6   0   4   17.40    3.90
  -7   0  -4   10.70    4.90
  -7   0  -4   -2.50    5.60
   7   0   4    5.80    5.60
   7   0   4    1.10    4.60
  10  -1  -4    5.10    3.60
  10  -1  -4    5.00    5.10
 -10   1   4   18.50    6.40
   9  -1  -4    7.30    2.90
   9  -1  -4    3.90    3.80
  -9   1   4    8.60    4.10
  -9   1   4    2.50    4.60
   8  -1  -4   10.40    3.20
   8  -1  -4   13.60    2.80
  -8   1   4   13.20    4.00
  -8   1   4   14.40    3.50
   7  -1  -4    8.00    3.10
   7  -1  -4    6.80    2.00
  -7   1   4    4.50    2.20
  -7   1   4   13.20    3.40
   6  -1  -4   10.90    2.40
   6  -1  -4    6.40    1.90
  -6   1   4   10.50    2.50
  -6   1   4    6.30    2.70
   5  -1  -4    6.60    1.30
   5  -1  -4    3.90    1.70
   5  -1  -4    7.70    1.60
  -5   1   4    4.70    1.80
  -5   1   4    7.40    1.10
  -5   1   4    6.90    2.00
   4  -1  -4  132.19    5.40
   4  -1  -4  128.89    4.50
   4  -1  -4  133.69    4.80
   4  -1  -4  136.89    4.40
  -4   1   4  129.99    5.60
  -4   1   4  141.09    4.60
   3  -1  -4  458.95   12.40
   3  -1  -4  451.25   13.00
   3  -1  -4  470.85   11.70
   3  -1  -4  467.65   12.30
  -3   1   4  475.85   12.40
  -3   1   4  437.06   13.00
  -3   1   4  438.56   11.50
   2  -1  -4  384.56   10.90
   2  -1  -4  389.56   10.50
  -2   1   4  377.76   11.00
  -2   1   4  385.46   11.20
   1  -1  -4   33.20    2.80
   1  -1  -4   33.70    1.40
  -1   1   4   33.50    3.10
  -1   1   4   24.10    3.00
  -1   1   4   31.20    2.50
   0  -1  -4   74.99    4.00
   0  -1  -4   70.59    3.80
   0   1   4   72.19    4.30
   0   1   4   77.69    3.70
  -1  -1  -4   84.59    4.30
  -1  -1  -4   75.49    4.10
   1   1   4   86.19    4.80
   1   1   4   85.89    3.90
  -2  -1  -4   13.80    2.40
  -2  -1  -4   12.50    2.10
   2   1   4   13.80    2.10
   2   1   4   16.00    2.60
  -3  -1  -4  182.48    7.60
  -3  -1  -4  203.68    7.90
   3   1   4  169.58    7.60
   3   1   4  194.58    8.20
  -4  -1  -4    4.70    2.70
  -4  -1  -4   11.40    3.20
   4   1   4    6.20    2.30
   4   1   4    8.20    2.80
   4   1   4   11.10    3.70
  -5  -1  -4   15.40    3.90
  -5  -1  -4    9.20    3.50
   5   1   4   10.70    4.60
   5   1   4   12.10    3.20
   5   1   4    9.40    4.20
  -6  -1  -4    4.10    4.50
  -6  -1  -4    5.40    4.50
   6   1   4    1.10    4.20
   6   1   4    1.70    3.90
   6   1   4    1.40    4.90
  -7  -1  -4    7.00    5.80
   7   1   4    1.90    5.40
  10  -2  -4   10.60    3.40
  10  -2  -4   -2.40    5.10
 -10   2   4    1.90    6.00
 -10   2   4    2.40    6.10
 -10   2   4    0.10    6.00
   9  -2  -4   -3.20    2.70
  -9   2   4    4.80    4.10
  -9   2   4    0.90    3.10
  -9   2   4   -1.60    4.60
   8  -2  -4   -1.60    2.80
   8  -2  -4    1.60    2.30
  -8   2   4    5.70    3.00
  -8   2   4    2.50    2.70
  -8   2   4    4.50    3.40
   7  -2  -4   56.59    3.60
   7  -2  -4   52.79    4.90
  -7   2   4   54.79    4.80
  -7   2   4   72.59    5.00
  -7   2   4   53.79    5.40
   6  -2  -4   29.50    2.70
   6  -2  -4   34.40    3.60
  -6   2   4   28.10    3.40
  -6   2   4   32.00    3.50
  -6   2   4   24.50    3.30
   5  -2  -4  160.38    5.00
   5  -2  -4  161.38    6.50
   5  -2  -4  165.88    5.10
   5  -2  -4  165.38    5.70
  -5   2   4  158.18    5.70
  -5   2   4  160.08    6.70
   4  -2  -4  192.38    6.20
   4  -2  -4  186.88    6.10
   4  -2  -4  196.28    5.40
   4  -2  -4  193.08    7.00
  -4   2   4  193.58    7.20
  -4   2   4  198.38    6.30
  -4   2   4  185.78    5.80
   3  -2  -4   23.40    2.60
   3  -2  -4   24.70    2.80
   3  -2  -4   20.90    1.90
  -3   2   4   22.30    2.90
  -3   2   4   19.10    1.50
  -3   2   4   26.50    2.90
   2  -2  -4  206.78    6.90
   2  -2  -4  199.28    6.20
   2  -2  -4  201.08    5.40
  -2   2   4  202.88    7.10
  -2   2   4  203.98    7.10
   1  -2  -4  736.03   20.30
   1  -2  -4  787.22   18.80
  -1   2   4  752.72   20.00
  -1   2   4  773.32   20.40
  -1   2   4  735.53   20.00
   0  -2  -4   16.60    2.40
   0  -2  -4   15.60    2.20
   0   2   4   20.00    2.40
   0   2   4   17.90    2.80
  -1  -2  -4   28.00    2.80
  -1  -2  -4   27.70    3.40
   1   2   4   30.80    3.70
   1   2   4   27.30    2.80
  -2  -2  -4   15.00    2.40
  -2  -2  -4    9.60    2.70
   2   2   4    5.10    1.80
   2   2   4    7.80    2.60
  -3  -2  -4   48.40    5.00
  -3  -2  -4   47.60    4.90
   3   2   4   56.59    4.20
   3   2   4   42.00    8.90
  -4  -2  -4   46.20    5.10
  -4  -2  -4   45.00    5.70
   4   2   4   53.59    5.00
   4   2   4   49.50    5.00
   4   2   4   46.70    5.40
  -5  -2  -4   11.60    4.30
  -5  -2  -4   10.10    4.40
   5   2   4   12.30    5.10
   5   2   4   14.80    3.70
   5   2   4    1.80    5.40
  -6  -2  -4   -3.80    5.30
  -6  -2  -4    2.70    5.70
   6   2   4   10.00    4.30
  10  -3  -4    7.90    5.00
  10  -3  -4    0.60    2.90
 -10   3   4    0.00    5.60
 -10   3   4    9.00    4.20
 -10   3   4    6.50    5.30
   9  -3  -4    3.40    2.60
  -9   3   4   -2.70    2.80
  -9   3   4    2.60    4.30
  -9   3   4    7.90    4.00
   8  -3  -4   -0.40    2.50
   8  -3  -4    0.80    2.10
  -8   3   4    4.50    2.90
  -8   3   4   -2.50    3.20
  -8   3   4    1.30    2.70
   7  -3  -4  126.79    4.80
   7  -3  -4  117.59    6.10
  -7   3   4  114.99    6.40
  -7   3   4  119.49    6.90
  -7   3   4  129.69    5.90
   6  -3  -4    5.90    2.20
   6  -3  -4    5.20    1.50
   6  -3  -4    2.90    1.20
  -6   3   4    5.50    1.90
  -6   3   4    4.80    2.30
   5  -3  -4  110.49    3.50
   5  -3  -4  111.19    4.30
   5  -3  -4  106.09    4.50
   5  -3  -4  104.59    5.10
  -5   3   4  116.29    5.60
  -5   3   4  107.89    4.40
   4  -3  -4  826.92   20.90
   4  -3  -4  801.32   22.00
   4  -3  -4  816.82   21.20
  -4   3   4  824.12   22.20
  -4   3   4  844.92   21.40
  -4   3   4  776.42   20.40
   3  -3  -4   93.29    3.80
   3  -3  -4   95.99    4.50
   3  -3  -4   97.19    3.50
   3  -3  -4   95.69    4.50
  -3   3   4   90.39    3.40
  -3   3   4   93.19    4.80
  -3   3   4   94.79    4.70
   2  -3  -4    4.00    1.20
   2  -3  -4    2.60    1.60
   2  -3  -4    3.00    1.30
  -2   3   4    0.40    1.80
  -2   3   4    5.70    1.80
  -2   3   4    4.70    1.30
   1  -3  -4    0.60    1.20
   1  -3  -4    1.40    1.40
  -1   3   4    0.10    1.50
  -1   3   4    2.90    2.10
  -1   3   4   -0.20    1.30
   0  -3  -4   35.60    3.30
   0  -3  -4   32.60    3.10
   0  -3  -4   31.20    3.50
   0   3   4   34.80    3.60
   0   3   4   40.40    3.00
   0   3   4   30.30    3.80
  -1  -3  -4   -0.70    2.10
  -1  -3  -4    1.50    1.90
  -1  -3  -4    2.80    2.20
   1   3   4    3.30    2.20
   1   3   4   -2.00    2.30
   1   3   4    1.20    2.30
  -2  -3  -4    9.20    2.70
  -2  -3  -4   11.70    2.90
   2   3   4    8.00    2.20
   2   3   4   11.40    3.20
  -3  -3  -4   10.00    3.30
  -3  -3  -4    9.20    3.30
   3   3   4   11.20    3.80
   3   3   4    7.70    2.50
  -4  -3  -4   -0.70    3.90
  -4  -3  -4    1.60    3.10
   4   3   4    5.30    3.10
   4   3   4    3.90    3.00
  -5  -3  -4    1.80    4.20
  -5  -3  -4   -2.40    5.10
   5   3   4   10.60    4.10
   5   3   4    4.00    3.80
  10  -4  -4   -2.10    2.80
  10  -4  -4   13.20    4.90
 -10   4   4   -1.10    4.20
 -10   4   4  -10.90    4.50
 -10   4   4   -5.70    5.50
   9  -4  -4   -4.50    2.30
   9  -4  -4   -0.40    3.30
  -9   4   4   -3.90    4.00
  -9   4   4    2.70    3.50
  -9   4   4   -2.70    3.50
   8  -4  -4   18.40    3.90
   8  -4  -4   17.70    3.70
  -8   4   4   13.20    3.10
  -8   4   4   21.50    3.80
  -8   4   4   13.20    3.00
   7  -4  -4   57.89    4.50
   7  -4  -4   53.09    3.20
   7  -4  -4   55.49    2.90
  -7   4   4   57.89    4.50
  -7   4   4   58.79    5.20
   6  -4  -4   18.30    1.80
   6  -4  -4   21.70    2.70
   6  -4  -4   20.80    2.90
  -6   4   4   24.20    3.10
  -6   4   4   18.00    3.20
   5  -4  -4   30.30    3.30
   5  -4  -4   33.60    2.90
   5  -4  -4   30.10    3.20
  -5   4   4   29.40    2.90
  -5   4   4   35.40    3.90
   4  -4  -4  378.86   11.60
   4  -4  -4  391.16   10.80
   4  -4  -4  382.16   10.80
   4  -4  -4  388.56   12.00
  -4   4   4  392.96   10.80
  -4   4   4  390.06   12.20
   3  -4  -4  102.59    5.20
   3  -4  -4  108.79    4.30
   3  -4  -4  108.49    5.10
   3  -4  -4  104.79    4.10
  -3   4   4  106.19    4.10
  -3   4   4  104.49    3.10
  -3   4   4  112.79    5.30
   2  -4  -4   15.00    1.80
   2  -4  -4   14.20    2.30
   2  -4  -4   15.90    2.10
  -2   4   4   20.40    3.10
  -2   4   4   15.20    2.10
  -2   4   4   14.60    2.50
   1  -4  -4  102.49    4.70
   1  -4  -4  100.59    5.20
  -1   4   4  100.49    5.30
  -1   4   4  111.29    5.00
  -1   4   4  105.79    5.80
   0  -4  -4    9.60    2.20
   0  -4  -4   13.70    2.50
   0  -4  -4   12.70    2.50
   0   4   4   11.50    2.50
   0   4   4   11.50    2.00
   0   4   4   18.20    3.20
  -1  -4  -4    9.50    2.30
  -1  -4  -4    7.70    2.50
  -1  -4  -4    8.80    2.90
   1   4   4    6.50    2.10
   1   4   4    9.90    2.80
   1   4   4    7.40    2.60
  -2  -4  -4    0.30    2.80
  -2  -4  -4    5.50    3.20
  -2  -4  -4    7.30    2.80
   2   4   4    5.50    2.80
  -3  -4  -4   -1.50    3.90
  -3  -4  -4    9.10    4.20
  -3  -4  -4    5.40    3.40
   3   4   4    5.40    3.10
   3   4   4    5.40    3.30
  -4  -4  -4   -2.30    5.10
  -4  -4  -4   16.40    5.50
  -4  -4  -4    5.10    3.70
   4   4   4   -0.30    3.40
   4   4   4    1.20    3.20
   4   4   4    3.70    3.90
  -5  -4  -4    4.00    6.70
  -5  -4  -4    1.50    6.70
   5   4   4    2.40    4.70
  10  -5  -4    4.90    4.70
  10  -5  -4    1.20    2.70
 -10   5   4    1.20    5.50
 -10   5   4    5.80    4.80
 -10   5   4    2.00    4.60
   9  -5  -4   44.30    6.20
   9  -5  -4   48.60    5.10
  -9   5   4   47.90    5.50
  -9   5   4   49.20    6.00
  -9   5   4   58.59    6.70
   8  -5  -4   20.20    2.20
   8  -5  -4   18.30    2.10
  -8   5   4   13.60    3.30
  -8   5   4   14.10    3.20
   7  -5  -4   -1.30    1.80
  -7   5   4   -0.50    2.20
   6  -5  -4   83.49    4.30
   6  -5  -4   75.09    4.80
   6  -5  -4   79.29    4.60
  -6   5   4   98.19    5.90
  -6   5   4   81.49    4.50
   5  -5  -4   13.80    2.10
   5  -5  -4   13.40    2.40
   5  -5  -4   10.80    2.10
   5  -5  -4   14.80    2.70
  -5   5   4    6.20    2.50
  -5   5   4   15.00    2.10
   4  -5  -4    4.60    2.00
   4  -5  -4    3.40    1.60
   4  -5  -4    3.10    1.90
   4  -5  -4    5.20    1.80
  -4   5   4    5.00    1.60
  -4   5   4    6.80    2.40
   3  -5  -4   31.10    2.80
   3  -5  -4   39.30    3.60
   3  -5  -4   30.50    3.70
   3  -5  -4   35.00    3.60
  -3   5   4   35.90    4.30
  -3   5   4   25.30    3.50
  -3   5   4   35.40    3.00
  -3   5   4   30.00    2.00
   2  -5  -4    1.70    1.50
   2  -5  -4    0.00    2.00
  -2   5   4    0.50    1.50
  -2   5   4   -0.50    2.10
  -2   5   4    0.80    1.50
   1  -5  -4   12.40    2.60
   1  -5  -4    7.90    2.50
  -1   5   4   13.60    2.20
  -1   5   4   10.20    2.50
   0  -5  -4    2.80    2.80
   0  -5  -4    5.20    2.30
   0  -5  -4    2.40    2.30
   0   5   4    6.00    2.50
  -1  -5  -4    7.90    3.10
  -1  -5  -4    4.40    3.60
  -1  -5  -4    2.40    2.80
   1   5   4    3.80    2.70
  -2  -5  -4   10.00    4.30
  -2  -5  -4    4.70    3.60
  -2  -5  -4    1.00    3.50
   2   5   4    3.40    3.10
  -3  -5  -4    3.50    4.00
  -3  -5  -4    3.30    5.10
  -3  -5  -4   -9.60    4.70
   3   5   4   -1.40    3.50
   3   5   4    1.60    3.60
  -4  -5  -4   18.90    7.00
  -4  -5  -4   10.30    7.40
   4   5   4    9.40    4.20
   4   5   4   16.10    3.70
  10  -6  -4   -1.00    6.70
 -10   6   4   -6.30    4.30
 -10   6   4    3.70    4.70
 -10   6   4    3.50    5.00
   9  -6  -4    6.20    2.00
   9  -6  -4    7.00    3.30
   9  -6  -4   10.50    2.30
  -9   6   4   -0.90    3.50
  -9   6   4    9.90    4.00
   8  -6  -4   -1.20    2.20
  -8   6   4    0.50    3.10
  -8   6   4    3.70    2.70
   7  -6  -4   -3.10    2.50
   7  -6  -4    2.20    2.60
  -7   6   4    5.80    2.50
  -7   6   4   -3.30    2.40
   6  -6  -4   40.10    4.10
   6  -6  -4   31.20    3.30
   6  -6  -4   29.20    3.70
   6  -6  -4   31.90    4.20
  -6   6   4   41.90    5.30
  -6   6   4   31.00    3.90
   5  -6  -4    1.20    2.40
   5  -6  -4    2.00    2.50
   5  -6  -4    4.10    1.90
   5  -6  -4    1.80    2.30
  -5   6   4   -0.50    2.60
  -5   6   4    2.80    2.10
   4  -6  -4   14.00    2.10
   4  -6  -4   11.20    2.60
   4  -6  -4   12.10    3.50
  -4   6   4   12.40    2.30
  -4   6   4   15.00    2.10
  -4   6   4   15.20    3.30
   3  -6  -4   38.70    3.20
   3  -6  -4   35.10    4.10
   3  -6  -4   33.40    4.30
   3  -6  -4   49.70    4.60
  -3   6   4   46.80    3.90
  -3   6   4   39.70    5.00
  -3   6   4   39.50    3.80
  -3   6   4   35.20    2.70
   2  -6  -4    5.60    2.30
   2  -6  -4    9.60    2.80
   2  -6  -4    7.30    2.10
  -2   6   4    8.80    2.90
  -2   6   4    6.10    2.10
  -2   6   4    8.70    2.30
   1  -6  -4    9.00    3.20
  -1   6   4   11.00    3.00
  -1   6   4    3.50    2.20
   0  -6  -4   18.80    3.40
   0  -6  -4    8.70    3.60
   0  -6  -4   15.40    5.40
   0   6   4   11.20    3.10
   0   6   4   12.60    2.70
  -1  -6  -4    4.60    3.40
  -1  -6  -4   17.90    3.90
  -1  -6  -4   10.60    4.50
   1   6   4   16.70    3.40
   1   6   4   14.10    3.20
  -2  -6  -4    5.10    4.70
  -2  -6  -4   13.10    3.90
  -2  -6  -4    8.90    5.40
   2   6   4   13.70    3.50
   2   6   4    7.90    3.20
   2   6   4    7.70    3.40
  -3  -6  -4    7.80    6.50
   3   6   4    9.90    6.50
   3   6   4    6.90    3.20
 -10   7   4   11.80    5.30
 -10   7   4    0.70    5.70
 -10   7   4   19.00    5.20
   9  -7  -4    0.70    3.00
   9  -7  -4   -0.30    3.60
  -9   7   4    2.20    3.80
  -9   7   4    2.80    3.80
   8  -7  -4   -2.10    3.00
   8  -7  -4   -2.20    2.90
  -8   7   4    0.90    3.20
  -8   7   4   -2.90    3.20
   7  -7  -4    4.40    3.60
   7  -7  -4   -3.50    2.70
   7  -7  -4    1.70    2.90
  -7   7   4    6.00    2.80
  -7   7   4    4.60    3.50
   6  -7  -4    1.50    3.30
   6  -7  -4    7.10    2.90
   6  -7  -4    2.00    3.10
  -6   7   4   -0.50    2.40
  -6   7   4    2.70    3.50
   5  -7  -4    0.50    2.90
   5  -7  -4    0.30    2.90
   5  -7  -4    3.00    1.90
   5  -7  -4    3.30    3.00
  -5   7   4    0.50    2.20
  -5   7   4    1.80    2.50
  -5   7   4    0.00    3.20
   4  -7  -4    1.90    1.80
   4  -7  -4    5.50    3.00
   4  -7  -4    3.10    2.90
   4  -7  -4    4.80    3.00
  -4   7   4    5.00    3.30
  -4   7   4   -0.10    2.40
  -4   7   4    0.30    2.30
   3  -7  -4    6.40    3.70
   3  -7  -4    2.20    1.90
   3  -7  -4    4.20    2.90
   3  -7  -4    1.60    3.20
  -3   7   4    6.00    2.00
  -3   7   4    8.80    2.70
  -3   7   4    5.30    2.50
  -3   7   4    9.30    3.50
   2  -7  -4    1.90    2.20
   2  -7  -4    0.10    3.30
  -2   7   4    0.50    2.00
  -2   7   4    2.80    3.20
   1  -7  -4   -1.70    3.90
  -1   7   4    2.40    2.50
  -1   7   4    2.90    3.10
  -1   7   4    1.90    3.20
   0  -7  -4   -4.60    3.40
   0  -7  -4    0.00    4.40
   0   7   4    0.30    2.70
   0   7   4   -1.00    3.30
   0   7   4   -0.50    3.20
  -1  -7  -4   -8.40    4.20
  -1  -7  -4    2.70    5.60
  -1  -7  -4   -4.70    4.10
   1   7   4   -0.80    3.10
   1   7   4   -4.70    4.00
   1   7   4   -5.70    3.30
  -2  -7  -4    8.50    7.20
   2   7   4    4.50    3.70
 -10   8   4    9.70    5.10
   9  -8  -4    3.30    3.90
  -9   8   4   -1.50    4.20
  -9   8   4   10.30    4.60
   8  -8  -4   -4.80    3.60
   8  -8  -4    0.40    4.70
   8  -8  -4   -0.20    3.80
  -8   8   4   -2.90    4.10
  -8   8   4   -0.50    3.60
   7  -8  -4    0.90    3.90
   7  -8  -4    5.30    4.10
   7  -8  -4    5.40    4.30
  -7   8   4    6.50    4.40
  -7   8   4    6.40    3.60
   6  -8  -4    0.50    3.70
   6  -8  -4    1.80    3.40
   6  -8  -4    1.90    3.60
  -6   8   4   -3.50    3.90
  -6   8   4   -7.50    3.00
  -6   8   4    0.20    2.90
   5  -8  -4    7.80    6.80
   5  -8  -4   13.70    4.70
   5  -8  -4   15.80    4.00
   5  -8  -4    7.00    2.20
  -5   8   4    7.10    3.10
  -5   8   4   14.20    4.50
   4  -8  -4   53.99    3.90
   4  -8  -4   58.59    6.60
   4  -8  -4   55.09    6.40
  -4   8   4   46.70    5.70
  -4   8   4   53.59    7.40
   3  -8  -4   46.90    6.10
   3  -8  -4   46.00    3.80
   3  -8  -4   52.69    5.40
  -3   8   4   51.79    6.00
  -3   8   4   41.50    3.90
  -3   8   4   54.29    6.80
   2  -8  -4   -2.20    3.30
   2  -8  -4   -2.80    4.40
   2  -8  -4    2.10    2.50
  -2   8   4    3.00    3.80
  -2   8   4   -4.40    3.30
  -2   8   4    1.10    2.70
   1  -8  -4   26.60    5.90
   1  -8  -4   16.90    4.40
  -1   8   4   22.50    3.50
  -1   8   4   16.90    4.40
  -1   8   4   17.20    4.60
   0  -8  -4   -0.60    5.70
   0   8   4    3.10    3.40
   0   8   4    1.10    4.00
   9  -9  -4    7.20    4.70
  -9   9   4   -7.00    5.00
   8  -9  -4    4.40    4.90
   8  -9  -4   -4.40    5.20
   8  -9  -4   -5.40    4.70
  -8   9   4   -5.30    5.10
  -8   9   4    2.80    4.70
   7  -9  -4   18.50    5.10
   7  -9  -4   13.40    5.40
  -7   9   4   21.00    5.90
  -7   9   4   19.40    4.60
  -7   9   4   11.30    4.60
   6  -9  -4    7.80    4.60
   6  -9  -4    3.60    4.80
   6  -9  -4    6.30    4.40
  -6   9   4    7.50    5.30
  -6   9   4    6.40    4.40
  -6   9   4    6.00    3.90
   5  -9  -4   13.40    4.70
   5  -9  -4    6.40    4.60
   5  -9  -4   18.60    4.90
  -5   9   4   -0.80    4.90
  -5   9   4    3.60    4.20
  -5   9   4   10.60    4.00
   4  -9  -4    2.60    4.50
   4  -9  -4   -3.70    4.80
   4  -9  -4   -2.00    4.60
  -4   9   4    1.40    4.60
  -4   9   4   -1.50    4.10
  -4   9   4    5.30    3.90
   3  -9  -4    2.20    2.70
   3  -9  -4   -0.30    3.80
  -3   9   4   -2.20    4.30
  -3   9   4    3.00    2.90
  -3   9   4   -4.70    4.50
   2  -9  -4   14.80    3.30
   2  -9  -4   27.20    6.40
  -2   9   4   16.20    3.50
  -2   9   4   17.70    6.70
   1  -9  -4   -2.30    6.50
  -1   9   4   -3.40    3.60
  -1   9   4   -4.10    4.70
   8 -10  -4    8.40    7.00
   8 -10  -4   -5.20    6.10
  -8  10   4    0.10    6.80
  -8  10   4    2.00    5.40
   7 -10  -4    4.30    6.40
   7 -10  -4    9.50    6.20
   7 -10  -4    3.60    6.00
  -7  10   4   -0.20    5.00
  -7  10   4   -5.20    6.00
   6 -10  -4   21.70    6.40
   6 -10  -4   24.30    6.70
   6 -10  -4   19.80    6.40
  -6  10   4   13.30    5.90
  -6  10   4   14.40    5.30
  -6  10   4   19.60    6.40
   5 -10  -4   10.80    6.80
   5 -10  -4   28.70    6.10
   5 -10  -4   18.40    6.20
  -5  10   4   30.80    9.50
  -5  10   4   22.20    6.40
  -5  10   4   22.70    5.60
   4 -10  -4   -0.90    6.50
  -4  10   4    3.00    5.80
   3 -10  -4   -4.00    6.60
  -3  10   4    4.00    5.90
  -2  11  -5    4.30    2.80
   2 -11   5   -0.10    4.40
   2 -11   5   -1.90    5.00
  -3  11  -5    3.80    2.10
   3 -11   5    3.60    4.40
   3 -11   5   -1.60    4.70
   4 -11   5   29.40    5.50
   4 -11   5   25.40    5.20
   4 -11   5   26.20    5.30
   5 -11   5   27.60    5.80
   5 -11   5   23.40    6.00
   5 -11   5   21.20    6.30
   6 -11   5  -11.10    6.80
   6 -11   5    0.90    6.00
   1  10  -5    8.60    3.90
   1  10  -5    3.20    3.10
  -1 -10   5    0.20    5.70
   0  10  -5   10.30    3.20
   0  10  -5    9.00    3.60
   0 -10   5    6.10    2.30
   0 -10   5    4.50    4.80
  -1  10  -5    8.30    2.80
  -1  10  -5    2.30    3.00
  -1  10  -5    7.70    3.80
   1 -10   5    0.00    4.30
   1 -10   5    8.50    3.20
  -2  10  -5    4.60    2.00
  -2  10  -5    0.90    3.20
   2 -10   5   -2.00    3.50
   2 -10   5   -0.60    4.00
  -3  10  -5   16.20    3.80
   3 -10   5   23.30    4.50
   3 -10   5   17.80    4.10
  -4  10  -5    6.60    3.30
   4 -10   5   10.00    4.20
   4 -10   5   13.70    4.20
   4 -10   5    3.10    4.30
  -5  10  -5    1.70    2.40
  -5  10  -5   -0.80    3.60
   5 -10   5    1.60    4.20
   5 -10   5    7.70    5.00
   5 -10   5    0.10    4.10
  -6  10  -5   -1.20    4.00
  -6  10  -5   -2.50    2.30
  -6  10  -5   -1.10    1.80
  -6  10  -5   -1.10    2.80
   6 -10   5    3.60    4.30
   6 -10   5   -2.90    5.90
   6 -10   5    9.00    5.00
  -7  10  -5   -3.50    3.20
   7 -10   5   -3.20    5.60
   7 -10   5   -0.20    7.00
   3   9  -5    0.30    4.80
  -3  -9   5   -4.40    5.80
   2   9  -5   -2.60    2.40
   2   9  -5   -6.50    3.60
  -2  -9   5    5.90    4.60
  -2  -9   5    8.30    5.80
   1   9  -5    5.50    3.00
   1   9  -5   -1.80    2.50
  -1  -9   5   -3.20    4.20
  -1  -9   5    3.70    3.70
   0   9  -5    9.70    2.60
   0   9  -5    0.10    3.30
   0   9  -5    5.80    2.60
   0  -9   5    7.60    2.30
   0  -9   5    0.50    3.80
  -1   9  -5    4.10    3.20
  -1   9  -5    1.70    1.90
   1  -9   5   -2.60    3.60
   1  -9   5    2.50    2.50
  -2   9  -5   33.60    2.30
  -2   9  -5   38.60    3.30
   2  -9   5   35.20    5.00
   2  -9   5   37.90    4.70
  -3   9  -5   21.00    2.40
   3  -9   5   22.50    4.20
   3  -9   5   20.70    3.80
   3  -9   5   27.30    4.50
  -4   9  -5   -3.30    2.60
  -4   9  -5    3.30    2.10
   4  -9   5    0.40    3.50
   4  -9   5   -0.20    3.50
   4  -9   5    0.20    3.30
  -5   9  -5    3.70    3.20
  -5   9  -5    3.20    2.30
   5  -9   5    1.00    3.50
   5  -9   5   -4.10    3.90
   5  -9   5    5.90    3.70
  -6   9  -5   -3.40    2.20
  -6   9  -5    9.30    3.10
   6  -9   5   -1.50    4.80
   6  -9   5    0.50    3.70
   6  -9   5    0.40    4.00
  -7   9  -5   -4.30    3.70
  -7   9  -5   -1.20    3.20
   7  -9   5   -3.10    4.00
   7  -9   5    4.30    5.40
   7  -9   5    9.90    6.60
  -8   9  -5   -0.20    4.50
   8  -9   5   -4.40    7.30
   4   8  -5   -8.30    4.90
   4   8  -5    9.10    4.70
  -4  -8   5   -1.10    6.00
   3   8  -5    6.40    3.90
   3   8  -5    4.20    2.80
  -3  -8   5    5.70    4.70
  -3  -8   5   -2.10    4.60
   2   8  -5    0.40    2.90
   2   8  -5    5.60    2.50
  -2  -8   5    2.50    4.20
  -2  -8   5    4.00    3.70
   1   8  -5   -1.30    2.30
   1   8  -5    1.00    2.40
  -1  -8   5    1.00    2.90
  -1  -8   5    3.60    1.70
  -1  -8   5    4.70    3.60
   0   8  -5  105.89    5.60
   0   8  -5  105.09    4.70
   0  -8   5   96.39    5.20
   0  -8   5  117.79    7.00
  -1   8  -5   46.10    4.70
  -1   8  -5   39.70    3.60
  -1   8  -5   43.00    2.60
   1  -8   5   56.09    4.60
   1  -8   5   37.40    4.40
  -2   8  -5   39.20    4.30
  -2   8  -5   33.60    3.20
   2  -8   5   36.10    4.80
   2  -8   5   34.10    4.40
  -3   8  -5   -3.10    1.70
  -3   8  -5    1.10    2.10
   3  -8   5    1.10    2.90
   3  -8   5    1.10    2.80
   3  -8   5   -1.30    2.40
  -4   8  -5    0.20    2.80
  -4   8  -5    1.60    2.10
   4  -8   5    3.90    3.10
   4  -8   5    5.70    3.00
   4  -8   5   -1.80    3.40
  -5   8  -5    7.10    1.80
   5  -8   5    7.10    3.50
   5  -8   5    7.80    4.10
   5  -8   5   12.20    3.60
  -6   8  -5    6.00    2.50
  -6   8  -5   14.00    3.30
   6  -8   5   11.40    4.10
   6  -8   5   -0.60    3.50
   6  -8   5    5.50    4.80
  -7   8  -5   -2.20    3.30
  -7   8  -5    4.70    4.10
   7  -8   5    5.70    3.70
   7  -8   5    1.40    5.60
  -8   8  -5   -1.40    4.40
   8  -8   5   -3.30    6.30
   5   7  -5    1.40    4.30
   5   7  -5    3.80    5.40
  -5  -7   5    3.70    5.90
  -5  -7   5    7.00    6.50
   4   7  -5    1.60    3.90
   4   7  -5    2.60    1.90
  -4  -7   5    3.90    4.30
  -4  -7   5   -0.50    4.80
   3   7  -5    3.80    2.10
   3   7  -5   -1.90    2.70
  -3  -7   5    0.80    3.80
  -3  -7   5    6.60    4.00
   2   7  -5   90.39    5.40
   2   7  -5   92.89    5.50
  -2  -7   5   90.89    3.60
  -2  -7   5   94.29    6.00
  -2  -7   5   81.39    7.10
  -2  -7   5   95.49    3.80
   1   7  -5   10.40    2.20
   1   7  -5   16.50    3.10
   1   7  -5   14.40    2.70
  -1  -7   5    8.60    2.00
  -1  -7   5   11.90    2.40
  -1  -7   5   17.10    3.60
   0   7  -5   28.00    2.50
   0   7  -5   23.30    3.00
   0   7  -5   31.30    2.90
   0   7  -5   30.30    3.50
   0  -7   5   30.00    3.60
   0  -7   5   26.20    3.70
   0  -7   5   32.10    3.00
  -1   7  -5   33.10    3.80
  -1   7  -5   35.60    3.10
   1  -7   5   28.80    3.60
   1  -7   5   38.30    4.00
  -2   7  -5   28.60    3.00
  -2   7  -5   29.40    3.60
   2  -7   5   29.70    4.00
   2  -7   5   31.90    3.60
   2  -7   5   30.40    5.00
  -3   7  -5   11.10    2.40
  -3   7  -5   11.20    2.10
   3  -7   5    5.60    2.60
   3  -7   5    7.30    2.70
   3  -7   5    5.20    2.80
  -4   7  -5    4.80    2.20
   4  -7   5    4.00    2.70
   4  -7   5    2.20    2.80
   4  -7   5    2.10    2.50
  -5   7  -5   -1.80    2.20
  -5   7  -5    0.20    1.70
   5  -7   5   -1.10    2.80
   5  -7   5   -2.40    2.50
   5  -7   5   -1.00    3.40
  -6   7  -5    2.60    3.50
  -6   7  -5    4.40    2.60
   6  -7   5    1.50    3.60
   6  -7   5    3.30    4.60
  -7   7  -5   -4.50    3.40
  -7   7  -5    1.20    3.50
   7  -7   5   -8.50    3.30
   7  -7   5   -4.70    4.60
  -8   7  -5   -9.30    5.90
  -8   7  -5   -0.90    4.60
   8  -7   5    0.50    6.00
   6   6  -5    5.50    4.30
   6   6  -5   -2.20    5.30
  -6  -6   5   15.70    5.60
  -6  -6   5   14.90   11.40
  -6  -6   5    0.00    6.20
   5   6  -5   -0.40    2.30
  -5  -6   5    4.60    5.30
  -5  -6   5    6.20    5.30
   4   6  -5   69.89    6.40
   4   6  -5   72.09    4.70
  -4  -6   5   76.49    7.40
  -4  -6   5   74.89    7.20
   3   6  -5   95.19    5.70
   3   6  -5   94.99    5.00
  -3  -6   5   82.29    3.30
  -3  -6   5   98.59    6.40
  -3  -6   5   95.79    7.00
   2   6  -5   89.59    4.70
   2   6  -5   87.89    4.90
  -2  -6   5   89.39    6.10
  -2  -6   5   88.09    4.20
  -2  -6   5   91.69    5.20
   1   6  -5   22.40    2.60
   1   6  -5   18.70    2.10
   1   6  -5   15.10    2.60
   1   6  -5   23.90    2.60
  -1  -6   5   18.60    2.30
  -1  -6   5   20.90    3.10
   0   6  -5   67.39    3.90
   0   6  -5   62.29    4.30
   0   6  -5   66.29    3.60
   0  -6   5   63.09    2.80
   0  -6   5   53.19    4.60
  -1   6  -5    4.60    2.00
  -1   6  -5    4.50    1.70
   1  -6   5    3.70    2.30
   1  -6   5    2.20    2.00
   1  -6   5    4.90    2.00
  -2   6  -5   11.70    2.20
  -2   6  -5   10.60    1.90
   2  -6   5   11.90    2.80
   2  -6   5   14.40    2.50
   2  -6   5    7.90    2.40
  -3   6  -5    2.70    2.10
   3  -6   5    4.80    2.40
   3  -6   5    9.40    2.50
   3  -6   5    7.70    2.40
  -4   6  -5   41.80    2.70
  -4   6  -5   40.80    4.00
   4  -6   5   21.90    5.70
   4  -6   5   43.50    4.00
  -5   6  -5    1.50    2.50
  -5   6  -5    3.00    2.10
   5  -6   5   -1.20    3.30
   5  -6   5    2.90    2.30
   5  -6   5    3.10    3.00
  -6   6  -5    5.50    2.70
   6  -6   5    1.50    4.10
  -7   6  -5   15.60    4.10
  -7   6  -5   34.00    4.60
   7  -6   5   28.20    5.60
  -8   6  -5    0.90    5.00
  -8   6  -5    8.90    4.60
   8  -6   5    7.50    6.30
   8  -6   5   -4.90    4.90
   7   5  -5   11.40    4.80
  -7  -5   5   13.70    7.30
  -7  -5   5   11.00    7.20
   6   5  -5    1.10    2.40
  -6  -5   5    7.40    5.00
  -6  -5   5    4.00    5.00
  -6  -5   5    0.00    3.80
   5   5  -5   11.70    3.80
   5   5  -5    9.00    2.30
  -5  -5   5   16.50    4.40
  -5  -5   5   10.10    4.40
   4   5  -5  167.08    7.00
   4   5  -5  151.58    8.60
  -4  -5   5  171.98    5.80
  -4  -5   5  168.78    8.60
  -4  -5   5  189.38    8.10
   3   5  -5   55.59    4.20
   3   5  -5   45.20    3.50
  -3  -5   5   49.90    4.50
  -3  -5   5   51.19    3.40
   2   5  -5   24.90    3.00
   2   5  -5   27.10    3.00
  -2  -5   5   25.40    2.60
  -2  -5   5   23.90    3.30
  -2  -5   5   23.10    3.10
   1   5  -5   16.00    2.10
   1   5  -5   16.90    2.70
   1   5  -5   15.50    2.10
  -1  -5   5   16.70    1.90
  -1  -5   5   22.60    3.20
  -1  -5   5   18.40    2.70
   0   5  -5    9.80    1.70
   0   5  -5   13.20    2.20
   0  -5   5    8.70    2.20
   0  -5   5   11.60    2.40
   0  -5   5   11.60    1.20
  -1   5  -5    6.00    1.80
  -1   5  -5    3.40    1.50
   1  -5   5    1.60    1.90
   1  -5   5    6.60    2.10
  -2   5  -5   16.20    2.40
   2  -5   5   19.90    2.80
   2  -5   5   18.30    3.00
  -3   5  -5    0.30    1.70
  -3   5  -5    0.00    1.00
   3  -5   5    2.70    1.60
   3  -5   5    0.20    2.20
   3  -5   5    3.70    2.20
  -4   5  -5   -0.20    1.60
  -4   5  -5   -1.60    3.00
   4  -5   5   -0.90    1.70
   4  -5   5    1.00    2.70
   4  -5   5    3.20    2.60
  -5   5  -5   11.20    2.50
  -5   5  -5    4.40    2.40
   5  -5   5   10.50    4.10
  -6   5  -5    1.40    2.80
   6  -5   5   -4.20    3.40
  -7   5  -5    8.40    4.10
  -7   5  -5   -2.70    3.60
   7  -5   5    3.30    3.40
   7  -5   5   11.30    4.60
  -8   5  -5    0.40    4.50
  -8   5  -5    5.10    5.50
   8  -5   5   -4.30    4.90
   8  -5   5   -2.40    5.40
   7   4  -5    6.70    3.20
  -7  -4   5    0.90    3.70
  -7  -4   5   -2.50    5.20
  -7  -4   5    3.20    5.00
  -7  -4   5    1.00    2.80
  -7  -4   5   -0.20    4.10
   6   4  -5   18.60    3.20
  -6  -4   5   12.90    4.60
  -6  -4   5   11.90    2.70
  -6  -4   5   17.00    4.50
   5   4  -5  178.88    7.30
  -5  -4   5  184.18    8.60
  -5  -4   5  173.88    6.50
  -5  -4   5  172.68    8.80
   4   4  -5    6.60    2.20
  -4  -4   5    4.30    2.70
  -4  -4   5    6.20    2.00
  -4  -4   5    6.80    2.60
   3   4  -5   -0.60    1.20
   3   4  -5    2.20    1.60
  -3  -4   5    0.90    1.80
  -3  -4   5   -2.50    1.80
  -3  -4   5    1.60    2.20
  -3  -4   5    0.30    2.10
   2   4  -5   85.49    4.00
   2   4  -5   86.59    4.00
  -2  -4   5   83.89    4.10
  -2  -4   5   89.79    4.90
  -2  -4   5   81.39    4.30
  -2  -4   5   85.09    4.70
   1   4  -5    9.00    1.60
   1   4  -5    8.70    1.70
   1   4  -5   11.00    1.80
  -1  -4   5   10.90    1.40
  -1  -4   5   10.90    2.40
  -1  -4   5    6.90    1.80
   0   4  -5   49.90    2.90
   0   4  -5   48.40    3.20
   0  -4   5   48.40    3.50
   0  -4   5   45.10    3.80
  -1   4  -5    1.60    1.30
  -1   4  -5   -0.60    1.20
   1  -4   5    0.60    1.70
   1  -4   5   -0.10    1.80
  -2   4  -5   -0.10    1.30
   2  -4   5   -0.50    1.80
   2  -4   5    2.30    1.80
  -3   4  -5   12.30    2.00
  -3   4  -5   19.80    2.30
  -3   4  -5   16.50    2.40
   3  -4   5   15.10    2.70
   3  -4   5   18.20    2.00
   3  -4   5   21.00    2.80
  -4   4  -5   -2.40    1.60
  -4   4  -5   -1.20    1.90
  -4   4  -5    0.70    1.90
   4  -4   5   -2.50    1.40
   4  -4   5    1.60    2.50
   4  -4   5    3.10    1.90
  -5   4  -5   51.99    4.90
  -5   4  -5   62.69    5.00
  -5   4  -5   61.09    4.80
   5  -4   5   59.79    4.30
   5  -4   5   63.69    6.00
   5  -4   5   58.69    4.70
  -6   4  -5   57.79    6.40
  -6   4  -5   61.89    5.60
  -6   4  -5   63.09    6.10
   6  -4   5   71.59    7.00
   6  -4   5   59.79    5.60
  -7   4  -5   13.80    4.00
  -7   4  -5   26.20    5.10
  -7   4  -5   22.10    4.50
   7  -4   5   28.50    5.50
   7  -4   5   24.80    4.60
   7  -4   5   28.50    5.30
  -8   4  -5    0.10    5.70
  -8   4  -5    3.30    6.10
  -8   4  -5   -8.00    4.70
   8  -4   5    2.50    6.40
   8  -4   5   -2.20    5.20
   8  -4   5    0.10    5.00
   8   3  -5    0.20    3.00
  -8  -3   5    0.60    3.80
  -8  -3   5   -5.90    8.40
  -8  -3   5    2.90    6.20
   7   3  -5    5.50    2.60
  -7  -3   5    1.30    2.70
  -7  -3   5   -2.10    4.30
  -7  -3   5   -5.30    4.40
  -7  -3   5   -2.60    3.10
  -7  -3   5   -3.80    3.10
   6   3  -5   42.90    4.10
  -6  -3   5   39.70    5.00
  -6  -3   5   39.60    4.70
  -6  -3   5   37.00    4.60
  -6  -3   5   33.10    4.40
   5   3  -5   14.00    2.50
  -5  -3   5   14.40    3.30
  -5  -3   5   11.60    2.60
  -5  -3   5   11.00    3.00
  -5  -3   5   12.80    2.80
   4   3  -5  172.78    6.40
  -4  -3   5  170.88    7.20
  -4  -3   5  171.38    7.00
  -4  -3   5  173.38    6.40
  -4  -3   5  172.08    6.80
   3   3  -5    0.30    1.30
   3   3  -5    1.50    1.40
  -3  -3   5    1.90    1.80
  -3  -3   5    1.50    2.40
  -3  -3   5   -0.50    1.90
  -3  -3   5    0.10    1.80
   2   3  -5    7.60    1.70
   2   3  -5   10.00    1.50
  -2  -3   5   11.40    1.90
  -2  -3   5   12.50    2.10
  -2  -3   5    9.60    2.20
  -2  -3   5   13.10    1.80
   1   3  -5   39.20    2.70
   1   3  -5   35.90    2.50
   1   3  -5   39.10    2.60
  -1  -3   5   35.90    3.40
  -1  -3   5   36.70    2.90
  -1  -3   5   36.50    2.20
   0   3  -5  272.47    8.00
   0   3  -5  274.37    8.10
   0  -3   5  273.37    9.10
   0  -3   5  256.27    7.00
   0  -3   5  279.47    8.20
  -1   3  -5   17.60    2.40
  -1   3  -5   19.90    2.60
   1  -3   5   18.00    2.50
   1  -3   5   17.30    2.10
   1  -3   5   15.00    1.40
  -2   3  -5  251.87    8.60
  -2   3  -5  247.48    7.90
  -2   3  -5  249.68    7.10
   2  -3   5  240.28    7.00
   2  -3   5  244.38    8.10
   2  -3   5  244.28    8.80
  -3   3  -5    8.60    1.80
  -3   3  -5    7.60    1.90
  -3   3  -5    9.10    2.00
   3  -3   5    7.10    2.30
   3  -3   5   10.80    1.80
  -4   3  -5    2.70    2.10
  -4   3  -5   10.10    2.40
  -4   3  -5    6.90    2.50
   4  -3   5    4.60    2.60
   4  -3   5    2.20    1.70
   4  -3   5    8.90    2.10
  -5   3  -5   -0.90    2.40
  -5   3  -5    0.20    2.80
  -5   3  -5    1.20    2.60
   5  -3   5    3.20    3.30
   5  -3   5    0.10    2.20
   5  -3   5    2.10    2.20
  -6   3  -5   70.69    6.90
  -6   3  -5   65.39    6.40
   6  -3   5   58.79    5.90
   6  -3   5   68.89    7.50
  -7   3  -5   33.50    5.40
  -7   3  -5   31.50    5.70
  -7   3  -5   39.70    5.20
   7  -3   5   32.00    5.80
   7  -3   5   27.90    4.70
   7  -3   5   31.90    6.30
  -8   3  -5   -0.50    6.50
  -8   3  -5    6.90    5.50
   8  -3   5    3.00    5.80
   8  -3   5  -11.50    6.40
   8  -3   5   -3.80    5.90
   8   2  -5    1.10    3.80
   8   2  -5   -2.20    2.60
  -8  -2   5   -0.70    5.00
  -8  -2   5    1.80    4.10
   7   2  -5   60.39    5.60
   7   2  -5   55.49    4.70
  -7  -2   5   45.10    3.50
  -7  -2   5   56.29    7.40
  -7  -2   5   56.59    5.60
  -7  -2   5   58.59    4.20
   6   2  -5    4.70    2.40
  -6  -2   5    3.60    2.60
  -6  -2   5    3.60    3.10
  -6  -2   5    7.70    2.40
   5   2  -5   79.69    4.50
  -5  -2   5   85.69    4.50
  -5  -2   5   84.09    5.50
  -5  -2   5   79.39    4.90
   4   2  -5  161.88    6.00
   4   2  -5  175.48    6.20
  -4  -2   5  160.68    6.10
  -4  -2   5  157.88    6.30
  -4  -2   5  169.08    6.60
  -4  -2   5  166.28    6.40
   3   2  -5    4.10    1.40
   3   2  -5    6.10    1.60
  -3  -2   5    8.20    2.00
  -3  -2   5    6.00    1.70
  -3  -2   5    4.40    1.60
  -3  -2   5    6.30    1.70
   2   2  -5  533.15   14.60
   2   2  -5  546.55   14.60
  -2  -2   5  550.84   15.10
  -2  -2   5  541.55   15.10
  -2  -2   5  535.15   14.30
  -2  -2   5  554.74   14.40
   1   2  -5   -1.40    1.00
   1   2  -5    0.20    0.90
   1   2  -5   -2.50    1.20
  -1  -2   5    1.90    1.60
  -1  -2   5    0.60    1.10
   0   2  -5    5.10    1.50
   0   2  -5    8.10    1.40
   0   2  -5    5.10    1.20
   0  -2   5    5.60    1.20
   0  -2   5    6.70    2.20
   0  -2   5    5.40    1.30
  -1   2  -5  301.37    9.70
  -1   2  -5  301.27    8.60
   1  -2   5  303.37    8.70
   1  -2   5  297.57    9.80
   1  -2   5  295.97    8.30
  -2   2  -5   44.80    3.20
  -2   2  -5   46.80    3.10
  -2   2  -5   47.60    3.40
   2  -2   5   42.00    3.80
   2  -2   5   46.40    3.00
  -3   2  -5   48.30    3.80
  -3   2  -5   53.59    3.80
  -3   2  -5   45.80    3.90
   3  -2   5   56.19    4.40
   3  -2   5   51.19    3.50
  -4   2  -5  167.38    7.10
  -4   2  -5  155.38    7.30
  -4   2  -5  166.98    7.00
   4  -2   5  173.18    8.00
   4  -2   5  154.48    6.60
  -5   2  -5    6.40    3.50
  -5   2  -5    7.90    3.00
  -5   2  -5   -0.20    2.80
   5  -2   5   15.00    3.20
   5  -2   5   10.20    2.90
  -6   2  -5   13.30    4.60
  -6   2  -5    8.60    4.10
   6  -2   5   14.10    4.90
   6  -2   5   12.70    3.70
  -7   2  -5   -4.60    5.10
  -7   2  -5    8.80    4.50
  -7   2  -5    1.80    4.80
   7  -2   5   -0.30    4.60
   7  -2   5   -6.30    4.80
   7  -2   5   -3.10    5.00
  -8   2  -5   -5.50    6.20
  -8   2  -5    3.50    7.80
   8  -2   5   -5.60    6.20
   8  -2   5    5.60    7.00
   9   1  -5   10.00    4.60
   9   1  -5    2.90    3.20
  -9  -1   5    1.20    5.70
  -9  -1   5    0.80    5.30
   8   1  -5   12.40    3.40
   8   1  -5   23.50    4.10
  -8  -1   5   22.30    4.50
  -8  -1   5   18.90    4.70
   7   1  -5    9.10    2.90
   7   1  -5    0.10    2.30
  -7  -1   5    3.30    3.10
  -7  -1   5    3.80    3.60
   6   1  -5  119.79    5.60
   6   1  -5  124.09    6.30
  -6  -1   5  124.99    4.70
  -6  -1   5  131.39    6.90
  -6  -1   5  130.19    6.60
   5   1  -5   27.10    2.90
   5   1  -5   30.80    3.70
   5   1  -5   29.00    2.60
  -5  -1   5   30.70    4.00
  -5  -1   5   23.80    3.00
  -5  -1   5   22.90    2.90
   4   1  -5   -2.30    1.10
   4   1  -5   -2.10    1.20
  -4  -1   5   -0.20    1.60
  -4  -1   5   -0.70    1.80
  -4  -1   5   -1.60    1.50
   3   1  -5  173.98    5.90
   3   1  -5  152.88    7.50
   3   1  -5  179.78    6.20
  -3  -1   5  177.38    5.60
  -3  -1   5  177.38    6.10
  -3  -1   5  183.58    6.60
   2   1  -5  213.68    7.20
   2   1  -5  209.98    6.70
  -2  -1   5  213.58    6.00
  -2  -1   5  217.08    7.40
  -2  -1   5  210.48    7.20
   1   1  -5    5.20    1.30
   1   1  -5    4.60    1.50
   1   1  -5    4.40    0.80
  -1  -1   5    5.30    0.90
  -1  -1   5    1.30    1.60
   0   1  -5  107.69    3.60
   0   1  -5  101.69    4.70
   0  -1   5  107.39    5.10
   0  -1   5  111.69    4.10
  -1   1  -5   21.90    2.20
  -1   1  -5   22.90    2.70
  -1   1  -5   17.80    2.50
   1  -1   5   17.30    2.30
   1  -1   5   23.70    3.10
  -2   1  -5    7.10    1.60
  -2   1  -5    9.90    2.20
  -2   1  -5   11.80    1.90
   2  -1   5   11.90    2.10
   2  -1   5   10.00    2.40
  -3   1  -5   19.90    2.80
  -3   1  -5   20.70    3.00
  -3   1  -5   19.00    2.60
   3  -1   5   16.60    3.20
   3  -1   5   13.50    2.30
  -4   1  -5  112.59    6.40
  -4   1  -5  109.99    7.00
  -4   1  -5  123.19    6.60
   4  -1   5  113.99    9.40
   4  -1   5  112.79    6.00
  -5   1  -5  162.28    8.60
  -5   1  -5  159.28    8.10
  -5   1  -5  159.08    8.20
   5  -1   5  177.38    8.50
   5  -1   5  165.18    9.20
   5  -1   5  162.98    7.90
  -6   1  -5    4.20    4.50
  -6   1  -5    4.40    3.60
  -6   1  -5   -1.50    4.00
   6  -1   5   -5.20    3.80
   6  -1   5    2.10    4.70
   6  -1   5    4.30    5.70
  -7   1  -5    1.70    6.10
  -7   1  -5   12.30    5.90
  -7   1  -5   -7.10    5.00
   7  -1   5    3.40    5.40
   7  -1   5   12.30    5.20
   7  -1   5   -8.30    5.90
   9   0  -5   15.70    4.80
   9   0  -5   21.30    3.80
  -9   0   5   20.80    5.20
  -9   0   5   22.60    5.70
   8   0  -5    0.80    3.40
   8   0  -5    3.20    2.60
  -8   0   5    3.30    3.90
  -8   0   5   -1.30    3.50
   7   0  -5   51.19    4.30
   7   0  -5   50.49    7.90
  -7   0   5   48.90    5.40
  -7   0   5   44.70    5.70
   6   0  -5  324.97   11.00
   6   0  -5  331.67   10.10
  -6   0   5  320.17   11.20
  -6   0   5  338.67    8.70
   5   0  -5   -1.10    1.40
   5   0  -5    0.90    1.40
   5   0  -5    2.40    1.90
  -5   0   5   -0.50    2.00
  -5   0   5   -0.30    1.50
  -5   0   5    0.20    1.90
   4   0  -5   49.80    2.90
   4   0  -5   39.70    2.80
   4   0  -5   55.09    3.60
   4   0  -5   48.70    3.00
  -4   0   5   52.19    3.10
  -4   0   5   48.40    3.80
   3   0  -5   61.29    3.50
   3   0  -5   61.29    3.20
   3   0  -5   61.79    3.10
  -3   0   5   67.39    3.70
  -3   0   5   62.39    2.60
  -3   0   5   64.89    4.00
   2   0  -5  165.08    6.10
   2   0  -5  170.28    5.60
  -2   0   5  171.98    6.30
  -2   0   5  167.48    6.40
   1   0  -5   38.30    2.50
   1   0  -5   40.20    3.00
  -1   0   5   38.50    2.70
  -1   0   5   43.10    3.50
   0   0  -5   92.99    3.30
   0   0  -5   88.49    4.50
   0   0   5   93.79    4.10
   0   0   5   98.99    4.80
  -1   0  -5  168.58    6.70
  -1   0  -5  171.28    5.70
  -1   0  -5  180.78    6.50
   1   0   5  175.38    7.00
   1   0   5  173.08    6.20
  -2   0  -5    8.50    1.80
  -2   0  -5    7.00    2.20
   2   0   5    5.00    1.90
   2   0   5    4.70    2.40
  -3   0  -5   36.80    4.40
   3   0   5   37.70    5.00
   3   0   5   44.10    3.90
  -4   0  -5   -2.10    2.60
  -4   0  -5    1.70    3.00
   4   0   5    2.70    3.40
   4   0   5    4.70    2.60
  -5   0  -5    0.70    3.70
  -5   0  -5    5.50    3.40
   5   0   5    1.40    3.30
   5   0   5    8.20    3.50
   5   0   5   -0.80    4.40
  -6   0  -5    3.60    4.80
  -6   0  -5    9.20    4.60
   6   0   5    1.80    5.70
   6   0   5    5.80    4.50
   6   0   5   -9.30    5.10
  -7   0  -5    3.20    7.10
  -7   0  -5    2.50    6.10
   7   0   5    8.20    7.30
   7   0   5   20.10    5.90
  10  -1  -5    1.50    3.50
  10  -1  -5    3.20    5.40
 -10   1   5   -8.20    6.20
   9  -1  -5   12.90    3.20
  -9   1   5   11.00    5.00
  -9   1   5    7.60    4.00
   8  -1  -5   28.10    3.60
   8  -1  -5   29.50    4.30
  -8   1   5   24.40    4.60
  -8   1   5   32.20    4.50
   7  -1  -5   16.70    3.30
   7  -1  -5   13.10    2.50
  -7   1   5   17.30    3.30
  -7   1   5   12.00    4.20
   6  -1  -5   23.10    3.10
   6  -1  -5   25.50    3.00
  -6   1   5   21.20    3.30
  -6   1   5   22.90    3.40
   5  -1  -5    1.00    1.50
   5  -1  -5   -0.10    1.20
   5  -1  -5    1.50    1.20
   5  -1  -5    2.70    1.90
  -5   1   5    0.10    1.40
  -5   1   5    1.90    1.80
   4  -1  -5  122.29    4.20
   4  -1  -5  114.29    5.30
   4  -1  -5  115.09    4.50
   4  -1  -5  121.49    4.70
  -4   1   5  111.39    4.00
  -4   1   5  118.79    5.50
  -4   1   5  123.69    4.90
   3  -1  -5   90.59    4.30
   3  -1  -5  101.49    4.00
  -3   1   5   94.89    4.70
  -3   1   5   96.79    4.80
   2  -1  -5    4.10    1.20
   2  -1  -5    3.40    1.50
  -2   1   5    2.70    1.70
  -2   1   5    5.40    1.90
   1  -1  -5   10.00    1.10
   1  -1  -5   12.20    2.20
   1  -1  -5   10.20    1.20
  -1   1   5    7.50    2.00
  -1   1   5   10.60    1.90
  -1   1   5    8.80    1.90
   0  -1  -5    1.10    1.50
   0   1   5    1.30    1.40
   0   1   5   -0.30    1.90
  -1  -1  -5    2.60    1.80
  -1  -1  -5    1.70    1.40
   1   1   5    2.00    1.40
   1   1   5    3.70    2.30
  -2  -1  -5   47.50    6.00
  -2  -1  -5   46.40    4.20
   2   1   5   46.70    4.50
   2   1   5   39.90    3.70
  -3  -1  -5   39.10    4.70
  -3  -1  -5   36.10    4.70
   3   1   5   51.09    5.60
   3   1   5   40.50    4.20
  -4  -1  -5   41.00    4.90
  -4  -1  -5   45.10    6.10
   4   1   5   35.20    4.40
   4   1   5   37.70    5.30
  -5  -1  -5    1.30    4.20
  -5  -1  -5   -1.30    4.30
   5   1   5    4.70    5.00
   5   1   5    2.60    3.80
   5   1   5   -0.60    3.70
  -6  -1  -5   -8.60    5.40
  -6  -1  -5   -1.70    5.80
   6   1   5   11.50    5.30
   6   1   5   -1.30    6.50
   6   1   5    1.00    5.50
  10  -2  -5   20.60    5.70
  10  -2  -5   25.00    4.20
 -10   2   5   41.50    7.40
 -10   2   5   19.80    5.30
 -10   2   5   24.80    6.10
   9  -2  -5    7.60    2.90
  -9   2   5    5.60    4.20
  -9   2   5    4.90    4.70
  -9   2   5    0.00    3.00
   8  -2  -5   49.60    5.90
   8  -2  -5   52.49    4.20
  -8   2   5   49.50    6.70
  -8   2   5   42.40    5.60
  -8   2   5   42.50    5.70
   7  -2  -5    1.20    1.90
  -7   2   5    0.90    2.10
  -7   2   5   -0.70    2.80
  -7   2   5    2.50    2.70
   6  -2  -5    3.60    1.50
   6  -2  -5    1.60    2.30
   6  -2  -5    1.90    1.20
   6  -2  -5    0.60    1.50
  -6   2   5    4.30    2.30
  -6   2   5    2.70    1.70
   5  -2  -5   11.00    1.60
   5  -2  -5   11.20    1.80
   5  -2  -5    8.70    1.60
   5  -2  -5    9.70    2.10
  -5   2   5    9.60    1.60
  -5   2   5   10.30    2.10
  -5   2   5    9.50    2.40
   4  -2  -5  272.67    8.30
   4  -2  -5  276.57    8.50
   4  -2  -5  270.77    9.10
  -4   2   5  265.57    8.50
  -4   2   5  264.77    9.20
  -4   2   5  261.37    7.30
   3  -2  -5   19.20    2.80
   3  -2  -5   20.30    2.10
  -3   2   5   21.00    2.60
  -3   2   5   21.80    2.80
   2  -2  -5   60.79    3.10
   2  -2  -5   58.39    3.90
  -2   2   5   63.89    3.40
  -2   2   5   60.69    4.10
  -2   2   5   62.49    3.90
   1  -2  -5    8.20    1.90
   1  -2  -5    8.70    1.30
  -1   2   5   10.70    2.20
  -1   2   5    6.50    1.80
  -1   2   5    5.90    2.10
   0  -2  -5   16.30    2.50
   0  -2  -5   10.30    1.80
   0   2   5   10.70    2.30
   0   2   5    9.70    2.10
  -1  -2  -5   80.39    4.90
   1   2   5   72.29    4.40
   1   2   5   78.59    5.30
  -2  -2  -5    5.30    2.20
  -2  -2  -5   11.90    3.10
   2   2   5    5.60    2.40
   2   2   5    7.70    3.00
  -3  -2  -5   -2.40    2.80
  -3  -2  -5   -0.70    3.20
   3   2   5    3.30    2.70
   3   2   5    0.60    3.70
  -4  -2  -5   16.40    4.50
  -4  -2  -5   14.10    3.90
   4   2   5    7.70    4.70
   4   2   5   13.10    3.60
  -5  -2  -5    4.30    5.40
  -5  -2  -5    0.30    4.70
   5   2   5    2.60    4.20
   5   2   5    1.10    4.20
   5   2   5    9.90    6.20
  10  -3  -5   -4.30    5.00
  10  -3  -5    1.20    3.10
 -10   3   5    6.20    6.00
 -10   3   5   -4.90    4.40
 -10   3   5    0.00    4.90
   9  -3  -5    7.00    2.70
   9  -3  -5    7.10    4.00
  -9   3   5   11.50    3.60
  -9   3   5   -0.90    4.40
  -9   3   5    9.40    3.90
   8  -3  -5   58.79    4.10
   8  -3  -5   69.09    7.10
  -8   3   5   53.49    6.80
  -8   3   5   55.19    6.30
  -8   3   5   63.09    6.00
   7  -3  -5    1.40    1.60
   7  -3  -5   -3.10    2.00
   7  -3  -5    0.40    1.10
  -7   3   5    6.90    2.80
  -7   3   5   -1.30    2.10
   6  -3  -5    9.50    2.00
   6  -3  -5   11.50    2.40
   6  -3  -5    8.40    1.80
   6  -3  -5   10.30    1.60
  -6   3   5    1.60    4.20
  -6   3   5    9.10    1.90
   5  -3  -5    0.60    1.60
   5  -3  -5    1.50    1.70
   5  -3  -5    3.50    1.50
  -5   3   5    0.30    1.80
  -5   3   5    4.20    2.10
  -5   3   5    2.00    1.30
   4  -3  -5  280.17    9.30
   4  -3  -5  271.87    8.90
   4  -3  -5  273.27    8.40
  -4   3   5  266.47    7.50
  -4   3   5  268.87    9.40
  -4   3   5  269.97    9.10
   3  -3  -5   -0.80    1.20
   3  -3  -5   -2.30    1.40
   3  -3  -5    1.80    1.10
   3  -3  -5    2.00    1.70
  -3   3   5    1.40    0.80
  -3   3   5    2.20    1.70
  -3   3   5    2.80    2.20
   2  -3  -5   -1.70    1.30
   2  -3  -5    2.80    1.20
   2  -3  -5    3.50    2.00
  -2   3   5    2.20    2.10
  -2   3   5   -1.10    1.30
  -2   3   5   -0.90    1.60
   1  -3  -5   39.60    3.60
   1  -3  -5   44.90    3.10
  -1   3   5   42.80    4.20
  -1   3   5   43.70    3.30
  -1   3   5   44.60    4.00
   0  -3  -5    2.00    1.70
   0  -3  -5    6.30    2.10
   0  -3  -5    3.80    1.90
   0   3   5    8.20    2.80
   0   3   5    9.60    2.70
   0   3   5    3.60    2.40
  -1  -3  -5    0.30    2.40
  -1  -3  -5    0.20    2.00
  -1  -3  -5   -1.30    2.40
   1   3   5    3.40    2.60
   1   3   5    0.80    2.50
   1   3   5   -2.30    1.80
  -2  -3  -5   41.60    5.30
  -2  -3  -5   56.79    5.30
   2   3   5   46.60    5.50
   2   3   5   34.80    4.30
  -3  -3  -5   37.30    4.70
  -3  -3  -5   30.00    5.00
   3   3   5   30.70    4.00
   3   3   5   42.60    5.80
  -4  -3  -5   -0.70    4.00
  -4  -3  -5   -2.10    5.10
   4   3   5   -1.30    3.60
   4   3   5    2.30    3.60
   4   3   5   11.00    5.60
  -5  -3  -5   18.00    6.60
   5   3   5   -1.00    4.70
  10  -4  -5    2.20    4.90
  10  -4  -5   -0.20    2.90
 -10   4   5   -1.00    5.70
 -10   4   5   -1.40    4.60
 -10   4   5    8.30    4.30
   9  -4  -5    4.10    4.00
   9  -4  -5    8.00    2.70
  -9   4   5    0.60    4.20
  -9   4   5    1.40    3.40
  -9   4   5    2.20    3.70
   8  -4  -5    1.60    1.90
  -8   4   5   -3.60    3.40
  -8   4   5   -3.10    3.00
   7  -4  -5    5.70    1.70
   7  -4  -5    6.40    2.40
   7  -4  -5    5.10    1.70
  -7   4   5    3.70    2.20
  -7   4   5    0.70    2.60
   6  -4  -5   98.59    4.80
   6  -4  -5   95.19    4.90
   6  -4  -5   96.99    5.40
  -6   4   5  100.89    4.70
  -6   4   5  100.49    6.00
   5  -4  -5    2.90    1.80
   5  -4  -5    4.00    1.70
   5  -4  -5    2.20    2.10
  -5   4   5    5.30    2.10
  -5   4   5    1.50    1.40
   4  -4  -5   91.09    5.00
   4  -4  -5   91.19    5.10
   4  -4  -5   97.19    4.10
   4  -4  -5  110.69    4.50
  -4   4   5   95.49    3.80
  -4   4   5   96.29    5.50
   3  -4  -5   83.59    5.20
   3  -4  -5   92.99    4.40
   3  -4  -5   95.69    4.00
  -3   4   5  101.39    5.40
  -3   4   5  100.29    3.80
  -3   4   5  101.79    5.80
  -3   4   5   92.59    5.40
   2  -4  -5    3.00    1.70
   2  -4  -5    2.30    1.70
   2  -4  -5   -0.40    1.80
  -2   4   5    1.00    1.80
  -2   4   5   -1.00    2.10
  -2   4   5    1.30    2.20
   1  -4  -5   20.20    2.80
   1  -4  -5   24.70    2.70
  -1   4   5   23.90    3.10
  -1   4   5   14.80    5.80
  -1   4   5   27.00    3.60
   0  -4  -5    9.70    2.40
   0  -4  -5    5.30    2.60
   0  -4  -5    5.10    2.30
   0   4   5    6.60    2.80
   0   4   5    5.50    2.70
   0   4   5    1.20    2.00
  -1  -4  -5   13.00    3.40
  -1  -4  -5    6.80    2.90
  -1  -4  -5    9.20    2.70
   1   4   5    6.50    3.00
   1   4   5    7.10    2.50
   1   4   5   12.60    3.80
  -2  -4  -5   22.60    4.50
  -2  -4  -5   24.80    4.20
  -2  -4  -5   19.20    3.90
   2   4   5   23.90    3.30
   2   4   5   22.80    4.90
   2   4   5   16.60    3.80
  -3  -4  -5    4.80    3.90
  -3  -4  -5    3.90    4.60
  -3  -4  -5    5.50    4.60
   3   4   5    7.10    4.00
   3   4   5   12.00    3.80
  -4  -4  -5    5.40    5.70
  -4  -4  -5    1.90    6.00
  -4  -4  -5   -2.40    5.70
   4   4   5   -9.00    5.60
   4   4   5   12.50    4.50
  10  -5  -5    0.60    3.00
  10  -5  -5   -7.40    4.60
 -10   5   5    0.00    4.50
 -10   5   5    6.10    5.40
 -10   5   5    5.70    4.40
   9  -5  -5   12.70    2.40
   9  -5  -5   19.20    4.30
  -9   5   5   11.50    3.90
  -9   5   5   11.50    4.50
  -9   5   5   14.10    4.00
   8  -5  -5    4.40    2.00
  -8   5   5    0.20    3.30
  -8   5   5   -0.30    3.30
   7  -5  -5    2.20    2.30
  -7   5   5   -1.70    2.70
  -7   5   5    1.30    2.30
   6  -5  -5  178.28    6.80
   6  -5  -5  175.98    7.60
   6  -5  -5  185.18    7.30
  -6   5   5  172.18    8.20
  -6   5   5  177.58    6.60
   5  -5  -5   30.60    3.70
   5  -5  -5   21.70    2.70
   5  -5  -5   21.00    2.60
   5  -5  -5   25.20    3.40
  -5   5   5   24.40    3.10
  -5   5   5   28.20    3.60
   4  -5  -5    3.20    1.70
   4  -5  -5   -2.00    2.20
   4  -5  -5    1.90    2.20
   4  -5  -5    1.70    1.90
  -4   5   5    1.60    1.50
  -4   5   5    1.30    2.50
   3  -5  -5   51.59    4.70
   3  -5  -5   58.39    4.00
   3  -5  -5   59.49    3.70
  -3   5   5   62.69    5.20
  -3   5   5   56.59    2.90
  -3   5   5   66.99    4.20
   2  -5  -5   29.00    4.00
   2  -5  -5   34.60    4.00
   2  -5  -5   30.80    2.90
  -2   5   5   34.20    3.70
  -2   5   5   35.10    4.70
   1  -5  -5    7.80    2.80
  -1   5   5    3.70    2.80
   0  -5  -5   20.50    3.80
   0   5   5   22.20    3.70
  -1  -5  -5   39.30    5.50
  -1  -5  -5   56.39    6.20
  -1  -5  -5   38.80    5.10
   1   5   5   39.40    4.60
  -2  -5  -5    9.70    3.90
  -2  -5  -5    6.40    4.50
  -2  -5  -5    9.60    4.90
   2   5   5    0.40    3.20
   2   5   5   -0.30    3.80
  -3  -5  -5   -2.60    5.40
  -3  -5  -5    8.60    6.50
  -3  -5  -5    0.60    8.50
   3   5   5    5.00    4.50
 -10   6   5    6.00    5.30
 -10   6   5   -2.40    4.80
 -10   6   5   -7.10    4.60
   9  -6  -5    3.30    2.50
   9  -6  -5    3.20    3.50
  -9   6   5    1.90    3.60
  -9   6   5    3.40    4.00
   8  -6  -5    3.90    2.70
  -8   6   5    3.40    2.90
  -8   6   5   -2.80    3.30
   7  -6  -5    3.10    2.80
  -7   6   5    2.60    2.30
  -7   6   5   -3.90    3.10
   6  -6  -5   84.39    5.80
   6  -6  -5   83.49    5.80
   6  -6  -5   84.79    4.70
   6  -6  -5   84.69    5.80
  -6   6   5   83.69    6.60
  -6   6   5   76.89    5.10
   5  -6  -5   78.29    4.40
   5  -6  -5   78.99    5.90
   5  -6  -5   72.29    5.70
   5  -6  -5   78.59    5.20
  -5   6   5   78.69    4.60
  -5   6   5   85.49    6.70
   4  -6  -5   17.00    2.80
   4  -6  -5   12.80    3.20
   4  -6  -5   15.80    3.40
   4  -6  -5   13.90    2.40
  -4   6   5   15.80    2.50
  -4   6   5   12.40    3.40
   3  -6  -5   23.90    3.70
   3  -6  -5   16.30    2.90
   3  -6  -5   14.90    2.60
  -3   6   5    8.50    6.40
  -3   6   5   20.50    2.20
   2  -6  -5   -1.50    2.00
   2  -6  -5    2.50    4.50
   2  -6  -5    5.90    3.00
  -2   6   5    4.80    2.60
  -2   6   5    2.30    3.20
   1  -6  -5   16.30    3.90
  -1   6   5   17.00    3.80
  -1   6   5   13.30    2.70
   0  -6  -5   22.30    3.60
   0  -6  -5   26.70    5.00
   0   6   5   28.00    3.70
   0   6   5   25.70    4.30
  -1  -6  -5    5.40    4.80
  -1  -6  -5   -1.10    4.00
  -1  -6  -5   12.70    3.80
   1   6   5    5.50    3.30
   1   6   5    4.00    3.50
   1   6   5    5.40    3.90
  -2  -6  -5    5.10    6.20
   2   6   5    1.40    4.40
   2   6   5    1.10    3.40
 -10   7   5    7.30    5.20
   9  -7  -5   -1.00    4.00
   9  -7  -5    2.60    3.40
  -9   7   5   -5.60    3.90
  -9   7   5    2.20    3.80
   8  -7  -5   -2.00    3.20
   8  -7  -5    3.50    3.50
  -8   7   5   -3.20    3.50
  -8   7   5   -0.90    3.30
   7  -7  -5   35.50    4.60
   7  -7  -5   40.70    5.60
   7  -7  -5   34.20    4.60
  -7   7   5   29.40    3.90
  -7   7   5   33.30    5.10
   6  -7  -5   26.50    3.20
   6  -7  -5   26.70    4.00
   6  -7  -5   26.50    4.20
   6  -7  -5   22.70    4.40
  -6   7   5   26.00    3.40
  -6   7   5   33.80    5.30
   5  -7  -5   14.90    4.00
   5  -7  -5   12.90    2.50
   5  -7  -5   10.40    3.50
   5  -7  -5   15.30    3.70
  -5   7   5   16.10    4.60
  -5   7   5   15.30    2.80
   4  -7  -5   12.60    2.50
   4  -7  -5   15.20    3.50
   4  -7  -5   18.70    4.60
   4  -7  -5   13.20    3.60
  -4   7   5    8.00    4.00
  -4   7   5    9.50    2.70
   3  -7  -5    8.80    2.70
   3  -7  -5    9.90    3.60
  -3   7   5    2.70    2.60
  -3   7   5   17.10    4.30
  -3   7   5   10.20    2.40
   2  -7  -5    3.40    2.50
   2  -7  -5   -0.90    4.50
   2  -7  -5   -1.50    3.10
  -2   7   5    6.00    3.00
  -2   7   5    1.40    3.80
  -2   7   5    1.50    2.40
   1  -7  -5   12.20    4.70
  -1   7   5   14.10    3.20
  -1   7   5   13.60    4.40
  -1   7   5   17.00    3.60
   0  -7  -5    9.10    5.40
   0  -7  -5    3.00    4.00
   0   7   5   11.90    3.70
   0   7   5   15.60    4.60
  -1  -7  -5    0.50    6.50
   1   7   5    3.50    3.60
   1   7   5    7.50    4.70
  -9   8   5   -3.40    4.30
  -9   8   5   -3.80    4.40
   8  -8  -5   -1.00    4.50
   8  -8  -5    9.10    4.30
  -8   8   5   11.60    4.20
  -8   8   5    8.50    5.10
   7  -8  -5    5.90    4.30
   7  -8  -5   -2.20    4.30
   7  -8  -5    0.70    4.20
  -7   8   5   -0.20    4.70
  -7   8   5    0.80    3.40
   6  -8  -5   31.50    5.30
   6  -8  -5   31.30    3.40
   6  -8  -5   33.60    5.00
  -6   8   5   33.10    6.20
  -6   8   5   32.60    4.20
  -6   8   5   33.20    4.50
   5  -8  -5   11.50    4.10
   5  -8  -5   12.10    2.70
   5  -8  -5    5.30    4.40
   5  -8  -5    1.30    4.60
  -5   8   5   10.60    3.60
  -5   8   5   11.80    4.70
  -5   8   5    5.30    3.30
   4  -8  -5   35.60    3.30
   4  -8  -5   38.20    6.00
   4  -8  -5   36.50    6.00
  -4   8   5   53.89    6.40
  -4   8   5   34.00    4.50
   3  -8  -5   -3.40    3.90
   3  -8  -5    3.20    2.60
   3  -8  -5   -7.10    4.10
  -3   8   5   -1.50    3.70
  -3   8   5   -3.00    4.40
  -3   8   5   -0.20    2.90
   2  -8  -5   -0.90    2.90
   2  -8  -5   -3.80    4.20
   2  -8  -5    6.20    4.80
  -2   8   5   -6.20    4.10
  -2   8   5   -0.50    4.50
  -2   8   5    4.20    3.10
   1  -8  -5    5.80    5.50
  -1   8   5    5.80    3.40
  -1   8   5    8.10    5.20
  -9   9   5   10.70    5.80
   8  -9  -5   25.60    6.70
  -8   9   5   19.60    7.10
  -8   9   5   28.70    5.40
   7  -9  -5   16.20    6.00
   7  -9  -5   18.60    5.80
   7  -9  -5   16.50    5.80
  -7   9   5   10.00    4.60
  -7   9   5   17.00    6.60
  -7   9   5   15.00    5.50
   6  -9  -5    1.30    5.50
   6  -9  -5    2.70    4.90
   6  -9  -5    1.50    5.20
  -6   9   5    6.40    4.60
  -6   9   5   -3.40    4.00
  -6   9   5    3.50    5.60
   5  -9  -5    7.80    4.90
   5  -9  -5   16.30    5.60
   5  -9  -5    9.60    3.10
   5  -9  -5   13.40    5.50
  -5   9   5    4.80    4.70
  -5   9   5    7.30    4.30
  -5   9   5    9.30    6.00
   4  -9  -5    6.00    2.90
   4  -9  -5    1.30    5.30
   4  -9  -5    3.70    5.60
  -4   9   5    1.70    5.80
  -4   9   5   10.40    7.20
   3  -9  -5   -2.40    5.50
   3  -9  -5    2.80    3.10
  -3   9   5    5.00    5.80
   2  -9  -5   -4.40    3.30
   2  -9  -5    4.10    6.30
  -2   9   5    0.60    3.40
  -2   9   5    4.10    5.80
   6 -10  -5    5.70    7.00
   6 -10  -5    8.30    6.60
  -6  10   5   17.40    6.00
  -6  10   5   24.70    7.80
   2 -11   6    4.50    9.00
   2 -11   6   28.00    4.70
   3 -11   6    7.40    5.10
   3 -11   6   11.60    5.50
   4 -11   6   19.30    9.90
   4 -11   6  -12.00    5.70
   4 -11   6    9.20    5.40
   5 -11   6    9.60    5.50
   1  10  -6   33.70    4.70
   0  10  -6   13.10    3.30
   0  10  -6   10.00    3.00
   0 -10   6   14.50    3.20
   0 -10   6   10.60    5.60
  -1  10  -6   -1.30    3.90
   1 -10   6    4.00    3.50
   1 -10   6    5.20    5.00
  -2  10  -6    5.50    4.00
   2 -10   6    7.00    4.00
   2 -10   6    2.30    4.80
   2 -10   6    2.80    3.80
  -3  10  -6   16.50    4.20
  -3  10  -6   19.80    3.00
   3 -10   6   18.60    4.40
   3 -10   6   11.20    3.90
   3 -10   6   15.20    5.20
  -4  10  -6   -0.20    2.60
  -4  10  -6   -3.60    3.90
   4 -10   6   -3.50    5.00
   4 -10   6    7.30    4.70
   4 -10   6    2.30    4.30
  -5  10  -6    1.30    2.80
  -5  10  -6   -7.00    4.50
   5 -10   6   -0.50    5.10
   5 -10   6   -0.90    4.80
   5 -10   6   -6.00    5.10
  -6  10  -6    2.10    3.20
   6 -10   6   -8.80    5.30
   6 -10   6    6.40    7.10
   6 -10   6   -5.70    5.30
   7 -10   6   -4.20    8.30
   2   9  -6   28.70    4.00
  -2  -9   6   33.00    5.10
  -2  -9   6   32.60    7.00
   1   9  -6   14.80    3.20
   1   9  -6   16.90    3.30
  -1  -9   6    8.70    2.60
  -1  -9   6   15.10    3.70
  -1  -9   6    8.30    3.00
  -1  -9   6   14.70    5.30
   0   9  -6    4.20    2.90
   0   9  -6   -4.50    3.60
   0  -9   6   -3.70    2.70
   0  -9   6    2.60    4.20
  -1   9  -6   10.70    2.70
  -1   9  -6    5.20    3.60
   1  -9   6    8.40    4.10
   1  -9   6    8.90    3.40
   1  -9   6   10.10    3.40
  -2   9  -6   12.40    3.70
  -2   9  -6   17.20    2.90
   2  -9   6   26.00    4.00
   2  -9   6   22.60    4.70
   2  -9   6   18.40    3.60
  -3   9  -6   24.40    4.00
  -3   9  -6   22.50    2.70
   3  -9   6   18.90    4.90
   3  -9   6   23.80    4.10
   3  -9   6   21.80    4.50
  -4   9  -6   -5.40    3.70
  -4   9  -6    0.90    2.40
   4  -9   6   -0.80    3.80
   4  -9   6   -4.70    3.90
   4  -9   6    7.50    3.90
  -5   9  -6   -0.70    2.50
  -5   9  -6   -3.50    3.80
   5  -9   6    4.80    4.50
   5  -9   6    0.30    4.60
   5  -9   6    4.40    5.70
  -6   9  -6    6.20    4.00
   6  -9   6    4.60    4.90
   6  -9   6    6.50    6.00
   6  -9   6   -2.80    4.90
  -7   9  -6    3.00    3.30
   7  -9   6    4.20    7.30
   7  -9   6    0.50    5.50
   4   8  -6   -3.80    4.10
  -4  -8   6   -2.80   10.60
  -4  -8   6   -2.70    5.70
   3   8  -6   25.00    3.40
   3   8  -6   18.40    4.10
  -3  -8   6   23.60    5.90
  -3  -8   6   19.70    4.90
   2   8  -6   44.10    5.20
   2   8  -6   31.00    3.90
  -2  -8   6   28.70    6.10
  -2  -8   6   29.50    3.10
  -2  -8   6   32.60    5.70
  -2  -8   6   32.40    3.60
   1   8  -6   15.00    3.10
  -1  -8   6   18.00    3.10
  -1  -8   6   14.70    4.70
  -1  -8   6   13.30    2.80
   0   8  -6   60.69    4.60
   0   8  -6   49.99    4.20
   0  -8   6   52.39    4.90
   0  -8   6   57.19    7.00
   0  -8   6   57.79    6.60
  -1   8  -6   29.40    2.90
  -1   8  -6   25.70    3.60
   1  -8   6   28.60    4.80
   1  -8   6   20.40    3.80
   1  -8   6   24.30    3.50
  -2   8  -6   -2.80    2.70
  -2   8  -6   -0.90    2.10
   2  -8   6    3.40    2.90
   2  -8   6    1.20    3.60
   2  -8   6   -0.70    2.80
  -3   8  -6    1.50    3.10
  -3   8  -6    1.10    2.10
   3  -8   6   -0.70    3.10
   3  -8   6    0.00    3.00
   3  -8   6    3.40    3.20
  -4   8  -6   -0.60    2.20
   4  -8   6   -1.20    3.60
   4  -8   6   -4.60    3.30
   4  -8   6   -1.00    3.60
  -5   8  -6    2.10    3.10
   5  -8   6    0.10    3.60
   5  -8   6   -1.30    4.10
   5  -8   6    5.10    4.00
  -6   8  -6   -0.60    2.30
  -6   8  -6    3.70    3.90
   6  -8   6   -5.80    5.10
   6  -8   6   -2.90    4.60
   6  -8   6   12.30    3.70
  -7   8  -6    6.60    3.50
  -7   8  -6   -1.10    4.80
   7  -8   6   -7.00    6.50
  -8   8  -6    6.90    5.10
   8  -8   6   -7.40    7.60
   5   7  -6   18.30    4.80
  -5  -7   6    6.10    6.70
  -5  -7   6    2.70    5.90
   4   7  -6   27.90    4.00
  -4  -7   6   18.30    5.90
  -4  -7   6   18.70    5.10
   3   7  -6   10.20    2.50
  -3  -7   6   11.90    2.00
  -3  -7   6   13.10    4.00
  -3  -7   6   11.90    4.60
  -3  -7   6    8.80    1.80
   2   7  -6    7.60    2.80
  -2  -7   6    6.60    2.90
  -2  -7   6    5.70    2.10
  -2  -7   6    5.40    4.20
  -2  -7   6    6.50    2.50
   1   7  -6    1.20    2.30
   1   7  -6    3.70    2.90
   1   7  -6    5.80    2.10
  -1  -7   6    0.90    2.00
  -1  -7   6   -0.70    2.10
  -1  -7   6    5.00    3.60
  -1  -7   6   -1.10    3.20
   0   7  -6  114.09    6.40
   0   7  -6  106.59    5.30
   0  -7   6  116.89    7.10
   0  -7   6  102.69    5.80
   0  -7   6  118.19    6.90
  -1   7  -6  186.48    6.60
  -1   7  -6  188.48    7.90
   1  -7   6  183.78    7.90
   1  -7   6  194.08    8.70
   1  -7   6  174.98    8.50
  -2   7  -6   -1.00    2.30
  -2   7  -6    0.00    2.00
   2  -7   6    2.60    2.70
   2  -7   6   -0.10    2.60
   2  -7   6    5.10    3.00
  -3   7  -6   18.00    3.10
  -3   7  -6   12.80    2.60
   3  -7   6   18.40    3.30
   3  -7   6   12.60    3.40
   3  -7   6   20.10    3.80
  -4   7  -6   19.80    3.30
   4  -7   6   16.40    3.30
   4  -7   6   18.70    4.40
   4  -7   6   10.10    3.60
  -5   7  -6   11.70    1.90
   5  -7   6    8.80    4.50
   5  -7   6   12.20    3.00
   5  -7   6   13.00    4.10
  -6   7  -6    4.80    2.80
  -6   7  -6    3.40    3.90
   6  -7   6    2.00    3.30
   6  -7   6    0.10    4.90
  -7   7  -6    8.00    4.00
  -7   7  -6    2.10    4.10
   7  -7   6   -6.80    5.80
  -8   7  -6   13.50    5.50
   8  -7   6    7.90    7.70
   6   6  -6   12.40    5.00
  -6  -6   6   10.80    6.50
  -6  -6   6   10.20    7.30
  -6  -6   6   15.40    6.60
   5   6  -6    1.90    2.10
  -5  -6   6    9.20    5.00
  -5  -6   6   -0.60    4.80
  -5  -6   6    4.90    4.90
   4   6  -6   -1.60    2.10
  -4  -6   6    2.50    4.10
  -4  -6   6   -0.60    2.00
  -4  -6   6    4.60    3.90
   3   6  -6   54.29    4.40
  -3  -6   6   61.49    5.60
  -3  -6   6   62.29    4.30
  -3  -6   6   58.09    6.50
  -3  -6   6   60.29    6.70
   2   6  -6   35.50    3.60
   2   6  -6   32.30    3.50
  -2  -6   6   31.60    4.40
  -2  -6   6   31.40    4.00
  -2  -6   6   30.20    3.20
  -2  -6   6   26.90    4.20
   1   6  -6   38.50    4.40
   1   6  -6   41.10    3.70
   1   6  -6   36.80    3.50
  -1  -6   6   31.90    3.80
  -1  -6   6   32.00    3.90
  -1  -6   6   32.30    2.90
   0   6  -6   22.10    3.00
   0   6  -6   28.90    3.20
   0  -6   6   30.70    4.00
   0  -6   6   26.00    3.70
  -1   6  -6   -0.50    1.70
  -1   6  -6    0.10    2.10
   1  -6   6    2.50    2.40
   1  -6   6   -3.40    2.20
  -2   6  -6   -0.60    1.90
  -2   6  -6    0.30    1.80
   2  -6   6   -0.60    2.40
   2  -6   6   -0.80    4.00
   2  -6   6    2.10    2.40
  -3   6  -6   50.59    4.30
   3  -6   6   42.60    5.20
   3  -6   6   49.99    4.90
   3  -6   6   55.79    4.80
  -4   6  -6   22.00    3.40
  -4   6  -6   24.70    2.30
   4  -6   6   24.80    3.20
   4  -6   6   17.80    3.60
   4  -6   6   21.00    4.10
  -5   6  -6   -0.20    2.90
  -5   6  -6   -0.80    2.20
   5  -6   6   -1.90    3.80
  -6   6  -6   -1.70    3.60
  -6   6  -6    4.80    3.20
   6  -6   6    7.10    4.70
  -7   6  -6    9.90    4.50
  -7   6  -6    6.50    4.40
   7  -6   6   -1.60    5.80
   7  -6   6    3.30    4.00
  -8   6  -6   27.60    6.20
   8  -6   6   22.80    7.90
   7   5  -6    2.80    4.40
  -7  -5   6    5.20    6.60
  -7  -5   6    6.90    8.00
   6   5  -6   -0.50    2.10
  -6  -5   6   -3.40    4.90
  -6  -5   6   -3.50    2.40
  -6  -5   6    2.50    4.90
  -6  -5   6    1.50    4.90
   5   5  -6    2.50    2.10
  -5  -5   6   -2.60    2.30
  -5  -5   6   -0.40    3.70
  -5  -5   6    1.80    4.30
  -5  -5   6   -2.10    3.40
   4   5  -6  199.08    8.00
  -4  -5   6  197.28    9.00
  -4  -5   6  203.18    8.60
  -4  -5   6  217.88    9.40
  -4  -5   6  188.18    7.20
   3   5  -6   25.30    2.80
   3   5  -6   33.00    3.30
  -3  -5   6   30.50    3.90
  -3  -5   6   28.50    3.30
  -3  -5   6   39.50    5.10
  -3  -5   6   35.60    4.30
   2   5  -6   50.19    3.90
   2   5  -6   47.30    3.40
  -2  -5   6   47.10    3.60
  -2  -5   6   47.40    4.20
  -2  -5   6   45.50    5.20
  -2  -5   6   51.49    5.10
   1   5  -6  457.75   13.00
   1   5  -6  449.16   13.50
   1   5  -6  474.05   13.70
  -1  -5   6  460.15   13.70
  -1  -5   6  451.85   14.40
  -1  -5   6  458.15   12.00
   0   5  -6   15.10    2.20
   0   5  -6   12.20    2.20
   0  -5   6   10.60    2.40
   0  -5   6   13.90    2.60
  -1   5  -6    1.50    1.70
  -1   5  -6   -0.70    1.60
   1  -5   6    2.70    2.20
   1  -5   6    2.30    1.90
  -2   5  -6   26.00    3.00
   2  -5   6   35.50    4.40
   2  -5   6   30.80    4.10
  -3   5  -6   46.60    4.20
   3  -5   6   49.30    6.00
   3  -5   6   49.70    5.00
  -4   5  -6  180.68    7.80
  -4   5  -6  186.88    6.20
   4  -5   6  186.58    8.80
   4  -5   6  189.48    7.90
  -5   5  -6   15.90    3.40
  -5   5  -6   13.60    2.90
   5  -5   6   12.50    4.20
  -6   5  -6    9.60    3.60
   6  -5   6    4.60    3.10
   6  -5   6    8.00    4.90
  -7   5  -6    1.80    4.20
  -7   5  -6   -2.60    4.60
   7  -5   6   -1.10    5.80
   7  -5   6    3.20    4.20
  -8   5  -6   -3.20    6.10
   8  -5   6    8.40    7.20
   7   4  -6    3.40    2.70
  -7  -4   6    4.70    3.70
  -7  -4   6   -1.20    3.30
  -7  -4   6    3.10    5.50
  -7  -4   6    2.70    4.30
  -7  -4   6    5.60    5.70
   6   4  -6    8.70    2.60
  -6  -4   6    9.00    4.30
  -6  -4   6    6.60    3.00
  -6  -4   6    2.60    4.20
  -6  -4   6    6.90    4.00
   5   4  -6   23.80    3.10
  -5  -4   6   22.40    4.20
  -5  -4   6   30.30    4.10
  -5  -4   6   26.20    3.20
  -5  -4   6   21.10    4.00
   4   4  -6    2.00    2.10
  -4  -4   6    3.30    2.70
  -4  -4   6   -1.70    2.50
  -4  -4   6    3.90    2.30
  -4  -4   6   -2.50    2.50
   3   4  -6    5.50    1.80
   3   4  -6    7.00    2.00
  -3  -4   6    4.30    2.40
  -3  -4   6    4.10    2.60
  -3  -4   6    6.80    2.20
  -3  -4   6    4.30    2.30
   2   4  -6  223.28    7.40
   2   4  -6  203.48    7.40
  -2  -4   6  217.98    7.90
  -2  -4   6  213.58    6.90
  -2  -4   6  216.88    8.40
  -2  -4   6  213.48    7.80
   1   4  -6    2.50    1.50
   1   4  -6    1.40    1.60
  -1  -4   6    0.80    1.20
  -1  -4   6    0.50    1.80
  -1  -4   6    2.90    1.90
   0   4  -6   93.29    4.30
   0   4  -6   89.19    4.10
   0  -4   6   87.59    4.60
   0  -4   6   84.79    5.10
  -1   4  -6   34.70    3.20
  -1   4  -6   40.10    3.00
   1  -4   6   42.60    4.10
   1  -4   6   36.30    3.60
  -2   4  -6    8.80    2.00
  -2   4  -6    6.30    1.70
   2  -4   6   11.80    2.70
   2  -4   6    7.50    2.20
   2  -4   6    9.10    1.10
  -3   4  -6   10.50    1.90
  -3   4  -6   12.30    2.20
  -3   4  -6   13.50    2.50
   3  -4   6   11.10    1.60
   3  -4   6   16.90    3.00
  -4   4  -6    0.40    2.30
  -4   4  -6    5.40    2.20
  -4   4  -6    4.70    2.50
   4  -4   6    6.00    2.00
   4  -4   6    4.20    2.80
  -5   4  -6   -4.40    3.00
  -5   4  -6    1.00    2.90
  -5   4  -6   -1.40    2.80
   5  -4   6    3.00    2.30
   5  -4   6   -0.90    3.90
  -6   4  -6   71.89    7.40
  -6   4  -6   78.59    8.90
   6  -4   6   86.89    8.40
   6  -4   6   79.79    7.40
   6  -4   6   60.39    6.20
  -7   4  -6   12.70    4.70
  -7   4  -6   10.80    5.00
  -7   4  -6    8.90    5.20
   7  -4   6    9.10    6.00
   7  -4   6    7.70    5.20
   7  -4   6   14.60    4.80
  -8   4  -6    8.30    6.20
  -8   4  -6   -0.20    7.00
   8  -4   6    4.40    6.10
   8  -4   6    1.80    7.20
   8   3  -6   -0.40    2.80
  -8  -3   6   -1.20    4.30
  -8  -3   6   -8.40    6.10
  -8  -3   6    4.50    5.70
   7   3  -6    1.40    2.80
  -7  -3   6    1.20    4.70
  -7  -3   6    2.90    3.40
  -7  -3   6   -5.80    2.60
  -7  -3   6    2.20    4.30
  -7  -3   6    3.90    3.50
   6   3  -6  189.58    7.90
  -6  -3   6  198.58    8.10
  -6  -3   6  193.28    8.30
  -6  -3   6  197.28    9.60
  -6  -3   6  191.68    9.70
   5   3  -6  105.19    5.40
  -5  -3   6  115.19    6.80
  -5  -3   6  120.19    6.70
  -5  -3   6  101.99    5.80
  -5  -3   6  119.39    6.10
   4   3  -6    0.10    1.50
   4   3  -6   -1.60    1.90
  -4  -3   6    3.90    2.30
  -4  -3   6   -0.10    2.20
  -4  -3   6    2.60    2.20
  -4  -3   6    0.30    2.20
   3   3  -6   41.90    3.20
   3   3  -6   42.30    3.20
  -3  -3   6   41.30    3.90
  -3  -3   6   40.10    3.70
  -3  -3   6   43.60    4.30
  -3  -3   6   43.60    3.70
   2   3  -6   39.60    2.80
   2   3  -6   34.80    3.00
  -2  -3   6   43.70    4.10
  -2  -3   6   36.40    3.90
  -2  -3   6   46.20    3.30
  -2  -3   6   40.10    3.00
   1   3  -6    2.50    1.30
   1   3  -6    4.60    1.40
  -1  -3   6    4.70    2.10
  -1  -3   6    2.30    1.60
   0   3  -6   43.80    2.90
   0   3  -6   49.10    3.40
   0   3  -6   49.10    3.00
   0  -3   6   48.80    3.30
   0  -3   6   44.60    2.20
   0  -3   6   47.80    3.90
  -1   3  -6  123.79    5.50
  -1   3  -6  114.59    4.70
   1  -3   6  121.59    5.00
   1  -3   6  108.19    3.80
   1  -3   6  111.09    5.70
  -2   3  -6  216.08    6.70
  -2   3  -6  230.78    8.30
  -2   3  -6  203.78    7.30
   2  -3   6  210.18    6.60
   2  -3   6  223.48    8.50
  -3   3  -6  110.89    5.00
  -3   3  -6  117.69    5.50
  -3   3  -6  107.09    5.60
   3  -3   6  111.39    4.80
   3  -3   6  106.59    6.20
  -4   3  -6    4.90    2.60
  -4   3  -6    1.90    4.30
  -4   3  -6    4.50    2.50
   4  -3   6    3.10    2.10
   4  -3   6    4.50    2.90
  -5   3  -6   28.30    4.00
  -5   3  -6   26.10    3.70
  -5   3  -6   27.60    4.30
   5  -3   6   29.10    4.00
   5  -3   6   33.70    5.30
  -6   3  -6   -5.90    3.90
  -6   3  -6   10.30    4.30
  -6   3  -6    4.90    4.40
   6  -3   6    3.70    3.80
   6  -3   6    5.90    4.80
   6  -3   6    4.10    4.30
  -7   3  -6   -4.40    5.20
  -7   3  -6    4.40    5.40
  -7   3  -6    2.70    5.70
   7  -3   6   14.50    6.40
   7  -3   6   -5.50    5.40
   7  -3   6    8.10    4.70
   8   2  -6    5.40    3.00
  -8  -2   6   -0.60    4.10
  -8  -2   6    0.70    5.20
   7   2  -6    5.70    2.50
  -7  -2   6   -1.40    2.40
  -7  -2   6    0.50    4.00
  -7  -2   6   -0.40    3.50
  -7  -2   6   -3.00    3.80
   6   2  -6    2.60    2.00
  -6  -2   6    1.40    3.00
  -6  -2   6    1.70    2.80
  -6  -2   6    2.00    2.40
  -6  -2   6    0.70    3.30
   5   2  -6   44.80    3.60
   5   2  -6   45.20    3.50
  -5  -2   6   45.30    4.70
  -5  -2   6   46.40    4.40
  -5  -2   6   46.90    4.20
  -5  -2   6   52.59    5.00
   4   2  -6   61.29    3.70
   4   2  -6   57.39    3.60
  -4  -2   6   61.29    4.60
  -4  -2   6   63.39    4.30
  -4  -2   6   60.19    4.30
  -4  -2   6   61.49    4.00
   3   2  -6    2.20    1.50
   3   2  -6    1.90    1.40
  -3  -2   6   -0.10    1.80
  -3  -2   6    0.10    1.90
  -3  -2   6    1.40    1.90
  -3  -2   6    0.60    1.40
   2   2  -6  118.49    5.40
   2   2  -6  123.59    4.80
  -2  -2   6  120.79    5.70
  -2  -2   6  121.39    5.60
  -2  -2   6  119.89    4.50
   1   2  -6   78.69    3.70
   1   2  -6   85.59    4.50
   1   2  -6   81.19    3.30
  -1  -2   6   82.99    4.80
  -1  -2   6   82.19    3.50
   0   2  -6    4.50    1.40
   0   2  -6    7.30    1.40
   0   2  -6    6.70    1.70
   0  -2   6    3.80    1.50
   0  -2   6    4.20    2.10
   0  -2   6    4.60    1.30
  -1   2  -6    5.60    1.80
  -1   2  -6    5.20    1.50
   1  -2   6    4.20    2.00
   1  -2   6    4.30    1.50
  -2   2  -6   87.49    4.50
  -2   2  -6   85.69    4.70
  -2   2  -6   95.49    4.60
   2  -2   6   91.69    5.40
   2  -2   6   92.09    4.20
  -3   2  -6   -2.10    2.10
  -3   2  -6   -1.20    2.00
   3  -2   6   -1.00    1.70
   3  -2   6    1.80    2.50
  -4   2  -6   -4.70    2.60
  -4   2  -6    4.40    2.60
  -4   2  -6   -3.40    2.40
   4  -2   6    4.60    2.40
   4  -2   6    2.00    3.20
  -5   2  -6   59.29    6.60
  -5   2  -6   76.69    6.90
  -5   2  -6   61.29    6.50
   5  -2   6   77.39    7.80
   5  -2   6   72.59    6.30
  -6   2  -6   10.50    4.40
  -6   2  -6    5.00    4.80
  -6   2  -6    5.80    4.80
   6  -2   6    4.70    4.80
   6  -2   6    3.40    4.30
   6  -2   6    6.10    5.60
  -7   2  -6    3.70    5.50
  -7   2  -6   -0.20    6.20
  -7   2  -6    0.10    6.20
   7  -2   6   -4.60    5.60
   7  -2   6   -8.30    5.70
   7  -2   6    9.10    6.90
   9   1  -6   -1.90    3.10
   9   1  -6    6.80    4.90
  -9  -1   6    2.80    6.10
  -9  -1   6    7.50    5.40
   8   1  -6   54.39    6.70
   8   1  -6   43.40    5.10
  -8  -1   6   43.30    6.10
  -8  -1   6   42.70    5.40
   7   1  -6   21.70    3.20
   7   1  -6   17.40    3.90
  -7  -1   6   20.20    4.20
  -7  -1   6   23.60    4.30
  -7  -1   6   20.00    2.90
   6   1  -6    7.60    2.30
  -6  -1   6    7.30    3.00
  -6  -1   6    5.00    2.20
  -6  -1   6    3.00    2.60
   5   1  -6   12.90    2.10
   5   1  -6   14.80    2.40
  -5  -1   6   14.80    2.50
  -5  -1   6   10.60    2.70
  -5  -1   6   17.10    3.10
  -5  -1   6   12.80    2.40
   4   1  -6    8.60    1.80
   4   1  -6    8.50    1.80
  -4  -1   6    9.00    2.10
  -4  -1   6    7.50    2.30
  -4  -1   6    8.30    2.10
  -4  -1   6    6.70    1.90
   3   1  -6   32.00    2.50
   3   1  -6   27.60    3.00
   3   1  -6   25.50    2.70
  -3  -1   6   30.60    2.40
  -3  -1   6   33.60    3.60
  -3  -1   6   28.20    3.50
   2   1  -6    2.50    1.70
   2   1  -6    0.50    1.20
  -2  -1   6    1.20    0.90
  -2  -1   6    4.30    1.90
  -2  -1   6    2.90    2.00
   1   1  -6  156.78    5.60
   1   1  -6  159.58    4.50
   1   1  -6  165.08    6.50
  -1  -1   6  148.09    5.40
  -1  -1   6  154.58    6.50
   0   1  -6    3.70    1.00
   0   1  -6    3.80    1.60
   0  -1   6    4.70    1.90
   0  -1   6    4.70    1.50
  -1   1  -6   57.19    3.10
  -1   1  -6   63.79    4.00
   1  -1   6   58.89    4.40
   1  -1   6   48.70    3.40
  -2   1  -6    5.20    1.90
  -2   1  -6    3.10    2.20
   2  -1   6    6.20    1.90
   2  -1   6    3.10    2.20
  -3   1  -6    1.70    2.20
  -3   1  -6   -0.30    2.20
  -3   1  -6    2.30    2.70
   3  -1   6    0.60    2.60
   3  -1   6   -1.30    2.20
  -4   1  -6   57.39    5.70
  -4   1  -6   56.09    5.50
  -4   1  -6   57.09    6.00
   4  -1   6   49.00    5.40
   4  -1   6   57.99    6.70
  -5   1  -6    8.90    4.50
  -5   1  -6   10.60    4.40
  -5   1  -6    8.30    4.00
   5  -1   6   11.50    4.90
   5  -1   6   11.60    3.70
  -6   1  -6    3.50    4.80
  -6   1  -6   -6.90    4.60
  -6   1  -6   -0.40    5.30
   6  -1   6    0.70    5.00
   6  -1   6    3.80    5.80
   6  -1   6    5.10    4.60
  -7   1  -6  -15.90    6.20
  -7   1  -6   -2.00    7.30
   7  -1   6   -3.80    7.10
   7  -1   6   -4.90    6.60
   9   0  -6   34.10    4.40
  -9   0   6   34.70    6.00
  -9   0   6   39.30    6.90
   8   0  -6    4.00    2.50
   8   0  -6    3.10    3.70
  -8   0   6   -3.20    4.00
  -8   0   6    1.80    4.00
   7   0  -6  134.69    7.30
   7   0  -6  127.69    6.00
  -7   0   6  128.59    7.50
  -7   0   6  121.69    7.80
   6   0  -6   22.30    5.70
   6   0  -6   26.70    2.80
   6   0  -6   26.20    2.80
  -6   0   6   23.10    3.00
  -6   0   6   24.00    3.70
  -6   0   6   28.00    3.80
   5   0  -6   23.20    3.40
   5   0  -6   23.00    2.60
   5   0  -6   15.60    2.10
  -5   0   6   24.10    3.20
  -5   0   6   19.40    2.90
   4   0  -6   24.50    3.00
   4   0  -6   23.00    2.60
   4   0  -6   15.20    2.00
  -4   0   6   20.80    2.90
  -4   0   6   19.30    2.30
  -4   0   6   22.10    3.00
   3   0  -6   -0.10    1.50
   3   0  -6    1.50    1.20
  -3   0   6    0.60    1.90
  -3   0   6   -1.60    1.50
   2   0  -6   -0.50    1.50
   2   0  -6    1.20    1.20
  -2   0   6    1.50    1.90
  -2   0   6    0.10    1.60
   1   0  -6   29.70    2.40
   1   0  -6   31.20    3.10
  -1   0   6   22.30    3.30
  -1   0   6   33.30    2.90
   0   0  -6   40.20    2.30
   0   0  -6   42.30    3.40
   0   0   6   38.10    3.20
   0   0   6   41.90    3.80
  -1   0  -6    7.60    1.90
  -1   0  -6    5.90    1.70
  -1   0  -6    5.90    2.20
   1   0   6    7.60    2.40
   1   0   6    6.80    1.90
  -2   0  -6   60.49    4.10
  -2   0  -6   51.29    4.20
  -2   0  -6   62.39    5.20
   2   0   6   49.90    4.30
  -3   0  -6   20.50    3.30
   3   0   6   23.20    4.40
   3   0   6   24.40    3.40
  -4   0  -6   58.89    6.80
  -4   0  -6   62.89    6.30
   4   0   6   53.39    6.00
   4   0   6   48.20    6.80
  -5   0  -6    2.40    4.70
  -5   0  -6    8.00    4.70
   5   0   6   -0.60    5.00
   5   0   6    9.40    4.30
  -6   0  -6   12.40    6.10
  -6   0  -6    7.90    5.90
  -6   0  -6    1.90    6.00
   6   0   6   12.10    6.90
   6   0   6    1.20    5.50
   6   0   6    2.70    5.30
  10  -1  -6    7.30    5.80
  10  -1  -6    0.50    3.60
 -10   1   6    7.90   12.50
 -10   1   6    5.10    6.10
   9  -1  -6   -9.40    5.20
   9  -1  -6    2.90    3.00
  -9   1   6    0.80    4.90
  -9   1   6    1.00    4.50
   8  -1  -6    7.70    2.90
   8  -1  -6    9.10    3.90
  -8   1   6    9.20    4.20
  -8   1   6   11.50    3.80
   7  -1  -6   20.70    3.80
   7  -1  -6   22.10    2.80
  -7   1   6   13.80    3.30
  -7   1   6   18.30    4.20
   6  -1  -6   46.40    4.60
   6  -1  -6   37.00    3.10
   6  -1  -6   34.70    3.50
  -6   1   6   43.70    5.00
  -6   1   6   37.10    3.20
   5  -1  -6    1.80    1.50
   5  -1  -6    7.80    2.10
   5  -1  -6    0.90    1.60
   5  -1  -6    2.00    1.50
  -5   1   6    0.70    1.90
  -5   1   6    1.60    1.40
  -5   1   6    0.50    2.00
   4  -1  -6    1.90    1.70
   4  -1  -6    1.80    1.40
  -4   1   6    0.40    0.80
  -4   1   6    3.30    2.10
  -4   1   6    2.30    1.90
   3  -1  -6    5.30    1.50
   3  -1  -6    2.60    1.60
  -3   1   6    4.10    1.90
  -3   1   6    5.50    2.30
   2  -1  -6   31.40    2.40
   2  -1  -6   34.30    3.30
  -2   1   6   29.80    3.70
  -2   1   6   26.80    3.50
   1  -1  -6    7.80    0.90
   1  -1  -6    8.00    1.70
   1  -1  -6    5.60    0.80
  -1   1   6    4.80    1.80
  -1   1   6    7.70    2.20
  -1   1   6    6.90    2.20
   0  -1  -6   28.70    3.00
   0   1   6   27.50    3.10
   0   1   6   33.00    3.90
  -1  -1  -6   38.00    4.30
  -1  -1  -6   28.70    3.40
   1   1   6   38.80    3.70
   1   1   6   35.70    4.90
  -2  -1  -6    8.10    2.40
  -2  -1  -6    7.00    5.50
   2   1   6    7.60    2.80
   2   1   6    5.40    2.50
  -3  -1  -6   -0.30    2.80
  -3  -1  -6    4.30    3.50
   3   1   6   -0.50    2.80
   3   1   6    1.90    3.50
  -4  -1  -6    7.10    4.20
  -4  -1  -6    7.30    4.40
   4   1   6    5.60    4.90
   4   1   6    4.60    3.80
  -5  -1  -6   -2.60    5.60
  -5  -1  -6    5.40    5.30
   5   1   6    5.40    5.80
   5   1   6   -3.00    4.80
  10  -2  -6    0.80    7.40
  10  -2  -6    7.80    3.50
 -10   2   6    3.80    6.30
 -10   2   6   13.90    5.80
   9  -2  -6   18.50    3.30
   9  -2  -6   11.90    4.70
  -9   2   6   18.60    4.50
  -9   2   6   11.80    5.40
  -9   2   6   13.00    4.50
   8  -2  -6   13.90    2.70
  -8   2   6    9.60    4.50
  -8   2   6   11.00    3.70
   7  -2  -6    0.60    2.10
   7  -2  -6    9.10    3.00
   7  -2  -6    6.80    1.80
  -7   2   6    5.40    3.10
  -7   2   6    5.90    2.40
  -7   2   6   -1.30    3.20
   6  -2  -6    8.00    2.20
   6  -2  -6    4.50    1.90
   6  -2  -6    7.80    2.00
   6  -2  -6    6.30    1.90
  -6   2   6    8.10    2.00
  -6   2   6    3.50    2.60
  -6   2   6    5.80    2.20
   5  -2  -6    1.90    1.40
   5  -2  -6    4.00    1.90
   5  -2  -6    2.70    1.70
  -5   2   6    2.20    1.20
  -5   2   6    5.50    2.20
  -5   2   6    3.90    2.10
   4  -2  -6    0.20    1.20
   4  -2  -6   -1.30    1.80
  -4   2   6    1.70    2.10
  -4   2   6   -0.50    1.80
   3  -2  -6   30.40    2.70
   3  -2  -6   29.50    3.60
  -3   2   6   35.20    3.50
  -3   2   6   34.70    4.00
   2  -2  -6    0.00    1.30
   2  -2  -6    4.80    1.80
  -2   2   6   -0.70    1.90
  -2   2   6    0.70    1.70
  -2   2   6   -2.20    1.50
   1  -2  -6   12.80    1.60
   1  -2  -6   16.00    2.50
  -1   2   6   12.50    2.50
  -1   2   6   11.30    2.10
  -1   2   6   12.90    2.80
   0  -2  -6   15.10    2.50
   0  -2  -6   15.90    2.20
   0   2   6   16.10    3.10
   0   2   6   12.90    3.10
   0   2   6   16.30    2.60
  -1  -2  -6   -1.50    2.00
  -1  -2  -6    3.80    2.50
   1   2   6   -1.90    2.10
  -2  -2  -6   18.40    3.80
  -2  -2  -6   23.30    3.50
   2   2   6   23.30    3.70
   2   2   6   26.70    4.10
  -3  -2  -6    0.10    3.60
  -3  -2  -6    4.10    3.70
   3   2   6    3.30    3.60
   3   2   6    2.80    4.20
  -4  -2  -6    3.60    4.40
  -4  -2  -6    0.70    5.00
   4   2   6   -1.60    5.30
   4   2   6    8.60    4.40
  -5  -2  -6    2.90    6.60
  -5  -2  -6    3.60    6.90
   5   2   6    0.60    7.40
  10  -3  -6   -5.30    3.10
  10  -3  -6    8.50    5.60
 -10   3   6   13.40    5.00
 -10   3   6    5.10    6.00
 -10   3   6    2.10    5.00
   9  -3  -6   -3.90    2.50
   9  -3  -6   -0.80    4.20
  -9   3   6   -1.60    4.80
  -9   3   6   -6.90    3.40
  -9   3   6    5.10    3.70
   8  -3  -6   -1.80    2.20
  -8   3   6   -0.80    2.80
  -8   3   6    3.30    4.20
  -8   3   6   -0.10    2.90
   7  -3  -6   29.00    3.60
   7  -3  -6   33.30    3.40
   7  -3  -6   31.00    3.20
   7  -3  -6   21.30    2.90
  -7   3   6   24.80    2.90
  -7   3   6   22.20    3.90
   6  -3  -6    1.20    1.70
   6  -3  -6    7.10    2.30
   6  -3  -6    0.20    1.90
  -6   3   6   -0.40    1.60
  -6   3   6    4.70    2.50
   5  -3  -6    0.00    1.60
   5  -3  -6   -2.20    1.60
   5  -3  -6   -2.50    2.00
  -5   3   6    2.60    2.10
  -5   3   6   -1.90    2.30
  -5   3   6    1.00    1.20
   4  -3  -6   -1.00    1.80
   4  -3  -6    1.90    1.90
   4  -3  -6    5.90    1.70
  -4   3   6    8.20    2.20
  -4   3   6    2.60    2.60
  -4   3   6    3.00    0.90
   3  -3  -6   17.80    2.40
   3  -3  -6   26.40    3.80
  -3   3   6   28.00    3.50
  -3   3   6   21.70    3.00
  -3   3   6   29.00    3.80
   2  -3  -6  108.49    5.00
   2  -3  -6  104.09    6.20
   2  -3  -6  114.09    3.90
  -2   3   6  111.39    5.90
  -2   3   6   95.29    7.60
  -2   3   6  114.59    6.40
   1  -3  -6   42.40    3.20
   1  -3  -6   49.20    4.00
  -1   3   6   49.00    4.80
  -1   3   6   49.10    5.70
  -1   3   6   43.80    3.70
   0  -3  -6    5.80    2.40
   0   3   6    6.20    2.30
   0   3   6    7.30    2.90
   0   3   6    6.40    2.90
  -1  -3  -6    1.50    2.60
  -1  -3  -6    2.80    2.70
  -1  -3  -6    0.60    2.70
   1   3   6    8.80    3.20
   1   3   6    0.80    2.40
   1   3   6    2.10    3.20
  -2  -3  -6   13.30    3.40
  -2  -3  -6   10.50    3.60
   2   3   6   11.70    4.40
   2   3   6   14.20    3.30
  -3  -3  -6   -3.30    4.40
  -3  -3  -6    2.00    4.60
   3   3   6   -2.40    5.00
   3   3   6   -1.10    3.90
  -4  -3  -6    7.50    6.00
  -4  -3  -6    1.90    5.40
   4   3   6   10.20    6.70
  10  -4  -6    1.50    3.00
  10  -4  -6   -0.30    5.90
 -10   4   6   -1.10    4.50
 -10   4   6    5.60    4.70
 -10   4   6   -3.00    9.00
   9  -4  -6   -2.30    3.80
   9  -4  -6    3.90    4.30
  -9   4   6    0.00    3.70
  -9   4   6   -3.30    3.40
  -9   4   6   -3.90    4.40
   8  -4  -6    1.50    2.10
   8  -4  -6    0.20    1.70
   8  -4  -6    2.50    3.20
  -8   4   6    0.40    2.70
  -8   4   6    2.40    3.60
   7  -4  -6   25.40    3.60
   7  -4  -6   23.50    3.30
  -7   4   6   21.40    2.80
  -7   4   6   17.40    3.70
   6  -4  -6   27.50    3.10
   6  -4  -6   37.90    4.30
  -6   4   6   33.70    4.70
  -6   4   6   26.30    3.00
   5  -4  -6   80.09    4.60
   5  -4  -6   75.49    5.30
   5  -4  -6   70.49    4.80
  -5   4   6   78.19    5.50
  -5   4   6   77.19    3.50
   4  -4  -6   61.49    3.20
   4  -4  -6   60.19    4.50
   4  -4  -6   58.49    5.10
   4  -4  -6   58.39    4.00
  -4   4   6   54.49    5.00
  -4   4   6   58.19    5.60
  -4   4   6   55.49    2.80
   3  -4  -6   16.00    2.40
   3  -4  -6   15.70    1.90
   3  -4  -6   16.10    2.90
  -3   4   6    8.60    3.10
  -3   4   6   12.00    3.90
  -3   4   6   13.00    2.10
   2  -4  -6   39.00    3.30
   2  -4  -6   38.10    4.20
   2  -4  -6   32.70    3.60
  -2   4   6   35.50    4.90
  -2   4   6   34.30    3.60
  -2   4   6   30.80    4.30
   1  -4  -6   32.50    3.90
  -1   4   6   33.70    3.90
  -1   4   6   38.10    4.70
  -1   4   6   35.10    4.30
   0  -4  -6    2.10    2.90
   0   4   6   -5.10    3.00
   0   4   6    0.70    3.10
   0   4   6    2.80    2.40
  -1  -4  -6   14.70    3.40
  -1  -4  -6    9.70    3.70
  -1  -4  -6    1.60    3.30
   1   4   6   14.50    4.20
   1   4   6    7.40    2.80
   1   4   6    1.80    6.80
  -2  -4  -6   -5.80    4.50
  -2  -4  -6   -2.00    4.00
  -2  -4  -6    3.60    4.20
   2   4   6   -3.00    3.70
   2   4   6    1.40    4.80
   2   4   6   -4.20    3.20
  -3  -4  -6    3.90    4.90
  -3  -4  -6   18.80    6.10
  -3  -4  -6    0.10    5.50
   3   4   6    8.00    5.10
 -10   5   6   -1.10    8.40
 -10   5   6   -5.00    5.90
 -10   5   6   -0.10    4.50
   9  -5  -6   12.80    4.30
  -9   5   6   -1.00    3.60
   8  -5  -6    8.00    4.20
   8  -5  -6   18.10    2.90
  -8   5   6   14.50    4.20
  -8   5   6   17.80    3.20
   7  -5  -6   -3.30    2.40
   7  -5  -6   -1.30    2.20
  -7   5   6    5.70    2.90
  -7   5   6   -0.20    2.20
   6  -5  -6  113.99    6.50
   6  -5  -6  114.89    5.70
   6  -5  -6  116.59    6.60
  -6   5   6  117.69    7.10
  -6   5   6  111.99    5.10
   5  -5  -6   43.10    3.90
   5  -5  -6   52.89    4.80
   5  -5  -6   40.30    5.70
   5  -5  -6   40.70    3.90
  -5   5   6   44.20    3.30
  -5   5   6   41.50    5.10
   4  -5  -6    6.70    2.40
   4  -5  -6    4.80    2.00
   4  -5  -6   -0.40    2.70
  -4   5   6    2.30    2.90
   3  -5  -6   25.00    3.00
   3  -5  -6   24.60    3.80
   3  -5  -6   21.00    2.70
  -3   5   6   22.80    3.70
   2  -5  -6   19.20    3.00
   2  -5  -6   21.70    3.20
   2  -5  -6   19.00    2.90
  -2   5   6   14.80    3.60
  -2   5   6   30.00    4.70
   1  -5  -6    5.40    3.00
  -1   5   6    9.80    3.70
  -1   5   6   12.40    3.50
  -1   5   6    9.70    3.60
   0  -5  -6   29.60    4.40
   0   5   6   31.70    4.60
   0   5   6   36.90    3.80
  -1  -5  -6   14.60    4.20
  -1  -5  -6    6.10    3.90
  -1  -5  -6    1.60    4.30
   1   5   6    5.20    3.40
   1   5   6    5.40    4.30
  -2  -5  -6    4.80    6.00
  -2  -5  -6   11.30    5.10
   2   5   6    2.70    4.80
 -10   6   6    4.60    4.60
   9  -6  -6    6.60    3.80
   9  -6  -6    3.50    3.00
  -9   6   6   -3.10    4.10
  -9   6   6    1.90    3.50
   8  -6  -6    2.80    3.20
   8  -6  -6    2.80    3.50
  -8   6   6    7.30    4.20
  -8   6   6    7.10    3.10
   7  -6  -6   17.00    3.60
   7  -6  -6   12.30    3.40
   7  -6  -6   13.30    2.90
  -7   6   6   11.20    4.00
  -7   6   6   17.40    3.00
   6  -6  -6   92.99    5.30
   6  -6  -6  101.19    6.60
   6  -6  -6   91.49    6.80
   6  -6  -6   84.29    5.70
  -6   6   6   94.69    7.20
  -6   6   6   86.99    5.00
   5  -6  -6    5.40    3.40
   5  -6  -6   16.30    3.50
   5  -6  -6   12.50    2.50
   5  -6  -6    7.50    2.80
  -5   6   6    7.00    2.40
  -5   6   6   12.90    4.10
   4  -6  -6   81.69    5.30
   4  -6  -6   77.89    4.70
   4  -6  -6   80.09    6.80
  -4   6   6   77.59    7.00
   3  -6  -6   31.70    3.70
   3  -6  -6   26.80    3.20
  -3   6   6   30.80    2.80
  -3   6   6   33.40    5.10
   2  -6  -6   27.40    4.00
   2  -6  -6   31.70    3.70
   2  -6  -6   39.60    4.40
  -2   6   6   39.40    5.10
  -2   6   6   33.80    3.90
   1  -6  -6    1.40    3.70
  -1   6   6   -8.80    3.30
  -1   6   6    2.40    3.90
   0  -6  -6   -0.80    3.60
   0  -6  -6    3.20    4.30
   0   6   6    0.70    4.30
  -1  -6  -6   13.90    6.20
   1   6   6   17.50    5.40
 -10   7   6   14.20    5.30
   9  -7  -6   -0.20    4.10
  -9   7   6   -1.30    4.40
  -9   7   6    0.70    3.90
   8  -7  -6   13.00    4.20
   8  -7  -6   35.20    4.90
  -8   7   6   25.20    4.10
  -8   7   6   25.10    5.80
   7  -7  -6    8.10    3.90
   7  -7  -6    2.80    2.90
   7  -7  -6    2.00    3.70
  -7   7   6    5.00    3.10
  -7   7   6    3.70    3.90
   6  -7  -6   21.60    3.30
   6  -7  -6   33.40    5.00
   6  -7  -6   26.90    4.50
   6  -7  -6   24.80    4.10
  -6   7   6   17.70    5.00
  -6   7   6   27.80    3.30
   5  -7  -6    7.70    2.90
   5  -7  -6   16.20    4.50
   5  -7  -6   10.80    3.40
  -5   7   6    7.40    2.70
  -5   7   6   10.90    4.90
   4  -7  -6    4.80    3.90
   4  -7  -6   15.80    3.70
   4  -7  -6   17.10    3.30
  -4   7   6   21.10    4.90
   3  -7  -6    9.90    3.60
   3  -7  -6    1.30    3.80
   3  -7  -6    3.80    2.50
  -3   7   6    7.30    2.90
  -3   7   6   10.70    2.60
  -3   7   6    1.10    4.20
   2  -7  -6    7.90    3.40
   2  -7  -6   20.60    8.30
   2  -7  -6   23.00    4.50
  -2   7   6   21.90    3.80
  -2   7   6   24.10    3.40
  -2   7   6   15.30    4.90
   1  -7  -6    4.70    5.30
  -1   7   6   11.10    4.90
  -1   7   6    6.80    3.30
   0  -7  -6    0.20    5.80
   0   7   6    7.30    7.50
   0   7   6    7.80    3.70
   9  -8  -6    2.60    4.90
  -9   8   6    0.30    4.60
   8  -8  -6    3.00    4.80
  -8   8   6   -1.90    5.40
  -8   8   6    8.40    4.10
   7  -8  -6    4.10    3.10
   7  -8  -6    3.60    4.40
   7  -8  -6    5.70    5.10
  -7   8   6    3.10    5.90
  -7   8   6  -11.00    4.10
  -7   8   6   -0.20    3.40
   6  -8  -6    1.20    4.20
   6  -8  -6    0.30    3.00
   6  -8  -6   -5.10    4.80
   6  -8  -6    6.00    5.10
  -6   8   6   -4.40    3.80
  -6   8   6    7.10    5.40
   5  -8  -6    4.20    5.00
   5  -8  -6   -1.80    2.70
   5  -8  -6   -0.20    4.20
  -5   8   6   -2.00    5.40
  -5   8   6    0.00    3.60
   4  -8  -6   14.40    3.30
   4  -8  -6   17.60    5.10
  -4   8   6   23.60    5.70
  -4   8   6   16.30    4.00
   3  -8  -6    3.40    4.60
   3  -8  -6    1.80    3.10
   3  -8  -6    2.80    8.10
  -3   8   6    5.00    5.50
   2  -8  -6    2.50    5.40
   2  -8  -6    0.80    3.30
  -2   8   6    0.30    3.20
  -2   8   6    2.00    5.40
   7  -9  -6    7.40    6.50
   7  -9  -6    1.50    6.00
  -7   9   6   11.70    4.70
  -7   9   6    7.80    7.10
   6  -9  -6   12.00    6.30
   6  -9  -6   16.30    6.50
   6  -9  -6   12.00    3.60
   6  -9  -6   23.40    8.10
  -6   9   6    9.50    7.30
  -6   9   6    9.40    4.50
   5  -9  -6    7.00    5.70
   5  -9  -6   -0.20    3.30
  -5   9   6    7.60    6.50
   4  -9  -6    1.80    3.30
   4  -9  -6    7.30    5.70
  -4   9   6    2.50    6.50
   2 -11   7   -2.00    5.00
   3 -11   7    1.30    5.50
   4 -11   7    2.50    5.90
   1  10  -7    1.60    5.00
   0 -10   7   -7.50    5.80
   0 -10   7   -2.60    6.60
   0 -10   7   -0.10    3.50
  -1  10  -7    7.50    5.00
   1 -10   7   -0.30    4.80
   1 -10   7   -2.60    4.20
   1 -10   7    2.50    6.40
  -2  10  -7    4.10    3.30
  -2  10  -7    9.80    4.70
   2 -10   7   20.10    6.60
   2 -10   7   15.10    4.70
   2 -10   7   11.00    5.00
  -3  10  -7    4.20    3.10
  -3  10  -7   -3.60    4.70
   3 -10   7   -1.00    5.80
   3 -10   7   -7.70    4.20
   3 -10   7    6.30    4.80
  -4  10  -7   -2.00    4.80
  -4  10  -7    6.90    3.20
   4 -10   7    1.60    5.50
   4 -10   7   10.00    5.30
   4 -10   7    0.20    6.10
  -5  10  -7    1.80    3.10
   5 -10   7   -8.60    5.40
   5 -10   7   -1.30    6.10
   5 -10   7   -7.40    6.20
  -6  10  -7    9.30    3.60
   6 -10   7    2.50   10.00
  -2  -9   7    2.50    6.40
  -2  -9   7   17.50    7.10
  -2  -9   7   18.60    4.60
   1   9  -7    4.20    2.80
  -1  -9   7    9.20    3.90
  -1  -9   7    7.10    5.40
  -1  -9   7   15.70    3.30
  -1  -9   7   10.90    6.00
   0   9  -7   -1.40    2.90
   0   9  -7    7.30    4.40
   0  -9   7   -0.30    3.30
   0  -9   7   -1.20    4.70
   0  -9   7   -6.50    4.00
  -1   9  -7    4.40    2.90
  -1   9  -7    5.80    4.00
   1  -9   7    6.40    4.10
   1  -9   7    0.40    3.80
   1  -9   7    2.50    5.10
  -2   9  -7    2.50    2.70
  -2   9  -7   -3.50    3.70
   2  -9   7    1.30    3.80
   2  -9   7    4.30    4.60
   2  -9   7   -3.20    3.60
  -3   9  -7    0.90    3.80
  -3   9  -7    1.40    2.60
   3  -9   7   -2.70    4.60
   3  -9   7   -4.60    4.10
   3  -9   7   -1.00    3.50
  -4   9  -7    1.30    2.90
  -4   9  -7    5.90    4.40
   4  -9   7    2.80    4.50
   4  -9   7    1.00    4.70
   4  -9   7    6.40    4.70
  -5   9  -7    5.30    2.90
  -5   9  -7   -5.90    4.30
   5  -9   7    3.80    5.40
   5  -9   7    2.20    5.50
   5  -9   7   -1.10    5.30
  -6   9  -7    7.80    7.50
   6  -9   7  -10.50    5.80
   6  -9   7   -3.30    6.70
   3   8  -7   63.09    5.30
  -3  -8   7   57.99    5.70
  -3  -8   7   70.29    8.20
  -3  -8   7   64.59    7.70
  -3  -8   7   63.69    8.10
  -3  -8   7   63.79    5.10
   2   8  -7   28.60    3.90
  -2  -8   7   25.80    3.40
  -2  -8   7   26.80    5.90
  -2  -8   7   34.00    6.20
  -2  -8   7   31.40    4.30
  -2  -8   7   31.30    4.00
   1   8  -7    2.90    2.90
   1   8  -7    3.50    2.40
   1   8  -7    0.30    3.70
  -1  -8   7    4.90    2.30
  -1  -8   7    2.70    4.20
  -1  -8   7    0.00    4.20
  -1  -8   7    1.00    2.70
   0   8  -7   -2.70    2.60
   0  -8   7    5.60    3.90
   0  -8   7    6.40    3.30
   0  -8   7    9.00    3.90
  -1   8  -7    4.60    2.50
   1  -8   7   -6.60    2.90
   1  -8   7   -5.70    3.90
   1  -8   7    3.60    3.10
  -2   8  -7    1.00    2.50
   2  -8   7    5.30    3.50
   2  -8   7    5.50    4.10
   2  -8   7    5.70    3.40
  -3   8  -7    3.40    2.70
   3  -8   7    2.90    3.70
   3  -8   7    2.80    4.00
   3  -8   7    5.20    3.40
  -4   8  -7   11.60    2.80
   4  -8   7   12.80    4.40
   4  -8   7   11.30    4.30
   4  -8   7    7.70    4.40
  -5   8  -7   38.50    5.20
   5  -8   7   22.00    5.80
   5  -8   7   27.40    5.40
   5  -8   7   20.70    5.50
  -6   8  -7   11.50    4.90
   6  -8   7   -0.60    4.40
   6  -8   7    1.80    6.30
   7  -8   7    3.60    7.80
   5   7  -7   -4.60    4.40
  -5  -7   7    5.80    6.90
  -5  -7   7   12.80    6.70
  -5  -7   7    3.70    7.50
   4   7  -7   10.00    3.20
  -4  -7   7    4.00    5.40
  -4  -7   7    3.20    2.20
  -4  -7   7    1.50    4.60
  -4  -7   7   -1.10    2.40
  -4  -7   7    1.10    5.30
   3   7  -7    4.70    2.30
  -3  -7   7    5.30    3.70
  -3  -7   7   15.40    3.10
  -3  -7   7   12.70    5.20
  -3  -7   7   11.20    5.00
   2   7  -7   24.40    3.10
   2   7  -7   30.10    3.60
  -2  -7   7   24.90    4.10
  -2  -7   7   22.20    4.70
  -2  -7   7   20.20    3.50
  -2  -7   7   21.20    5.20
   1   7  -7    7.30    2.20
   1   7  -7   10.40    3.20
   1   7  -7   10.00    2.80
  -1  -7   7   10.20    2.20
  -1  -7   7    8.10    4.00
  -1  -7   7   12.40    4.10
   0   7  -7   37.20    4.30
   0   7  -7   34.00    4.00
   0  -7   7   31.70    4.40
   0  -7   7   27.10    4.30
  -1   7  -7   -1.50    2.50
  -1   7  -7   -0.10    2.10
   1  -7   7   -0.70    3.30
   1  -7   7   -3.10    2.50
  -2   7  -7   13.10    3.30
  -2   7  -7   16.20    2.70
   2  -7   7   15.00    3.50
   2  -7   7   16.90    3.80
   2  -7   7   12.30    3.30
  -3   7  -7    8.20    2.40
  -3   7  -7   10.30    3.20
   3  -7   7    2.70    3.00
   3  -7   7   11.00    3.40
   3  -7   7    6.20    3.70
  -4   7  -7    6.30    3.80
   4  -7   7    0.10    3.70
   4  -7   7   -0.70    3.80
   4  -7   7    3.70    3.40
  -5   7  -7    7.80    3.70
   5  -7   7    9.90    4.70
   5  -7   7    4.90    3.60
   5  -7   7   -4.40    4.50
  -6   7  -7   19.00    5.00
  -6   7  -7    4.40    3.00
   6  -7   7    1.00    3.80
   6  -7   7    2.00    5.70
  -7   7  -7   47.70    5.20
   7  -7   7   40.30    7.90
   6   6  -7   -3.80    4.20
  -6  -6   7   -6.70    6.40
  -6  -6   7    2.80    6.70
  -6  -6   7    4.40    6.40
   5   6  -7   37.30    4.20
  -5  -6   7   31.80    6.10
  -5  -6   7   32.20    6.20
  -5  -6   7   37.00    5.90
  -5  -6   7   30.90    3.60
   4   6  -7   27.40    3.50
  -4  -6   7   31.40    3.60
  -4  -6   7   36.00    8.20
  -4  -6   7   28.80    5.30
  -4  -6   7   33.90    4.60
   3   6  -7   -2.10    1.90
   3   6  -7    0.50    2.50
  -3  -6   7   -0.60    2.80
  -3  -6   7   -2.60    3.80
  -3  -6   7    0.90    2.90
  -3  -6   7   -1.20    3.70
   2   6  -7  123.19    6.00
   2   6  -7  117.19    5.90
  -2  -6   7  120.99    6.70
  -2  -6   7  110.49    7.70
  -2  -6   7  126.79    7.50
  -2  -6   7  121.49    5.50
   1   6  -7   35.20    3.40
   1   6  -7   40.30    4.60
  -1  -6   7   38.80    4.40
  -1  -6   7   27.30    2.60
  -1  -6   7   27.60    4.50
   0   6  -7    8.40    2.30
   0   6  -7    9.60    3.00
   0  -6   7   11.00    3.30
   0  -6   7   12.20    3.30
  -1   6  -7    2.40    2.00
  -1   6  -7    3.10    2.40
   1  -6   7    2.90    3.00
   1  -6   7    2.30    2.50
  -2   6  -7   25.60    3.00
  -2   6  -7   20.60    3.10
   2  -6   7   25.20    3.80
   2  -6   7   21.20    3.80
  -3   6  -7   27.10    3.40
   3  -6   7   15.80    3.20
   3  -6   7   22.80    4.30
   3  -6   7   13.50    3.70
  -4   6  -7    2.00    2.80
   4  -6   7    1.80    3.60
   4  -6   7    3.70    2.50
   4  -6   7   -3.20    3.40
  -5   6  -7    1.70    2.40
   5  -6   7    1.20    4.60
   5  -6   7    0.50    3.00
  -6   6  -7   11.60    4.70
  -6   6  -7   12.80    3.80
   6  -6   7    9.50    5.50
   6  -6   7   14.50    3.90
  -7   6  -7    7.10    5.40
   7  -6   7    9.80    6.90
   6   5  -7    0.60    2.60
  -6  -5   7    3.20    5.80
  -6  -5   7   -2.40    5.10
  -6  -5   7   -6.90    3.10
  -6  -5   7    2.70    5.10
   5   5  -7    0.20    2.50
  -5  -5   7    0.50    3.90
  -5  -5   7    2.40    4.10
  -5  -5   7   -2.60    4.60
  -5  -5   7    0.00    3.10
   4   5  -7   14.80    2.90
  -4  -5   7   15.20    4.00
  -4  -5   7   16.90    3.30
  -4  -5   7   17.70    3.60
   3   5  -7    0.90    2.10
   3   5  -7    6.60    2.00
  -3  -5   7    8.40    6.40
  -3  -5   7    3.80    2.60
  -3  -5   7    4.90    2.80
  -3  -5   7    4.90    3.00
   2   5  -7   29.10    3.00
   2   5  -7   31.80    3.50
  -2  -5   7   32.60    3.80
  -2  -5   7   31.80    3.80
  -2  -5   7   29.40    3.40
  -2  -5   7   39.90    7.90
   1   5  -7   26.40    3.00
   1   5  -7   27.00    3.00
  -1  -5   7   25.00    3.40
  -1  -5   7   27.50    2.30
  -1  -5   7   16.70    6.00
   0   5  -7   46.40    3.70
   0   5  -7   36.30    3.80
   0  -5   7   37.90    4.50
   0  -5   7   39.60    4.40
  -1   5  -7   24.40    2.80
  -1   5  -7   21.70    2.90
   1  -5   7   18.00    3.10
   1  -5   7   26.70    3.40
  -2   5  -7   -1.40    2.10
   2  -5   7    0.30    2.50
   2  -5   7    1.90    2.30
  -3   5  -7   51.29    6.70
   3  -5   7   80.29    6.20
   3  -5   7   76.69    6.10
  -4   5  -7   28.50    2.90
  -4   5  -7   28.20    3.70
   4  -5   7   34.90    4.90
   4  -5   7   28.40    3.30
  -5   5  -7   24.30    3.50
  -5   5  -7   20.20    4.70
   5  -5   7   27.50    5.50
   5  -5   7   25.20    3.20
  -6   5  -7   31.20    4.50
  -6   5  -7   29.10    5.30
   6  -5   7   34.30    4.80
   6  -5   7   33.10    4.90
   6  -5   7   31.60    6.20
  -7   5  -7   17.80    5.90
  -7   5  -7    6.80    5.60
   7  -5   7    5.30    7.50
   7   4  -7   -0.40    2.60
  -7  -4   7   -2.80    5.40
  -7  -4   7    3.40    5.60
  -7  -4   7    7.90    5.10
  -7  -4   7    3.90    4.00
   6   4  -7    3.90    2.60
  -6  -4   7    3.30    3.60
  -6  -4   7    0.70    4.20
  -6  -4   7    2.90    4.10
  -6  -4   7    8.10    4.50
   5   4  -7   17.00    3.10
  -5  -4   7   11.10    3.50
  -5  -4   7   16.00    3.50
  -5  -4   7   11.20    4.00
  -5  -4   7   18.20    4.10
   4   4  -7  103.99    5.50
   4   4  -7  107.89    5.60
  -4  -4   7  102.79    6.00
  -4  -4   7  104.39    6.10
  -4  -4   7  107.59    6.50
  -4  -4   7   98.99    6.70
   3   4  -7   20.00    2.70
   3   4  -7   19.70    2.80
  -3  -4   7   14.20    3.10
  -3  -4   7   19.30    2.80
  -3  -4   7   19.10    3.00
  -3  -4   7   17.20    3.60
   2   4  -7   14.90    2.50
   2   4  -7   12.10    2.30
  -2  -4   7   13.80    3.10
  -2  -4   7   18.60    2.90
  -2  -4   7   15.30    2.30
   1   4  -7   88.89    4.50
   1   4  -7   87.29    4.40
  -1  -4   7   88.89    5.80
  -1  -4   7   87.59    4.90
  -1  -4   7   87.89    3.60
   0   4  -7    1.30    1.70
   0   4  -7    6.50    1.90
   0  -4   7    2.10    1.00
   0  -4   7    4.10    0.90
   0  -4   7    3.00    2.40
   0  -4   7   -1.50    1.80
  -1   4  -7    0.30    1.70
  -1   4  -7    0.30    1.60
  -1   4  -7   -0.30    1.50
   1  -4   7    0.80    0.90
   1  -4   7    1.40    2.20
  -2   4  -7   11.20    2.20
  -2   4  -7    8.40    2.10
   2  -4   7    7.80    2.80
   2  -4   7    4.20    2.60
   2  -4   7    5.10    1.40
  -3   4  -7   -5.50    2.20
  -3   4  -7    1.30    2.30
  -3   4  -7    0.40    1.90
   3  -4   7   -3.30    1.60
   3  -4   7   -3.20    2.40
  -4   4  -7   -2.40    2.70
  -4   4  -7    2.20    2.60
  -4   4  -7    4.60    2.60
   4  -4   7   -0.10    3.30
   4  -4   7    5.40    2.10
  -5   4  -7    3.60    4.00
  -5   4  -7    4.90    3.50
  -5   4  -7    5.50    3.50
   5  -4   7    1.90    2.80
   5  -4   7    6.30    3.20
   5  -4   7    8.70    4.60
  -6   4  -7   -1.60    4.80
  -6   4  -7    2.90    4.60
  -6   4  -7   -0.80    4.20
   6  -4   7   -3.20    4.20
   6  -4   7    6.40    4.30
   6  -4   7    1.90    5.70
  -7   4  -7   -4.80    6.20
  -7   4  -7   12.00    5.60
  -7   4  -7    9.60    6.10
   7  -4   7    9.30    5.20
   7  -4   7   13.00    7.50
   8   3  -7    6.10    3.40
  -8  -3   7    7.50    5.70
  -8  -3   7   13.90    6.90
  -8  -3   7    7.70    6.20
   7   3  -7   -1.20    2.40
  -7  -3   7    0.40    5.10
  -7  -3   7   -1.10    3.70
  -7  -3   7    2.10    4.70
  -7  -3   7   -0.20    3.90
   6   3  -7  132.09    6.70
  -6  -3   7  137.79    8.10
  -6  -3   7  130.89    7.30
  -6  -3   7  141.49    7.70
  -6  -3   7  137.49    8.50
   5   3  -7    6.00    2.00
   5   3  -7    7.60    2.30
  -5  -3   7    9.60    3.30
  -5  -3   7    8.90    3.30
  -5  -3   7    9.80    3.00
  -5  -3   7    8.10    3.20
   4   3  -7    9.50    2.20
   4   3  -7    5.80    2.00
  -4  -3   7    7.10    2.50
  -4  -3   7    6.00    2.90
  -4  -3   7    5.40    2.70
  -4  -3   7    6.40    2.70
   3   3  -7   21.80    2.50
   3   3  -7   25.20    3.00
  -3  -3   7   27.90    3.40
  -3  -3   7   29.50    3.60
  -3  -3   7   29.20    3.70
  -3  -3   7   26.80    3.70
   2   3  -7   -0.20    1.40
  -2  -3   7   -0.60    1.60
  -2  -3   7   -1.90    1.70
  -2  -3   7    1.40    2.30
  -2  -3   7    0.70    2.30
   1   3  -7   11.00    1.80
   1   3  -7    7.80    1.90
   1   3  -7    7.50    2.10
  -1  -3   7   10.10    1.90
  -1  -3   7   10.00    2.40
   0   3  -7    2.60    1.70
   0   3  -7    7.30    1.70
   0   3  -7    3.10    1.70
   0  -3   7    5.40    1.40
   0  -3   7    6.40    2.70
   0  -3   7    7.40    2.00
  -1   3  -7   59.89    4.10
  -1   3  -7   62.39    3.80
   1  -3   7   62.29    4.90
   1  -3   7   67.09    4.20
   1  -3   7   66.29    3.30
  -2   3  -7   28.40    3.60
  -2   3  -7   32.80    3.50
   2  -3   7   31.10    3.00
   2  -3   7   38.00    4.30
  -3   3  -7    7.40    2.40
  -3   3  -7    3.00    2.40
  -3   3  -7    7.50    2.60
   3  -3   7    8.10    2.30
   3  -3   7   12.00    3.50
  -4   3  -7   18.70    4.10
  -4   3  -7   17.50    3.40
  -4   3  -7   16.70    3.50
   4  -3   7   20.60    3.20
   4  -3   7   22.00    4.60
  -5   3  -7    9.50    3.90
  -5   3  -7    0.30    4.00
  -5   3  -7    4.30    4.10
   5  -3   7    4.40    4.80
   5  -3   7    6.20    3.60
   5  -3   7    6.20    4.10
  -6   3  -7    6.10    5.50
  -6   3  -7    6.60    4.90
  -6   3  -7   11.90    5.10
   6  -3   7   11.80    5.20
   6  -3   7    9.40    4.30
   6  -3   7   17.60    6.60
  -7   3  -7    8.30    6.90
  -7   3  -7   17.20    7.30
   7  -3   7    4.90    5.90
   7  -3   7    5.90    8.10
   8   2  -7   20.70    3.80
  -8  -2   7   13.40    5.40
  -8  -2   7   11.40    5.80
  -8  -2   7   18.40    5.30
   7   2  -7   21.40    3.30
  -7  -2   7   22.80    3.30
  -7  -2   7   16.60    7.70
  -7  -2   7   22.40    5.30
  -7  -2   7   21.70    4.60
   6   2  -7   41.60    4.30
  -6  -2   7   42.40    5.40
  -6  -2   7   42.80    5.70
  -6  -2   7   35.80    4.00
  -6  -2   7   39.50    4.80
   5   2  -7   19.50    2.50
   5   2  -7   18.00    2.80
  -5  -2   7   16.70    3.20
  -5  -2   7   19.90    3.40
  -5  -2   7   12.50    2.80
  -5  -2   7   13.90    3.40
   4   2  -7   26.80    2.90
   4   2  -7   33.10    3.30
  -4  -2   7   24.60    2.70
  -4  -2   7   31.10    4.20
  -4  -2   7   23.70    3.10
  -4  -2   7   33.90    4.60
   3   2  -7   47.20    3.20
  -3  -2   7   52.49    3.40
  -3  -2   7   46.50    4.60
  -3  -2   7   52.19    4.60
   2   2  -7   32.60    3.80
   2   2  -7   40.30    2.80
  -2  -2   7   39.90    4.40
  -2  -2   7   38.80    2.70
  -2  -2   7   34.30    4.20
   1   2  -7   42.90    2.50
   1   2  -7   41.00    3.60
   1   2  -7   40.90    2.90
  -1  -2   7   36.70    2.90
  -1  -2   7   40.50    2.70
  -1  -2   7   37.80    4.10
   0   2  -7   -0.90    1.20
   0   2  -7    1.40    1.60
   0   2  -7    0.50    1.20
   0  -2   7    0.50    1.30
   0  -2   7    1.50    2.10
  -1   2  -7    4.10    1.70
  -1   2  -7    5.10    1.70
   1  -2   7    4.30    2.50
   1  -2   7    1.40    1.70
  -2   2  -7    3.70    2.30
  -2   2  -7    4.20    2.00
  -2   2  -7    4.20    2.00
   2  -2   7    3.80    2.00
   2  -2   7    2.70    2.50
  -3   2  -7   -3.00    2.30
  -3   2  -7    1.90    3.10
  -3   2  -7   -1.60    2.10
   3  -2   7    3.10    3.00
   3  -2   7    3.90    2.40
  -4   2  -7    2.60    3.50
  -4   2  -7   -1.80    2.90
  -4   2  -7   -4.40    3.00
   4  -2   7   -0.30    3.80
   4  -2   7    1.50    2.80
  -5   2  -7    0.10    4.30
  -5   2  -7    1.80    4.50
   5  -2   7   -4.70    4.00
   5  -2   7    1.80    3.70
   5  -2   7    3.10    5.50
  -6   2  -7   -0.60    5.80
  -6   2  -7    2.80    5.50
  -6   2  -7    7.10    5.10
   6  -2   7    2.70    6.60
   6  -2   7    2.90    5.60
   6  -2   7    6.90    5.10
   9   1  -7    3.80    3.30
  -9  -1   7    1.70    6.50
  -9  -1   7    2.00    5.70
   8   1  -7   55.39    5.10
  -8  -1   7   48.40    6.50
  -8  -1   7   58.79    8.10
   7   1  -7    7.90    3.00
  -7  -1   7    1.90    3.50
  -7  -1   7    7.90    3.90
  -7  -1   7    2.70    3.80
  -7  -1   7    7.30    3.00
   6   1  -7    8.50    2.70
   6   1  -7   13.50    2.30
  -6  -1   7   10.00    2.60
  -6  -1   7    8.60    2.70
  -6  -1   7    9.40    3.30
  -6  -1   7    9.90    6.30
   5   1  -7    2.50    2.00
   5   1  -7    8.20    2.10
  -5  -1   7    1.40    2.70
  -5  -1   7    7.30    2.90
  -5  -1   7    2.70    2.40
  -5  -1   7    4.90    2.10
   4   1  -7   -0.30    1.50
   4   1  -7    0.30    1.80
   4   1  -7   -2.50    1.80
  -4  -1   7    1.40    1.50
  -4  -1   7    0.50    2.40
  -4  -1   7    1.10    2.40
   3   1  -7   24.80    3.50
  -3  -1   7   19.70    3.00
  -3  -1   7   19.40    3.10
  -3  -1   7   17.00    2.10
   2   1  -7    5.40    1.40
   2   1  -7    4.00    1.90
  -2  -1   7    7.40    2.70
  -2  -1   7    5.50    1.00
  -2  -1   7    3.20    2.30
   1   1  -7   24.20    1.70
   1   1  -7   26.90    3.20
   1   1  -7   25.10    2.60
  -1  -1   7   28.00    3.50
  -1  -1   7   24.30    2.50
   0   1  -7    0.00    2.60
   0   1  -7    0.50    1.10
   0  -1   7    2.80    1.70
   0  -1   7    2.40    2.20
  -1   1  -7    1.60    1.70
  -1   1  -7    4.90    1.70
   1  -1   7    2.20    1.90
   1  -1   7    5.50    3.00
  -2   1  -7   13.40    2.50
  -2   1  -7   22.40    3.40
  -2   1  -7   18.50    2.90
   2  -1   7   16.20    3.10
   2  -1   7   16.60    2.70
  -3   1  -7    1.80    3.40
  -3   1  -7    0.50    2.40
  -3   1  -7   -0.80    2.60
   3  -1   7    3.60    2.50
   3  -1   7    3.90    3.40
  -4   1  -7    8.70    3.40
  -4   1  -7    9.50    3.90
  -4   1  -7    7.90    4.00
   4  -1   7    8.40    4.60
   4  -1   7    9.70    3.60
  -5   1  -7   -2.80    4.80
  -5   1  -7   -1.00    4.60
   5  -1   7    3.90    4.40
   5  -1   7   -2.30    4.70
   5  -1   7    4.00    5.80
  -6   1  -7    3.90    6.50
  -6   1  -7   -9.80    6.20
  -6   1  -7   -9.70    5.60
   6  -1   7    1.60    5.40
   6  -1   7   -4.10    6.60
   6  -1   7    4.70    6.00
   9   0  -7    9.90    3.30
   9   0  -7   10.90    5.20
  -9   0   7   -2.20    5.60
  -9   0   7    8.40    7.80
   8   0  -7   -0.80    2.60
   8   0  -7    3.70    4.50
  -8   0   7    0.60    4.50
  -8   0   7   -3.50    4.20
   7   0  -7   -1.50    2.50
   7   0  -7   -1.10    3.50
  -7   0   7   -0.20    2.40
  -7   0   7    2.60    3.70
  -7   0   7   -2.30    3.60
   6   0  -7    0.60    2.30
   6   0  -7    1.80    1.80
  -6   0   7    1.70    2.30
  -6   0   7    1.40    3.10
  -6   0   7   -1.10    2.90
   5   0  -7   12.50    2.10
   5   0  -7   14.00    2.40
   5   0  -7   15.80    2.60
  -5   0   7   17.30    2.80
  -5   0   7   13.00    3.30
  -5   0   7   14.90    2.10
   4   0  -7    0.50    1.60
   4   0  -7    0.20    1.80
  -4   0   7    0.60    2.20
  -4   0   7    0.30    1.10
  -4   0   7   -0.60    2.30
   3   0  -7    3.90    1.40
   3   0  -7    4.70    2.20
  -3   0   7    4.80    2.30
  -3   0   7    8.40    2.70
   2   0  -7   51.79    3.20
   2   0  -7   51.39    4.10
  -2   0   7   58.69    4.50
  -2   0   7   52.69    4.60
   1   0  -7   63.79    3.50
   1   0  -7   65.29    4.20
  -1   0   7   64.39    4.90
  -1   0   7   61.59    4.10
   0   0  -7   26.00    2.20
   0   0  -7   26.20    3.10
   0   0   7   20.30    3.40
   0   0   7   26.50    3.30
  -1   0  -7   10.90    2.10
  -1   0  -7   14.10    2.50
   1   0   7   12.90    2.70
   1   0   7    9.80    2.60
  -2   0  -7   13.20    2.70
  -2   0  -7   11.50    3.50
  -2   0  -7   13.70    2.60
   2   0   7   10.60    3.10
   2   0   7    6.90    2.70
  -3   0  -7   12.50    4.30
  -3   0  -7   16.40    3.50
   3   0   7   11.30    3.60
   3   0   7    7.90    4.00
  -4   0  -7    3.70    4.60
  -4   0  -7    9.10    4.50
  -4   0  -7    0.60    3.90
   4   0   7    7.10    5.10
   4   0   7   -6.90    3.80
  -5   0  -7    3.90    5.70
  -5   0  -7   -2.30    6.00
  -5   0  -7   -5.10    4.90
   5   0   7   -8.80    6.60
   5   0   7    8.20    5.20
   5   0   7    2.00    5.10
   9  -1  -7    4.90    5.10
   9  -1  -7   -0.50    2.80
  -9   1   7   -1.00    4.60
  -9   1   7   -1.90    5.30
  -9   1   7    6.90    4.50
   8  -1  -7    4.60    2.70
  -8   1   7    2.90    4.10
  -8   1   7    9.80    3.30
  -8   1   7    5.40    4.20
   7  -1  -7    4.70    1.70
   7  -1  -7    6.40    3.50
   7  -1  -7    1.40    2.30
  -7   1   7    4.20    2.10
  -7   1   7    3.90    3.80
  -7   1   7    2.30    3.80
  -7   1   7    2.10    2.50
   6  -1  -7   -1.90    1.90
   6  -1  -7    3.00    2.70
   6  -1  -7   -4.50    1.70
   6  -1  -7    0.80    1.80
  -6   1   7    0.50    2.30
  -6   1   7   -3.00    2.80
  -6   1   7   -1.00    1.70
   5  -1  -7    6.60    1.80
   5  -1  -7    9.10    2.30
  -5   1   7    7.60    1.50
  -5   1   7    7.60    1.40
  -5   1   7   12.20    2.90
  -5   1   7    9.30    2.70
   4  -1  -7    8.20    1.70
   4  -1  -7   11.70    2.50
  -4   1   7   12.60    3.20
  -4   1   7   10.80    2.80
   3  -1  -7   13.80    2.70
   3  -1  -7   12.50    1.80
  -3   1   7   10.90    2.40
  -3   1   7   11.60    3.00
   2  -1  -7    1.60    1.30
   2  -1  -7    0.00    1.80
  -2   1   7    2.20    2.20
  -2   1   7    0.50    2.10
  -2   1   7    0.40    1.90
   1  -1  -7   95.49    5.20
  -1   1   7   88.39    5.20
  -1   1   7   91.49    5.80
  -1   1   7  102.69    6.00
   0  -1  -7    2.90    1.50
   0  -1  -7    1.80    1.80
   0   1   7    0.10    2.50
   0   1   7    0.60    2.10
  -1  -1  -7    3.70    2.30
  -1  -1  -7    5.50    2.00
   1   1   7    4.10    2.80
   1   1   7    0.00    2.50
  -2  -1  -7   53.99    5.10
  -2  -1  -7   53.39    6.40
   2   1   7   43.50    4.50
   2   1   7   48.70    5.90
  -3  -1  -7   11.80    4.00
  -3  -1  -7    3.70    4.50
   3   1   7   13.40    4.20
   3   1   7   14.60    4.80
  -4  -1  -7    8.20    5.60
  -4  -1  -7    7.80    5.40
   4   1   7    1.60    5.60
   4   1   7   14.80    4.90
  -5  -1  -7   -1.70    5.90
  -5  -1  -7    6.40    6.80
   5   1   7   -2.10    6.20
   5   1   7    6.20    8.00
  10  -2  -7   12.90    5.80
  10  -2  -7    2.00    3.20
 -10   2   7   12.10    5.70
 -10   2   7   -3.70    6.40
   9  -2  -7   14.00    5.10
   9  -2  -7    6.50    3.00
  -9   2   7    2.40    5.60
  -9   2   7    4.60    4.90
  -9   2   7    9.10    4.30
   8  -2  -7    0.70    3.40
   8  -2  -7    5.40    2.80
  -8   2   7    4.10    3.00
  -8   2   7    1.10    4.10
  -8   2   7    2.80    4.50
   7  -2  -7    6.20    2.30
   7  -2  -7    6.50    2.00
   7  -2  -7    5.70    2.00
  -7   2   7   12.60    3.80
  -7   2   7    3.30    2.30
  -7   2   7    9.50    2.60
   6  -2  -7    9.00    2.60
   6  -2  -7    7.60    2.40
   6  -2  -7    5.80    1.90
  -6   2   7    7.60    3.30
  -6   2   7    8.50    1.70
  -6   2   7    7.70    2.60
   5  -2  -7   15.60    2.20
   5  -2  -7   13.10    2.70
  -5   2   7    8.90    2.60
  -5   2   7   17.00    3.20
   4  -2  -7  112.09    5.10
   4  -2  -7  114.89    6.00
  -4   2   7  121.19    6.40
  -4   2   7  118.89    6.30
   3  -2  -7    8.20    2.50
   3  -2  -7    6.30    1.80
  -3   2   7    7.20    2.70
  -3   2   7    8.20    2.70
   2  -2  -7  131.19    6.40
   2  -2  -7  126.49    5.40
  -2   2   7  110.09    9.90
  -2   2   7  110.49    8.50
  -2   2   7  133.49    6.90
   1  -2  -7   80.69    5.10
   1  -2  -7   89.59    3.50
  -1   2   7   85.09    5.20
  -1   2   7   89.59    5.90
  -1   2   7   73.99    6.20
   0  -2  -7    4.70    2.10
   0   2   7    7.00    2.80
   0   2   7    0.10    2.90
   0   2   7    4.70    2.50
   1   2   7   20.20    4.20
   1   2   7    9.30    3.10
  -2  -2  -7    4.60    3.10
  -2  -2  -7    4.10    4.10
   2   2   7   -3.80    3.40
   2   2   7   -4.30    3.20
  -3  -2  -7    4.30    4.90
  -3  -2  -7   10.30    4.70
   3   2   7    5.40    5.40
   3   2   7    0.80    4.30
  -4  -2  -7    3.60    6.90
   4   2   7  -10.60    7.00
  10  -3  -7   -6.80    3.60
 -10   3   7    2.90    7.00
 -10   3   7   -3.30    4.90
   9  -3  -7    1.30    2.90
   9  -3  -7   -6.10    4.70
  -9   3   7    6.70    5.30
  -9   3   7    8.30    4.40
  -9   3   7    3.50    3.80
   8  -3  -7    4.20    3.70
   8  -3  -7   -2.50    2.40
  -8   3   7    0.20    2.70
  -8   3   7    8.30    4.30
   7  -3  -7   -1.70    2.30
   7  -3  -7    1.20    2.10
  -7   3   7    0.80    3.60
  -7   3   7   -2.50    1.80
   6  -3  -7    5.00    2.10
   6  -3  -7    4.40    2.30
  -6   3   7    2.40    1.40
  -6   3   7    2.20    2.80
  -6   3   7    1.50    2.70
   5  -3  -7   11.40    2.30
   5  -3  -7   13.80    3.00
  -5   3   7   12.70    3.60
  -5   3   7   11.30    3.10
   4  -3  -7    2.50    2.10
   4  -3  -7    6.10    2.50
  -4   3   7    3.70    2.90
  -4   3   7    2.50    2.20
   3  -3  -7  163.98    6.60
   3  -3  -7  177.98    7.80
  -3   3   7  168.58    7.90
  -3   3   7  169.08    7.40
  -3   3   7  168.38    9.00
   2  -3  -7    3.10    1.20
   2  -3  -7    2.90    2.50
   2  -3  -7    3.80    1.90
  -2   3   7    1.20    2.80
  -2   3   7    1.40    2.70
  -2   3   7    1.80    2.10
   1  -3  -7   10.30    2.50
   1  -3  -7   11.90    2.10
  -1   3   7   18.80    3.80
  -1   3   7    8.80    2.70
  -1   3   7   12.70    3.60
   0  -3  -7   42.80    4.60
   0   3   7   42.00    4.90
   0   3   7   43.60    5.80
   0   3   7   45.80    5.40
  -1  -3  -7    7.20    3.50
  -1  -3  -7    9.10    3.20
   1   3   7    4.20    4.10
   1   3   7    9.30    3.80
   1   3   7    5.90    3.30
  -2  -3  -7   -7.50    4.10
  -2  -3  -7   -4.90    3.60
  -2  -3  -7   -2.60    4.00
   2   3   7   -2.50    4.50
   2   3   7   -3.20    3.90
   2   3   7   -0.30    4.40
  -3  -3  -7    5.50    8.90
   3   3   7   -7.40    6.50
 -10   4   7    2.20    4.60
 -10   4   7   -2.30    6.90
   9  -4  -7   17.10    5.00
  -9   4   7   13.50    5.70
   8  -4  -7    3.00    2.70
   8  -4  -7    6.10    3.60
   8  -4  -7    1.00    2.30
  -8   4   7    5.30    2.60
  -8   4   7   -0.60    3.70
   7  -4  -7    2.10    2.60
   7  -4  -7   -3.30    2.30
  -7   4   7    2.40    2.00
  -7   4   7   -3.70    2.90
   6  -4  -7  102.59    6.00
   6  -4  -7   93.19    5.50
  -6   4   7   89.59    6.50
  -6   4   7   92.59    3.90
   5  -4  -7   46.70    5.90
   5  -4  -7   50.19    4.30
  -5   4   7   51.69    5.20
  -5   4   7   56.09    6.20
   4  -4  -7  185.08    7.10
   4  -4  -7  168.18    8.30
  -4   4   7  185.78    8.30
  -4   4   7  155.58    8.90
  -4   4   7  183.58    7.60
   3  -4  -7  107.59    5.50
   3  -4  -7   97.39    6.80
   3  -4  -7  106.69    3.90
  -3   4   7   96.29    7.30
  -3   4   7  107.59    5.90
  -3   4   7  113.19    7.10
   2  -4  -7    3.50    3.10
   2  -4  -7   10.00    2.10
   2  -4  -7    6.10    2.40
  -2   4   7    9.70    2.60
  -2   4   7    8.20    3.50
  -2   4   7    6.20    3.60
   1  -4  -7    0.10    2.50
  -1   4   7    0.90    2.70
  -1   4   7    1.60    3.30
  -1   4   7    1.40    3.40
   0  -4  -7    2.30    3.20
   0   4   7    0.80    3.70
   0   4   7   -2.90    3.80
   0   4   7   -2.90    3.00
  -1  -4  -7    5.30    5.90
  -1  -4  -7    0.70    3.60
   1   4   7   -2.60    3.50
   1   4   7   -4.10    4.00
   1   4   7    5.10    4.40
  -2  -4  -7    7.90    5.70
  -2  -4  -7   10.30    5.20
   2   4   7    1.20    5.20
   2   4   7    8.70    6.20
 -10   5   7    8.50    4.70
   9  -5  -7   -2.80    2.60
   9  -5  -7    9.40    7.10
  -9   5   7   -5.30    4.80
   8  -5  -7    9.70    3.70
   8  -5  -7   -0.20    3.00
   8  -5  -7    0.80    2.70
  -8   5   7   -0.30    2.60
  -8   5   7    1.10    3.70
   7  -5  -7   11.50    3.40
   7  -5  -7   -3.10    3.70
   7  -5  -7    2.80    2.90
  -7   5   7    2.30    2.30
  -7   5   7   11.70    4.00
   6  -5  -7   10.50    3.60
   6  -5  -7   17.30    3.10
  -6   5   7   19.40    4.10
  -6   5   7   14.00    2.20
   5  -5  -7    5.20    3.30
   5  -5  -7    9.50    2.60
  -5   5   7    8.70    3.50
   4  -5  -7    2.80    2.50
   4  -5  -7    6.80    3.70
   4  -5  -7    2.10    1.90
  -4   5   7    0.60    3.50
  -4   5   7   -2.30    2.30
   3  -5  -7   14.10    2.90
   3  -5  -7   16.00    2.50
  -3   5   7   13.80    4.40
  -3   5   7   13.50    4.00
  -3   5   7    7.00    2.80
   2  -5  -7    8.00    3.60
   2  -5  -7   19.50    3.00
   2  -5  -7   20.20    3.30
  -2   5   7   25.90    4.70
  -2   5   7   17.10    3.10
  -2   5   7   21.10    4.70
   1  -5  -7    7.90    3.40
   1  -5  -7    1.50    3.20
  -1   5   7    9.40    3.20
  -1   5   7   14.10    4.30
  -1   5   7    3.10    4.30
   0  -5  -7    5.20    4.30
   0  -5  -7    2.10    3.70
   0   5   7   -3.10    4.10
   0   5   7    5.60    4.20
   0   5   7   -6.50    3.50
  -1  -5  -7    1.10    5.50
   1   5   7    6.60    5.80
   9  -6  -7    0.90    3.70
  -9   6   7    7.20    4.40
  -9   6   7   -3.50    4.80
   8  -6  -7   49.50    6.40
   8  -6  -7   48.40    5.20
  -8   6   7   42.60    6.00
  -8   6   7   41.10    5.30
   7  -6  -7   25.10    4.60
   7  -6  -7   33.40    4.50
   7  -6  -7   28.50    3.90
  -7   6   7   26.20    3.10
  -7   6   7   29.60    5.10
   6  -6  -7   20.90    3.50
   6  -6  -7   19.20    4.50
   6  -6  -7   13.40    3.90
  -6   6   7   27.30    4.90
  -6   6   7   20.60    2.70
   5  -6  -7   33.40    3.90
   5  -6  -7   33.40    3.30
   5  -6  -7   32.90    5.80
  -5   6   7   39.40    5.60
   4  -6  -7   -3.80    4.60
   4  -6  -7    0.50    2.60
   4  -6  -7    1.30    2.90
  -4   6   7    1.40    4.30
  -4   6   7    2.10    2.90
   3  -6  -7   28.90    3.70
   3  -6  -7   32.10    5.50
   3  -6  -7   31.60    3.90
  -3   6   7   31.30    3.10
  -3   6   7   24.00    5.20
  -3   6   7   26.20    3.40
   2  -6  -7   -0.80    3.10
   2  -6  -7    4.70    3.50
   2  -6  -7   -1.60    3.70
  -2   6   7    2.40    4.40
  -2   6   7    5.50    3.50
   1  -6  -7    5.70    4.80
   1  -6  -7    2.80    4.30
  -1   6   7   -2.00    4.70
  -1   6   7    7.30    3.90
   0  -6  -7   10.90    5.70
   0   6   7   12.50    5.90
  -9   7   7   -0.30    4.00
   8  -7  -7   16.50    5.40
   8  -7  -7   20.70    4.00
  -8   7   7   22.50    3.90
  -8   7   7   18.80    5.20
   7  -7  -7    2.60    4.70
   7  -7  -7    0.40    3.20
   7  -7  -7    1.60    4.60
  -7   7   7    3.20    3.00
  -7   7   7    4.20    5.30
   6  -7  -7   -0.50    3.10
   6  -7  -7    1.90    5.00
   6  -7  -7   -0.50    3.30
   6  -7  -7   -5.20    5.50
  -6   7   7    7.50    4.90
  -6   7   7    6.60    3.40
  -6   7   7    3.50    2.70
   5  -7  -7   -6.10    4.50
   5  -7  -7    1.10    3.00
   5  -7  -7    4.00    3.40
  -5   7   7    3.20    4.80
  -5   7   7   -2.80    3.60
   4  -7  -7    6.40    5.10
   4  -7  -7   -1.80    3.00
   4  -7  -7   -2.00    3.60
  -4   7   7    7.40    3.60
  -4   7   7   -3.10    5.20
   3  -7  -7    5.90    3.20
   3  -7  -7   -8.20    4.60
   3  -7  -7   11.00    4.50
  -3   7   7   11.70    5.60
   2  -7  -7    3.60    3.40
   2  -7  -7    1.10    5.60
  -2   7   7    4.90    3.30
  -2   7   7    7.50    5.50
   1  -7  -7    7.40    5.90
  -1   7   7   -4.50    3.20
  -1   7   7    2.10    6.00
   8  -8  -7   -6.30    7.00
   7  -8  -7   -2.40    3.20
   7  -8  -7   -7.70    5.90
  -7   8   7   -1.70    3.70
  -7   8   7    5.30    6.00
   6  -8  -7    3.60    3.60
   6  -8  -7    3.00    4.40
   6  -8  -7    1.50    6.20
  -6   8   7   -0.20    6.40
   5  -8  -7    5.20    4.50
   5  -8  -7    2.90    3.30
   5  -8  -7    0.20    5.50
  -5   8   7    4.70    6.10
   4  -8  -7   -0.60    3.40
   4  -8  -7   -3.50    4.50
  -4   8   7    0.40    6.30
   3  -8  -7   -1.50    3.60
   3  -8  -7   -5.80    5.30
  -3   8   7    0.30    6.50
   0 -10   8   -0.40    7.00
   0 -10   8   15.40    4.70
  -1  10  -8    5.60    7.30
  -1  10  -8    0.30    3.60
   1 -10   8   -0.70    5.20
   1 -10   8    7.20    6.40
  -2  10  -8    1.10    3.30
  -2  10  -8    2.90    5.50
   2 -10   8   12.20    9.30
   2 -10   8   -1.20    5.50
  -3  10  -8    3.90    3.50
  -3  10  -8    5.50    5.90
   3 -10   8   -1.20    5.80
   3 -10   8   -4.70    9.80
  -4  10  -8    0.80    3.30
   4 -10   8    6.80    7.20
   4 -10   8    8.50    6.50
   2   9  -8   -4.20    4.70
  -2  -9   8   -6.20    6.50
  -2  -9   8    6.80    8.70
  -1  -9   8    8.70    9.90
  -1  -9   8   12.70    4.20
  -1  -9   8   14.30    6.30
   0   9  -8   -4.80    3.30
   0   9  -8    6.00    4.90
   0  -9   8    3.40    4.00
   0  -9   8   -4.80    5.10
   0  -9   8    4.90    5.80
  -1   9  -8    7.70    4.50
  -1   9  -8    3.80    3.20
   1  -9   8   -1.90    4.10
   1  -9   8    4.00    4.60
   1  -9   8   11.70    9.40
  -2   9  -8   -1.40    3.00
  -2   9  -8   -9.80    4.20
   2  -9   8    1.90    4.70
   2  -9   8   -0.50    5.40
   2  -9   8   11.30    4.30
  -3   9  -8   10.90    4.60
  -3   9  -8    3.30    2.90
   3  -9   8    3.10    4.90
   3  -9   8    3.40    4.30
   3  -9   8    7.50    5.60
  -4   9  -8   -1.90    4.80
  -4   9  -8    1.60    3.40
   4  -9   8    4.60    5.80
   4  -9   8    6.50    5.20
   4  -9   8    0.30    5.80
  -5   9  -8    8.00    5.40
  -5   9  -8    9.00    3.80
   5  -9   8   -2.30    6.80
   5  -9   8    1.80    6.00
   3   8  -8    5.50    4.70
  -3  -8   8    3.60    4.30
  -3  -8   8    6.00    5.40
  -3  -8   8    7.10    6.10
  -3  -8   8   -2.70    6.50
   2   8  -8    9.10    3.00
  -2  -8   8    4.50    3.50
  -2  -8   8   -0.70    5.30
  -2  -8   8   12.20    5.20
  -2  -8   8    8.00    3.10
  -2  -8   8    6.40    4.20
   1   8  -8   -4.00    3.20
   1   8  -8    2.90    4.30
  -1  -8   8   -3.10    4.60
  -1  -8   8   -2.60    3.90
  -1  -8   8   -5.00    4.80
   0   8  -8    6.60    3.00
   0  -8   8    1.20    4.90
   0  -8   8    1.50    4.10
   0  -8   8    2.60    3.60
  -1   8  -8   20.80    3.50
   1  -8   8   20.00    5.00
   1  -8   8   24.20    5.20
   1  -8   8   21.40    4.50
  -2   8  -8    1.10    2.90
   2  -8   8    1.80    4.00
   2  -8   8   -5.40    4.60
   2  -8   8   -0.50    3.50
  -3   8  -8   11.30    3.10
  -3   8  -8   -4.30    4.10
   3  -8   8    3.00    4.20
   3  -8   8   11.50    3.90
   3  -8   8    6.20    4.70
  -4   8  -8   14.90    3.40
  -4   8  -8   24.50    5.00
   4  -8   8   25.80    5.60
   4  -8   8   18.60    5.60
   4  -8   8    4.30    4.40
  -5   8  -8    3.40    4.60
   5  -8   8    3.20    4.80
   5  -8   8   -2.30    5.40
   5  -8   8   -0.30    5.90
  -6   8  -8   -2.70    7.40
   6  -8   8    1.40    7.40
   4   7  -8   11.20    3.80
  -4  -7   8    7.30    6.20
  -4  -7   8   14.50    5.70
  -4  -7   8   20.30    3.90
  -4  -7   8    9.00    6.30
   3   7  -8    1.00    3.00
  -3  -7   8    0.00    5.20
  -3  -7   8    4.60    3.60
  -3  -7   8    3.50    3.60
  -3  -7   8    2.20    5.60
   2   7  -8   10.20    3.40
   2   7  -8   13.10    2.90
  -2  -7   8   11.50    2.90
  -2  -7   8   16.70    4.70
  -2  -7   8   16.00    5.20
  -2  -7   8   10.80    4.10
   1   7  -8   -0.90    3.20
   1   7  -8    6.40    2.80
  -1  -7   8    0.60    4.00
  -1  -7   8   -2.00    3.80
   0   7  -8    4.80    3.10
   0   7  -8    6.80    2.70
   0  -7   8    6.30    4.00
   0  -7   8    5.70    3.70
  -1   7  -8    6.60    2.50
  -1   7  -8    2.40    2.90
   1  -7   8    8.30    4.10
   1  -7   8    4.50    3.20
  -2   7  -8    1.00    3.00
  -2   7  -8   -0.80    2.50
   2  -7   8    0.60    3.50
   2  -7   8    2.00    3.80
  -3   7  -8    0.70    3.20
  -3   7  -8   -0.20    2.60
   3  -7   8   -2.60    3.50
   3  -7   8   -0.20    4.10
   3  -7   8    0.10    3.50
   4  -7   8   -0.40    4.30
   4  -7   8    7.00    5.20
   4  -7   8   12.00    4.00
  -5   7  -8    8.90    4.50
   5  -7   8    7.20    3.90
   5  -7   8    4.10    5.80
  -6   7  -8    6.10    3.30
  -6   7  -8    9.80    5.70
   6  -7   8    7.70    6.80
   5   6  -8   27.60    3.90
  -5  -6   8   26.60    4.20
  -5  -6   8   16.10    6.80
  -5  -6   8   19.30    5.90
  -5  -6   8   25.70    5.50
   4   6  -8    8.10    2.80
  -4  -6   8   11.60    3.90
  -4  -6   8   14.50    4.90
  -4  -6   8    8.30    3.90
  -4  -6   8   11.40    5.40
   3   6  -8    2.60    2.20
   3   6  -8    2.10    2.90
  -3  -6   8    2.50    3.40
  -3  -6   8    2.40    4.60
  -3  -6   8   -0.30    4.10
  -3  -6   8    2.60    2.90
   2   6  -8   56.09    5.00
  -2  -6   8   49.00    6.20
  -2  -6   8   50.09    6.50
  -2  -6   8   57.59    4.30
  -2  -6   8   57.69    7.20
   1   6  -8   30.80    3.80
   1   6  -8   30.30    3.50
  -1  -6   8   27.00    4.70
  -1  -6   8   34.30    4.30
   0   6  -8   12.30    2.90
   0   6  -8    6.40    3.20
   0  -6   8    7.40    3.20
   0  -6   8   15.30    4.00
  -1   6  -8   12.20    3.00
  -1   6  -8   18.10    3.00
   1  -6   8   17.40    3.70
   1  -6   8   21.80    4.00
  -2   6  -8   24.30    3.60
   2  -6   8   11.80    3.40
   2  -6   8    8.30    6.70
  -3   6  -8    0.70    2.80
   3  -6   8    1.10    3.30
   3  -6   8   -0.60    3.70
  -4   6  -8   11.40    3.50
   4  -6   8    8.80    4.30
   4  -6   8   12.20    3.30
  -5   6  -8    5.10    4.20
  -5   6  -8    7.60    3.10
   5  -6   8    3.10    4.90
   5  -6   8    2.40    3.70
  -6   6  -8    1.30    4.00
  -6   6  -8    6.60    5.00
   6  -6   8    0.30    6.50
   6   5  -8    6.90    2.90
  -6  -5   8   11.20    5.70
  -6  -5   8    6.60    4.60
  -6  -5   8    3.40    5.60
  -6  -5   8    5.80    5.60
   5   5  -8    3.50    2.50
  -5  -5   8    3.80    4.70
  -5  -5   8    2.40    4.60
  -5  -5   8    0.50    3.70
  -5  -5   8   -0.80    4.10
   4   5  -8   47.20    4.90
   4   5  -8   50.39    4.70
  -4  -5   8   50.59    5.10
  -4  -5   8   61.89    7.50
  -4  -5   8   54.49    6.80
  -4  -5   8   51.89    6.20
   3   5  -8    4.50    2.30
   3   5  -8    7.10    2.40
  -3  -5   8    4.10    3.50
  -3  -5   8    6.70    3.40
  -3  -5   8    6.10    4.00
  -3  -5   8    6.00    2.80
   2   5  -8    3.10    2.20
  -2  -5   8    0.70    3.20
  -2  -5   8   -0.10    2.80
  -2  -5   8    1.80    2.00
  -2  -5   8    4.00    3.70
   1   5  -8   21.40    3.00
   1   5  -8   25.30    3.20
  -1  -5   8   21.90    2.40
  -1  -5   8   17.20    3.30
  -1  -5   8   26.50    4.30
   0   5  -8    7.70    2.50
   0   5  -8    8.10    2.60
   0  -5   8    9.30    2.90
   0  -5   8    9.90    3.30
  -1   5  -8    2.60    2.20
  -1   5  -8    3.80    2.30
   1  -5   8    3.20    3.00
   1  -5   8    0.30    2.60
  -2   5  -8   -1.60    2.50
   2  -5   8    3.60    3.20
   2  -5   8    0.80    2.40
  -3   5  -8    1.60    2.60
  -3   5  -8   -3.10    2.60
   3  -5   8    0.20    3.20
   3  -5   8    0.90    1.50
  -4   5  -8    3.60    3.30
  -4   5  -8   -1.60    3.60
   4  -5   8    8.00    2.30
   4  -5   8    3.60    4.10
  -5   5  -8    5.40    4.50
  -5   5  -8    0.40    5.10
  -5   5  -8   14.30    4.00
   5  -5   8   16.70    3.20
   5  -5   8   11.60    3.80
   5  -5   8   14.50    5.60
  -6   5  -8    2.70    5.80
  -6   5  -8    1.30    4.90
   6  -5   8    3.20    4.40
   6  -5   8    2.50    6.80
   7   4  -8   17.40    3.90
  -7  -4   8    0.70    5.30
  -7  -4   8   13.70    6.40
  -7  -4   8   10.60    5.10
  -7  -4   8    9.70    6.50
   6   4  -8   29.90    4.00
  -6  -4   8   31.40    5.00
  -6  -4   8   29.80    5.50
  -6  -4   8   30.20    5.50
  -6  -4   8   32.50    5.60
   5   4  -8    1.40    2.70
   5   4  -8    2.00    2.30
  -5  -4   8   -1.30    3.40
  -5  -4   8   -1.80    3.40
  -5  -4   8   -0.60    3.90
  -5  -4   8    2.00    3.60
   4   4  -8   32.60    3.70
   4   4  -8   25.60    3.30
  -4  -4   8   24.70    3.80
  -4  -4   8   26.80    3.80
  -4  -4   8   32.80    4.70
  -4  -4   8   29.60    4.30
   3   4  -8   57.89    4.30
   3   4  -8   48.90    4.20
  -3  -4   8   55.19    8.70
  -3  -4   8   62.19    5.80
  -3  -4   8   60.09    5.20
  -3  -4   8   54.29    4.80
   2   4  -8    1.10    1.90
  -2  -4   8    1.80    3.10
  -2  -4   8   -0.20    2.90
  -2  -4   8    0.50    2.20
  -2  -4   8    0.20    1.80
   1   4  -8   -0.30    1.70
   1   4  -8    3.50    1.90
  -1  -4   8   -1.50    2.40
  -1  -4   8    1.00    1.50
  -1  -4   8   -1.80    1.30
  -1  -4   8   -0.80    2.20
   0   4  -8    1.80    1.90
   0   4  -8   -1.00    1.80
   0  -4   8    0.40    2.30
   0  -4   8    1.30    1.20
   0  -4   8   -0.70    2.20
  -1   4  -8    2.70    1.90
  -1   4  -8    4.00    1.90
   1  -4   8    1.60    2.60
   1  -4   8    0.20    1.30
   1  -4   8   -1.80    2.50
  -2   4  -8   19.70    3.00
   2  -4   8   20.40    3.60
   2  -4   8   18.80    2.10
  -3   4  -8    2.10    2.80
  -3   4  -8    6.40    3.30
   3  -4   8    3.60    3.50
   3  -4   8    3.40    2.20
  -4   4  -8   -1.60    3.30
  -4   4  -8   -1.20    2.90
  -4   4  -8    3.80    3.30
   4  -4   8    4.00    2.80
   4  -4   8    6.10    4.20
  -5   4  -8    2.30    4.70
  -5   4  -8   -1.40    4.00
   5  -4   8   -0.30    3.50
   5  -4   8   -7.00    4.10
   5  -4   8    3.10    5.30
  -6   4  -8   -1.50    5.50
  -6   4  -8  -11.60    5.60
  -6   4  -8    1.70    5.20
   6  -4   8    3.80    7.00
   6  -4   8    4.50    4.50
   7   3  -8    5.30    3.30
  -7  -3   8    1.90    4.70
  -7  -3   8    6.90    5.10
  -7  -3   8    4.50    5.20
  -7  -3   8    5.50    4.20
   6   3  -8    0.30    2.80
  -6  -3   8    0.80    4.10
  -6  -3   8   -1.50    3.50
  -6  -3   8   -1.70    3.60
  -6  -3   8   -3.90    3.60
   5   3  -8    7.60    2.70
   5   3  -8    1.90    1.80
  -5  -3   8    5.10    3.40
  -5  -3   8    7.90    4.30
  -5  -3   8    7.80    3.00
  -5  -3   8   12.00    3.70
   4   3  -8    3.10    2.50
   4   3  -8    5.40    1.90
  -4  -3   8    4.50    2.60
  -4  -3   8    0.20    3.00
  -4  -3   8    0.60    2.40
  -4  -3   8    0.40    3.30
   3   3  -8   77.89    4.30
  -3  -3   8   78.69    6.10
  -3  -3   8   81.99    5.00
  -3  -3   8   80.39    6.00
  -3  -3   8   80.29    4.60
   2   3  -8    2.30    1.70
  -2  -3   8    5.60    2.90
  -2  -3   8    3.60    1.90
  -2  -3   8   -1.10    2.90
   1   3  -8    7.20    1.70
   1   3  -8    5.80    1.80
   1   3  -8    6.00    2.20
  -1  -3   8    8.20    2.00
  -1  -3   8    6.40    3.60
  -1  -3   8    9.40    1.60
   0   3  -8    3.50    2.20
   0   3  -8   -0.90    1.50
   0   3  -8    5.10    1.70
   0  -3   8    1.50    2.00
   0  -3   8    3.50    1.60
   0  -3   8   -1.00    2.20
  -1   3  -8   54.49    3.90
   1  -3   8   56.79    5.20
   1  -3   8   55.09    3.60
  -2   3  -8   47.90    4.40
  -2   3  -8   51.99    4.40
   2  -3   8   40.50    3.90
   2  -3   8   40.10    5.30
  -3   3  -8   37.40    4.70
  -3   3  -8   34.80    4.60
  -3   3  -8   37.40    5.00
   3  -3   8   44.40    6.30
   3  -3   8   40.60    4.50
  -4   3  -8   17.70    4.10
  -4   3  -8   14.70    3.50
  -4   3  -8   12.70    4.00
   4  -3   8   17.80    6.00
   4  -3   8   20.70    5.20
  -5   3  -8   -8.20    5.00
  -5   3  -8    2.20    4.70
   5  -3   8   -2.50    4.40
   5  -3   8    7.70    4.30
   5  -3   8    0.30    6.30
  -6   3  -8    2.60    6.20
  -6   3  -8    5.00    6.60
  -6   3  -8   -3.30    5.60
   6  -3   8   -0.20    7.90
   6  -3   8   11.60    5.30
   8   2  -8    6.80    3.70
  -8  -2   8    3.10    6.20
  -8  -2   8    9.10    5.50
  -8  -2   8    5.00    5.40
   7   2  -8    5.30    3.00
  -7  -2   8   -4.70    4.70
  -7  -2   8    3.90    4.20
  -7  -2   8   -1.00    3.40
  -7  -2   8    6.10    4.10
   6   2  -8   -3.90    2.50
   6   2  -8   -5.00    1.70
  -6  -2   8   -0.10    3.20
  -6  -2   8    0.20    3.60
  -6  -2   8    2.70    3.20
  -6  -2   8   -2.30    3.40
   5   2  -8    4.70    2.30
   5   2  -8    4.00    2.00
  -5  -2   8    4.30    3.10
  -5  -2   8    4.80    2.70
  -5  -2   8    4.30    3.10
  -5  -2   8    6.10    3.30
   4   2  -8   42.50    3.40
  -4  -2   8   40.10    7.80
  -4  -2   8   55.19    5.30
  -4  -2   8   51.99    4.20
  -4  -2   8   51.59    5.60
   3   2  -8    3.10    1.50
   3   2  -8    5.50    2.40
  -3  -2   8    4.60    1.70
  -3  -2   8    1.50    4.90
  -3  -2   8    5.90    2.90
   2   2  -8   58.89    3.50
  -2  -2   8   57.59    8.60
  -2  -2   8   56.39    3.10
  -2  -2   8   54.79    5.30
   1   2  -8    8.70    2.60
   1   2  -8    9.50    1.40
   1   2  -8    6.50    1.60
  -1  -2   8    7.50    2.00
   0   2  -8   13.00    2.00
   0   2  -8   17.40    2.80
   0   2  -8   16.40    1.90
   0  -2   8   13.80    2.20
   0  -2   8   15.40    3.50
  -1   2  -8   26.80    3.30
   1  -2   8   23.00    2.80
   1  -2   8   39.80    4.90
  -2   2  -8    6.20    2.30
  -2   2  -8    1.20    2.40
   2  -2   8    5.30    3.20
   2  -2   8   11.90    2.50
  -3   2  -8    5.90    3.00
  -3   2  -8    9.70    3.10
  -3   2  -8    9.80    3.80
   3  -2   8    3.00    3.70
   3  -2   8    9.90    5.80
  -4   2  -8   -1.80    4.30
  -4   2  -8   -8.90    4.00
  -4   2  -8   -0.90    3.30
   4  -2   8    6.40    4.80
   4  -2   8    1.30    3.60
  -5   2  -8    4.90    5.50
  -5   2  -8    2.00    5.70
  -5   2  -8    0.80    4.70
   5  -2   8    4.70    5.10
   5  -2   8    2.80    6.20
   5  -2   8   -4.30    4.60
   8   1  -8   20.40    4.10
  -8  -1   8   26.80    5.20
  -8  -1   8   22.00    5.90
  -8  -1   8   25.90    5.80
   7   1  -8   -1.90    2.50
   7   1  -8    2.00    3.40
  -7  -1   8    2.00    3.40
  -7  -1   8    2.90    4.20
  -7  -1   8    1.00    3.90
  -7  -1   8    7.20    3.20
   6   1  -8    3.00    2.50
   6   1  -8    3.30    1.90
  -6  -1   8   12.10    3.60
  -6  -1   8    8.60    3.90
  -6  -1   8    6.70    3.30
  -6  -1   8    7.30    2.90
   5   1  -8    1.70    2.40
   5   1  -8   -1.20    1.80
  -5  -1   8    2.80    3.30
  -5  -1   8    1.90    2.80
  -5  -1   8    2.80    3.30
  -5  -1   8   -0.50    2.00
   4   1  -8   12.00    2.70
   4   1  -8   10.20    1.90
  -4  -1   8   16.80    1.90
  -4  -1   8   12.20    3.30
  -4  -1   8   18.70    3.30
   3   1  -8    9.50    1.90
   3   1  -8    8.10    2.70
  -3  -1   8   10.70    3.00
  -3  -1   8   10.30    3.10
   2   1  -8  132.39    5.70
   2   1  -8  127.59    7.60
  -2  -1   8  130.39    5.80
  -2  -1   8  127.09    6.90
  -2  -1   8  135.59    7.30
   1   1  -8  425.06   12.50
   1   1  -8  431.76   13.70
   1   1  -8  411.26   10.30
  -1  -1   8  418.36   12.30
  -1  -1   8  360.16   14.50
   0   1  -8   93.09    3.70
   0   1  -8   81.79    5.10
   0  -1   8   89.49    5.00
   0  -1   8   92.99    6.20
  -1   1  -8   14.30    2.30
   1  -1   8   15.20    3.30
   1  -1   8   16.90    3.10
  -2   1  -8   55.49    4.50
  -2   1  -8   43.40    4.80
   2  -1   8   42.20    5.00
   2  -1   8   54.49    5.90
  -3   1  -8    7.90    3.70
  -3   1  -8    1.30    3.60
  -3   1  -8   14.60    4.50
   3  -1   8   12.70    4.60
   3  -1   8   11.00    3.60
  -4   1  -8    1.40    3.70
  -4   1  -8    2.50    4.90
  -4   1  -8   -0.60    4.30
   4  -1   8    0.70    5.30
   4  -1   8    2.10    4.10
  -5   1  -8    1.30    6.40
  -5   1  -8   11.90    6.80
  -5   1  -8   -0.30    5.20
   5  -1   8   -8.10    5.20
   5  -1   8   -8.10    6.40
   5  -1   8   -0.10    5.60
   9   0  -8    2.90    3.50
  -9   0   8   -4.00    5.70
  -9   0   8    5.40    6.50
   8   0  -8   -2.60    2.80
  -8   0   8    4.70    5.20
  -8   0   8    1.80    5.00
  -8   0   8    2.20    4.60
   7   0  -8    4.20    2.00
   7   0  -8    5.30    2.60
  -7   0   8    3.20    4.10
  -7   0   8    1.80    2.70
  -7   0   8    6.10    4.80
  -7   0   8    3.10    2.80
   6   0  -8   44.20    4.40
   6   0  -8   32.60    3.40
  -6   0   8   43.60    4.10
  -6   0   8   39.90    4.80
  -6   0   8   43.80    5.20
  -6   0   8   43.60    5.30
   5   0  -8    2.00    1.70
   5   0  -8    2.90    2.50
  -5   0   8    0.30    2.80
  -5   0   8    2.90    1.50
  -5   0   8    1.10    1.40
  -5   0   8    4.70    3.20
   4   0  -8   10.60    1.90
   4   0  -8    9.20    2.70
  -4   0   8   13.40    3.20
  -4   0   8    5.50    2.70
   3   0  -8   46.20    4.90
   3   0  -8   50.39    3.50
  -3   0   8   46.70    4.70
  -3   0   8   56.19    5.50
   2   0  -8   65.79    5.00
   2   0  -8   58.09    3.80
  -2   0   8   67.89    5.90
  -2   0   8   61.09    5.20
  -2   0   8   63.29    4.80
   1   0  -8    0.30    1.60
   1   0  -8    7.10    2.60
  -1   0   8    4.30    2.30
  -1   0   8    2.50    2.90
   0   0  -8   65.49    3.20
   0   0   8   67.29    4.90
   0   0   8   79.59    5.90
  -1   0  -8   42.10    3.70
   1   0   8   33.40    4.00
   1   0   8   47.70    5.80
  -2   0  -8    8.20    3.30
  -2   0  -8    0.30    2.60
  -2   0  -8    4.00    3.80
   2   0   8   -1.40    3.00
   2   0   8   -0.70    3.70
  -3   0  -8    4.00    3.80
  -3   0  -8    5.70    3.40
  -3   0  -8    1.90    4.70
   3   0   8   -6.00    4.20
   3   0   8    0.00    4.00
  -4   0  -8   -2.40    4.90
  -4   0  -8   -5.70    5.60
   4   0   8   -1.60    6.10
   4   0   8   -0.90    5.00
   9  -1  -8    5.00    3.20
   9  -1  -8    0.60    5.70
  -9   1   8   -3.50    5.60
  -9   1   8    3.30    4.40
  -9   1   8    2.50    6.40
   8  -1  -8   14.10    3.20
  -8   1   8   10.80    5.20
  -8   1   8   16.00    5.10
  -8   1   8   21.20    3.70
   7  -1  -8    7.60    2.00
   7  -1  -8    3.50    2.70
  -7   1   8    0.20    4.00
  -7   1   8    5.70    2.40
  -7   1   8    3.30    2.90
  -7   1   8    6.70    4.10
   6  -1  -8   -1.90    1.70
   6  -1  -8    3.40    2.30
  -6   1   8   -3.10    2.90
  -6   1   8    2.50    3.20
  -6   1   8    0.90    1.90
  -6   1   8    1.10    1.50
   5  -1  -8   19.70    2.60
   5  -1  -8   24.00    3.50
  -5   1   8   26.10    3.90
  -5   1   8   22.90    3.90
   4  -1  -8  102.49    5.00
   4  -1  -8  106.79    6.20
  -4   1   8  105.69    6.50
  -4   1   8  109.49    6.80
   3  -1  -8  529.65   16.00
   3  -1  -8  499.05   14.90
  -3   1   8  521.25   16.20
  -3   1   8  495.45   16.10
   2  -1  -8  172.48    6.60
   2  -1  -8  172.98    7.60
  -2   1   8  167.38    8.30
  -2   1   8  147.09    8.30
  -2   1   8  158.98    7.80
   1  -1  -8    7.50    2.60
   1  -1  -8    7.60    1.90
  -1   1   8   15.10    3.30
  -1   1   8   -1.00    2.60
  -1   1   8   11.60    2.90
   0  -1  -8    8.20    1.80
   0   1   8   12.10    3.60
   0   1   8    4.70    2.90
  -1  -1  -8   -1.10    2.20
   1   1   8   -5.00    3.00
   1   1   8   -4.10    3.00
  -2  -1  -8   13.70    3.40
  -2  -1  -8    8.60    4.40
  -2  -1  -8    8.80    3.50
   2   1   8    6.30    3.90
   2   1   8    4.80    3.70
  -3  -1  -8   -4.90    4.30
  -3  -1  -8   -1.10    4.00
  -3  -1  -8   10.00    5.50
   3   1   8    0.00    4.90
   3   1   8   -7.30    5.00
  -4  -1  -8   -0.60    5.70
  -4  -1  -8   -3.60    6.70
   4   1   8    4.10    7.40
   4   1   8   -6.80    6.70
   9  -2  -8   17.00    5.90
   9  -2  -8   15.20    3.40
  -9   2   8   16.50    5.90
  -9   2   8   18.10    6.60
  -9   2   8   10.60    4.20
   8  -2  -8   10.30    4.70
   8  -2  -8   10.10    4.00
   8  -2  -8   15.60    3.30
  -8   2   8   18.70    4.80
  -8   2   8    8.90    3.00
  -8   2   8    6.90    4.90
   7  -2  -8    1.50    2.00
   7  -2  -8    8.50    2.60
  -7   2   8    7.00    2.10
  -7   2   8    0.50    3.90
  -7   2   8    2.40    3.20
   6  -2  -8    7.80    3.00
   6  -2  -8   16.40    2.80
  -6   2   8   14.00    3.70
  -6   2   8    7.40    3.40
   5  -2  -8    6.20    1.90
   5  -2  -8    2.70    2.80
  -5   2   8    5.10    2.70
  -5   2   8    7.90    3.40
   4  -2  -8    8.20    2.10
   4  -2  -8    5.30    2.80
  -4   2   8    4.50    3.30
  -4   2   8    1.30    2.60
   3  -2  -8   -1.30    2.60
   3  -2  -8   -0.30    1.80
  -3   2   8    1.40    2.40
  -3   2   8    4.70    3.30
  -3   2   8   -2.30    2.60
   2  -2  -8   80.39    4.80
   2  -2  -8   83.49    6.00
  -2   2   8   90.39    6.00
  -2   2   8   88.59    6.40
  -2   2   8   93.79    7.00
   1  -2  -8   20.00    2.40
   1  -2  -8   23.40    4.40
   1  -2  -8   20.30    2.20
  -1   2   8   19.30    3.30
  -1   2   8   21.80    3.80
  -1   2   8   17.40    4.00
   0  -2  -8   -0.50    2.00
   0  -2  -8    0.30    2.30
   0   2   8   -1.00    3.60
   0   2   8   -4.30    3.10
   0   2   8    1.70    3.30
  -1  -2  -8   -1.20    3.10
  -1  -2  -8   -1.20    3.00
   1   2   8   -2.20    3.60
   1   2   8    3.10    4.20
   1   2   8    2.40    3.60
  -2  -2  -8   13.90    5.30
  -2  -2  -8    3.40    3.90
   2   2   8   -4.70    4.30
   2   2   8    3.20    4.40
  -3  -2  -8   10.80    6.60
   3   2   8    7.10    6.10
   3   2   8   11.10    6.50
   9  -3  -8   11.00    5.60
  -9   3   8    5.80    5.70
  -9   3   8    7.70    3.40
  -9   3   8   -4.40    5.10
   8  -3  -8    9.10    4.30
   8  -3  -8    3.10    2.70
  -8   3   8    3.80    4.50
  -8   3   8    0.80    2.50
   7  -3  -8    8.70    2.60
   7  -3  -8   13.80    3.40
   7  -3  -8    9.20    3.60
  -7   3   8   14.00    2.10
  -7   3   8   20.10    4.10
  -7   3   8    9.00    3.80
   6  -3  -8   34.30    4.00
   6  -3  -8   32.30    3.80
  -6   3   8   42.80    5.60
  -6   3   8   28.20    4.50
   5  -3  -8   79.39    6.10
   5  -3  -8   80.79    5.00
  -5   3   8   73.39    7.00
  -5   3   8   90.99    6.40
   4  -3  -8   77.79    5.10
   4  -3  -8   97.09    6.60
  -4   3   8   96.89    7.50
  -4   3   8  105.49    6.70
  -4   3   8   82.79    5.80
   3  -3  -8   -2.20    2.00
   3  -3  -8    3.40    3.10
  -3   3   8   -1.00    2.90
  -3   3   8    3.20    2.90
  -3   3   8   -1.20    3.50
   2  -3  -8   16.60    2.80
  -2   3   8    8.40    3.70
  -2   3   8   12.90    3.60
  -2   3   8    9.00    3.10
   1  -3  -8    6.50    3.00
   1  -3  -8   13.80    2.40
  -1   3   8   19.10    4.10
  -1   3   8   15.70    4.50
  -1   3   8   11.70    3.30
   0  -3  -8    4.30    3.10
   0   3   8   -0.80    4.20
   0   3   8    6.30    3.80
   0   3   8    3.00    3.50
  -1  -3  -8   -1.50    3.70
  -1  -3  -8    6.90    4.00
   1   3   8   -2.10    4.80
   1   3   8   10.70    4.40
   1   3   8   -4.20    4.10
  -2  -3  -8   -2.90    5.30
   2   3   8   -2.50    5.60
   2   3   8   -2.30    5.70
   2   3   8    7.70    5.90
   9  -4  -8    7.20    4.20
  -9   4   8    4.00    3.40
  -9   4   8    2.30    5.40
   8  -4  -8    8.10    2.90
   8  -4  -8    7.10    3.50
   8  -4  -8   12.50    3.90
  -8   4   8    4.00    4.10
  -8   4   8    5.20    2.60
   7  -4  -8    2.60    3.30
   7  -4  -8    4.20    3.20
   7  -4  -8   -0.20    2.50
  -7   4   8    7.60    3.70
  -7   4   8    1.90    1.70
   6  -4  -8   69.09    6.40
   6  -4  -8   61.99    5.10
  -6   4   8   56.79    6.70
  -6   4   8   66.49    8.30
   5  -4  -8    4.00    2.50
   5  -4  -8    3.90    3.30
  -5   4   8   -1.20    4.00
  -5   4   8    2.90    3.20
   4  -4  -8   30.90    4.60
   4  -4  -8   35.50    3.90
  -4   4   8   29.10    4.40
  -4   4   8   24.40    3.60
  -4   4   8   28.80    5.30
   3  -4  -8   -3.80    2.30
  -3   4   8   -4.60    4.00
  -3   4   8   -3.60    3.50
  -3   4   8    2.60    2.90
   2  -4  -8    4.90    2.70
   2  -4  -8    1.00    3.30
  -2   4   8   -2.60    3.80
  -2   4   8    3.80    3.20
  -2   4   8    3.80    4.10
   1  -4  -8    0.10    2.90
   1  -4  -8    2.00    3.60
  -1   4   8    3.60    4.40
  -1   4   8   -4.40    3.40
  -1   4   8    5.30    4.20
   0  -4  -8    2.20    4.00
   0  -4  -8    3.30    3.90
   0   4   8   -6.00    4.30
   0   4   8    0.50    4.10
   0   4   8   10.60    5.20
  -1  -4  -8    8.70    5.10
   1   4   8    2.70    5.60
   1   4   8    0.20    5.30
  -9   5   8   -0.70    3.60
   8  -5  -8    1.50    3.60
   8  -5  -8    1.70    5.70
   8  -5  -8   -1.80    2.90
  -8   5   8   -6.00    4.20
  -8   5   8   -4.70    2.60
   7  -5  -8   12.20    4.00
   7  -5  -8   14.90    3.60
   7  -5  -8    1.50    2.90
  -7   5   8    4.20    2.00
  -7   5   8    7.40    3.70
   6  -5  -8   14.30    4.00
   6  -5  -8   15.90    3.60
  -6   5   8   18.60    4.50
   5  -5  -8   12.40    4.60
   5  -5  -8    7.80    2.90
  -5   5   8    7.50    3.10
  -5   5   8   11.30    4.30
   4  -5  -8    5.20    3.00
   4  -5  -8   -9.20    4.60
  -4   5   8   11.90    5.00
  -4   5   8    2.10    4.10
  -4   5   8    0.80    3.20
   3  -5  -8   19.70    4.90
   3  -5  -8   14.00    2.30
   3  -5  -8   15.60    3.30
  -3   5   8   14.90    5.00
  -3   5   8   17.20    3.50
  -3   5   8   13.20    4.70
   2  -5  -8   -3.20    2.90
   2  -5  -8   -2.30    4.10
   2  -5  -8    2.10    3.10
  -2   5   8    4.70    3.60
  -2   5   8    3.70    4.80
  -2   5   8   -1.50    4.50
   1  -5  -8    7.50    4.10
   1  -5  -8   11.20    4.50
  -1   5   8   10.30    4.50
  -1   5   8   20.50    5.20
  -1   5   8    8.70    5.20
   0  -5  -8   -9.60    8.90
   0   5   8   -1.00    5.60
   8  -6  -8   54.69    7.50
   8  -6  -8   35.90    4.50
  -8   6   8   41.80    7.00
  -8   6   8   45.80    4.90
   7  -6  -8    1.00    5.60
   7  -6  -8    0.90    3.10
   7  -6  -8    1.70    4.60
  -7   6   8   -6.50    4.60
  -7   6   8   -1.50    2.20
   6  -6  -8   -0.80    3.10
  -6   6   8   -1.20    3.30
  -6   6   8   -0.30    4.70
   5  -6  -8    3.90    2.90
   5  -6  -8   -8.90    4.70
  -5   6   8    3.30    3.30
  -5   6   8    2.30    5.10
   4  -6  -8   -1.40    2.90
   4  -6  -8    1.00    2.60
   4  -6  -8   -3.50    4.90
  -4   6   8   -4.00    3.30
  -4   6   8   -4.20    4.80
   3  -6  -8   -1.50    3.10
   3  -6  -8    0.50    3.00
   3  -6  -8   -1.50    4.40
  -3   6   8    0.40    4.20
  -3   6   8    0.40    5.50
   2  -6  -8    2.60    3.30
   2  -6  -8    2.00    4.00
  -2   6   8    4.30    5.50
   1  -6  -8    0.30    7.90
  -1   6   8    0.80    5.80
   8  -7  -8   19.00    4.00
   7  -7  -8    3.30    3.60
   7  -7  -8    0.70    5.70
  -7   7   8   -3.50    8.60
   6  -7  -8   -4.10    3.30
   6  -7  -8    6.10    5.30
  -6   7   8    1.30    6.70
   5  -7  -8    1.40    3.20
   5  -7  -8    2.30    3.40
   5  -7  -8    9.30    6.20
  -5   7   8   -4.50    5.90
   4  -7  -8    1.50    3.40
   4  -7  -8    0.80    3.80
  -4   7   8   -5.80    6.40
   3  -7  -8   -1.00    4.60
   3  -7  -8   -1.50    3.60
  -3   7   8    6.90    6.30
   1   9  -9    3.70    3.90
  -1  -9   9    4.00    6.90
  -1  -9   9    6.30    5.00
  -1  -9   9    6.80    7.70
   0   9  -9   11.80    8.40
   0   9  -9    8.40    3.70
   0  -9   9    4.80    6.50
   0  -9   9    2.80    6.30
   0  -9   9    7.50    5.10
  -1   9  -9   -3.30    3.20
  -1   9  -9   -2.90    4.80
   1  -9   9    3.20    5.20
   1  -9   9    5.90    6.20
   1  -9   9   -0.90    4.90
  -2   9  -9    7.10    5.10
  -2   9  -9    7.70    3.40
   2  -9   9    4.90    5.50
   2  -9   9   14.70    6.70
   2  -9   9    5.10    4.80
  -3   9  -9   -0.20    3.40
  -3   9  -9    1.30    5.20
   3  -9   9    3.90    6.30
   3  -9   9   -1.50    5.80
  -4   9  -9   -4.00    5.90
  -4   9  -9    0.80    3.60
   4  -9   9   -6.30    6.70
   3   8  -9    6.80    4.90
  -3  -8   9   12.60    7.00
  -3  -8   9   -1.30    7.40
   2   8  -9    6.90    3.70
  -2  -8   9    3.00    6.20
  -2  -8   9   -1.40    4.80
  -2  -8   9    4.70    6.10
   1   8  -9    0.10    3.30
   1   8  -9    1.00    4.50
  -1  -8   9   -1.80    5.60
  -1  -8   9   -0.50    5.60
   0   8  -9    0.00    4.10
   0   8  -9   -5.70    2.90
   0  -8   9   -0.10    5.40
   0  -8   9    6.90    5.40
  -1   8  -9    1.60    2.90
  -1   8  -9   -1.90    4.60
   1  -8   9    1.40    5.10
   1  -8   9    2.20    4.40
   1  -8   9    8.50    4.20
  -2   8  -9   -1.10    2.90
  -2   8  -9   -2.50    4.00
   2  -8   9    1.10    3.80
   2  -8   9   -1.50    5.00
   2  -8   9   -9.50    4.50
  -3   8  -9    6.50    4.40
  -3   8  -9    5.40    3.30
   3  -8   9   -6.30    4.20
   3  -8   9    2.40    5.70
   3  -8   9    6.60    5.20
  -4   8  -9    3.80    4.80
  -4   8  -9    4.20    3.30
   4  -8   9    1.40    5.80
   4  -8   9   -3.90    5.90
  -5   8  -9   -4.50    5.00
   4   7  -9   -8.20    4.30
  -4  -7   9    7.30    4.90
  -4  -7   9    3.70    4.90
  -4  -7   9    3.00    6.80
  -4  -7   9   -2.60    6.20
   3   7  -9    3.50    2.70
   3   7  -9    1.70    3.50
  -3  -7   9   -0.30    5.20
  -3  -7   9    0.70    3.60
  -3  -7   9   -2.20    5.70
  -3  -7   9    7.20    5.40
   2   7  -9    0.00    3.00
  -2  -7   9   -1.10    4.90
  -2  -7   9    1.70    2.30
  -2  -7   9    4.50    5.60
  -2  -7   9   -2.00    4.50
   1   7  -9    6.60    3.70
   1   7  -9    4.30    2.90
  -1  -7   9   -0.90    4.50
  -1  -7   9   -2.40    4.40
   0   7  -9    0.50    3.40
   0   7  -9    2.10    2.70
   0  -7   9    7.90    4.70
   0  -7   9    3.60    4.90
  -1   7  -9    1.20    3.50
  -1   7  -9    4.80    2.80
   1  -7   9    4.90    3.60
   1  -7   9   -0.90    4.70
  -2   7  -9    2.60    2.90
  -2   7  -9   -1.70    3.50
   2  -7   9    4.00    4.80
   2  -7   9    5.20    3.60
  -3   7  -9   -1.70    3.10
   3  -7   9   -3.50    3.80
   3  -7   9   -1.20    4.90
   3  -7   9  -10.20    4.40
  -4   7  -9   -4.00    4.10
   4  -7   9   -4.90    4.30
   4  -7   9   -2.50    5.30
  -5   7  -9    0.20    5.50
   5  -7   9  -10.40    6.40
   5   6  -9    6.00    4.50
  -5  -6   9    1.10    5.30
  -5  -6   9    5.40    8.00
  -5  -6   9    1.30    4.50
  -5  -6   9   -1.80    6.10
   4   6  -9   -0.20    2.90
   4   6  -9   -3.30    4.80
  -4  -6   9   -6.00    3.80
  -4  -6   9   -0.50    5.10
  -4  -6   9    5.60    5.80
   3   6  -9    1.00    2.90
  -3  -6   9   -2.00    4.00
  -3  -6   9    2.40    3.10
  -3  -6   9    3.10    4.30
  -3  -6   9    3.40    5.10
   2   6  -9    6.30    2.80
  -2  -6   9    9.90    4.60
  -2  -6   9   12.80    4.00
  -2  -6   9   12.20    2.50
  -2  -6   9   -1.80    4.70
   1   6  -9   12.60    3.20
   1   6  -9   11.00    2.90
  -1  -6   9    7.40    4.30
  -1  -6   9   11.20    4.30
   0   6  -9    1.50    2.60
   0   6  -9    1.30    2.50
   0  -6   9    0.50    3.50
   0  -6   9   -0.70    3.30
  -1   6  -9   26.80    4.00
  -1   6  -9   33.60    3.70
   1  -6   9   38.90    5.20
   1  -6   9   41.00    7.80
  -2   6  -9   43.60    4.70
  -2   6  -9   50.59    4.60
   2  -6   9   30.00    5.80
   2  -6   9   34.70    5.20
  -3   6  -9    5.00    3.60
   3  -6   9    9.40    3.90
   3  -6   9    5.20    4.80
   4  -6   9   -9.10    4.30
  -5   6  -9   -6.70    4.80
   5  -6   9  -10.00    6.30
   6   5  -9    1.90    7.60
  -6  -5   9   -0.90    5.80
  -6  -5   9   11.00    5.30
  -6  -5   9   -3.30    6.00
  -6  -5   9   -0.10    6.30
   5   5  -9   15.70    3.20
   5   5  -9    6.80    3.90
  -5  -5   9    6.50    6.30
  -5  -5   9    1.20    5.50
  -5  -5   9    9.80    4.80
  -5  -5   9    9.80    5.10
   4   5  -9   30.20    4.10
   4   5  -9   24.70    3.90
  -4  -5   9   25.80    5.80
  -4  -5   9   34.70    5.40
  -4  -5   9   32.00    5.10
  -4  -5   9   30.90    4.30
   3   5  -9    2.60    2.40
  -3  -5   9    1.70    3.80
  -3  -5   9   -0.40    4.40
  -3  -5   9    0.90    3.40
  -3  -5   9    2.10    2.80
   2   5  -9   18.30    3.00
  -2  -5   9   17.00    3.80
  -2  -5   9   20.20    2.70
  -2  -5   9   21.50    4.80
  -2  -5   9   15.40    4.60
   1   5  -9    1.20    2.20
   1   5  -9    2.20    2.50
  -1  -5   9   -0.70    2.90
  -1  -5   9    0.30    1.50
  -1  -5   9   -2.50    3.40
  -1  -5   9    0.30    1.20
   0   5  -9    4.40    2.20
   0   5  -9    5.10    2.60
   0  -5   9    3.20    3.10
   0  -5   9    4.20    3.60
  -1   5  -9   18.10    3.00
  -1   5  -9   23.80    3.30
   1  -5   9   16.30    3.80
   1  -5   9   22.00    3.90
  -2   5  -9    6.80    2.40
  -2   5  -9    0.80    3.40
   2  -5   9   -1.20    3.30
  -3   5  -9    4.30    3.40
  -3   5  -9    3.30    3.10
   3  -5   9    4.70    2.00
   3  -5   9   -0.40    3.30
  -4   5  -9   21.80    4.40
  -4   5  -9    5.00    4.30
   4  -5   9   15.00    5.20
   4  -5   9   16.90    3.00
  -5   5  -9    8.20    4.00
  -5   5  -9    5.90    5.00
   5  -5   9    5.50    6.90
   5  -5   9    4.90    3.60
   6   4  -9    1.70    3.10
  -6  -4   9    3.40    4.90
  -6  -4   9   -1.40    4.70
  -6  -4   9    0.00    4.90
  -6  -4   9   -0.70    5.20
   5   4  -9    2.10    2.90
   5   4  -9    4.40    4.10
  -5  -4   9   -1.30    4.40
  -5  -4   9    4.70    4.70
  -5  -4   9   -1.80    4.20
  -5  -4   9    2.40    3.90
   4   4  -9   60.39    4.80
  -4  -4   9   55.89    7.60
  -4  -4   9   70.39    6.40
  -4  -4   9   68.39    7.20
  -4  -4   9   59.79    6.20
   3   4  -9   35.70    3.90
  -3  -4   9   33.90    5.00
  -3  -4   9   33.00    3.90
  -3  -4   9   32.30    5.30
  -3  -4   9   33.70    3.80
   2   4  -9    0.70    1.90
  -2  -4   9    3.00    2.30
  -2  -4   9   -2.20    3.50
  -2  -4   9    1.60    2.70
  -2  -4   9   -2.10    3.40
   1   4  -9   74.99    4.70
   1   4  -9   76.39    4.60
  -1  -4   9   77.79    4.20
  -1  -4   9   74.09    6.90
  -1  -4   9   75.49    5.20
  -1  -4   9   72.09    3.90
   0   4  -9  258.77    9.10
   0   4  -9  260.57    8.60
   0  -4   9  252.17    9.00
   0  -4   9  251.67   10.60
   0  -4   9  246.68    7.50
  -1   4  -9   30.90    3.60
  -1   4  -9   36.70    4.30
   1  -4   9   24.50    4.00
   1  -4   9   32.80    3.10
  -2   4  -9    4.90    2.70
   2  -4   9    2.50    3.50
   2  -4   9   10.10    2.30
  -3   4  -9    2.30    3.00
  -3   4  -9    1.90    3.20
   3  -4   9   -2.30    3.60
   3  -4   9    1.20    2.60
  -4   4  -9    4.30    4.40
  -4   4  -9    0.90    3.70
   4  -4   9   -0.30    3.30
   4  -4   9    2.90    5.00
  -5   4  -9    3.10    4.80
  -5   4  -9    7.00    5.40
   5  -4   9   -5.90    6.40
   5  -4   9    2.10    4.10
   7   3  -9   -3.30    3.30
  -7  -3   9   -1.50    5.60
  -7  -3   9    0.00    5.00
  -7  -3   9    2.60    4.90
  -7  -3   9    3.40    5.20
   6   3  -9    7.60    3.90
   6   3  -9    3.10    3.00
  -6  -3   9    4.80    4.70
  -6  -3   9   -3.70    4.30
  -6  -3   9    0.60    4.50
  -6  -3   9    0.00    6.20
   5   3  -9   -1.60    2.80
   5   3  -9    4.20    2.40
  -5  -3   9   -3.90    3.30
  -5  -3   9    1.60    3.10
  -5  -3   9    1.80    4.40
  -5  -3   9    5.80    4.10
   4   3  -9   20.40    2.70
  -4  -3   9   24.50    3.30
  -4  -3   9   26.50    4.80
  -4  -3   9   25.90    4.80
  -4  -3   9   28.40    3.90
   3   3  -9   80.19    4.60
  -3  -3   9   76.69    4.90
  -3  -3   9   82.49    7.20
  -3  -3   9   84.29    5.70
  -3  -3   9   79.29    7.00
   2   3  -9   20.80    2.60
   2   3  -9   12.90    3.10
  -2  -3   9   11.90    3.90
  -2  -3   9   19.40    4.20
  -2  -3   9   20.90    2.60
   1   3  -9   20.40    2.70
   1   3  -9   20.10    3.40
   1   3  -9   17.60    2.10
  -1  -3   9   17.50    2.40
  -1  -3   9   13.90    2.50
  -1  -3   9   17.70    3.90
   0   3  -9   -1.10    1.60
   0   3  -9    1.10    1.80
   0  -3   9    1.30    1.90
   0  -3   9   -4.10    2.70
  -1   3  -9   13.80    2.50
   1  -3   9   15.50    2.70
   1  -3   9   13.50    3.60
  -2   3  -9   49.90    5.00
  -2   3  -9   54.09    5.90
   2  -3   9   64.29    6.30
   2  -3   9   49.60    4.70
  -3   3  -9   24.30    3.80
  -3   3  -9   31.30    4.50
   3  -3   9   23.40    5.10
   3  -3   9   22.90    3.90
  -4   3  -9   -7.90    4.10
  -4   3  -9    2.90    5.20
  -4   3  -9    2.40    4.00
   4  -3   9   -1.70    3.70
   4  -3   9   -0.80    5.60
  -5   3  -9    7.60    5.90
  -5   3  -9    2.60    5.30
   5  -3   9    2.90    5.00
   5  -3   9    7.70    7.70
   8   2  -9   16.90    4.20
  -8  -2   9   18.80    6.20
  -8  -2   9   28.10    7.30
  -8  -2   9   22.30    7.20
   7   2  -9    0.00    3.70
   7   2  -9    0.20    3.10
  -7  -2   9    7.00    5.50
  -7  -2   9   -4.70    7.80
  -7  -2   9   10.40    5.30
  -7  -2   9   -0.60    4.30
   6   2  -9   18.90    3.70
   6   2  -9   22.40    4.80
  -6  -2   9   25.60    4.90
  -6  -2   9   24.80    4.60
  -6  -2   9   21.50    4.90
  -6  -2   9   23.50    4.90
   5   2  -9   28.50    3.00
  -5  -2   9   34.30    4.40
  -5  -2   9   32.50    3.70
  -5  -2   9   33.80    5.00
  -5  -2   9   28.20    4.50
   4   2  -9   29.80    3.10
  -4  -2   9   28.90    2.80
  -4  -2   9   34.20    4.10
  -4  -2   9   31.00    5.50
  -4  -2   9   22.50    4.40
   3   2  -9   12.90    2.10
   3   2  -9   17.80    3.50
  -3  -2   9   13.10    3.90
  -3  -2   9   19.40    4.00
  -3  -2   9   18.10    2.00
   2   2  -9  182.28    8.30
   2   2  -9  166.18    6.70
  -2  -2   9  161.48    6.80
  -2  -2   9  173.68    9.00
  -2  -2   9  173.28    8.60
   1   2  -9  131.09    7.20
   1   2  -9  120.79    5.60
   1   2  -9  126.99    4.30
  -1  -2   9  131.09    7.50
  -1  -2   9  124.49    5.90
   0   2  -9   48.60    3.70
   0   2  -9   44.90    3.40
   0  -2   9   48.60    5.60
   0  -2   9   40.90    4.30
  -1   2  -9   18.50    2.60
   1  -2   9    9.20    2.70
   1  -2   9   12.10    3.70
  -2   2  -9    1.60    3.10
  -2   2  -9   -3.10    2.50
   2  -2   9   -1.40    3.20
   2  -2   9    0.40    2.80
  -3   2  -9   -9.40    3.70
  -3   2  -9    5.20    3.30
   3  -2   9   -1.80    4.20
   3  -2   9   -0.40    3.60
  -4   2  -9    1.10    4.50
  -4   2  -9    4.40    5.30
  -4   2  -9   -2.70    5.30
   4  -2   9    6.90    4.50
   4  -2   9    0.10    6.00
   8   1  -9   11.20    3.40
  -8  -1   9    5.30    5.80
  -8  -1   9    6.80    6.30
  -8  -1   9    8.30    4.90
   7   1  -9    8.10    3.90
   7   1  -9   -1.10    2.90
  -7  -1   9   -2.60    3.70
  -7  -1   9   -0.80    4.70
  -7  -1   9   -1.90    3.60
  -7  -1   9   -0.60    4.90
  -6  -1   9    3.30    2.70
  -6  -1   9    3.50    4.20
  -6  -1   9    2.70    4.50
  -6  -1   9    3.20    3.60
   5   1  -9   80.29    4.90
  -5  -1   9   87.49    7.80
  -5  -1   9   85.39    4.40
  -5  -1   9   86.39    7.10
   4   1  -9   -2.10    2.60
   4   1  -9   -2.00    1.70
  -4  -1   9    1.00    3.40
  -4  -1   9    0.20    3.50
   3   1  -9    0.50    2.70
   3   1  -9    2.10    1.70
  -3  -1   9    2.30    3.50
  -3  -1   9    3.10    2.90
   2   1  -9   37.20    4.70
   2   1  -9   33.60    3.30
  -2  -1   9   34.70    3.50
  -2  -1   9   32.70    4.20
  -2  -1   9   37.10    5.10
   1   1  -9   25.10    2.90
   1   1  -9   24.90    3.70
  -1  -1   9   25.50    3.90
  -1  -1   9   27.20    3.20
   0   1  -9    3.30    1.80
   0   1  -9   -0.80    1.40
   0  -1   9   -0.50    2.60
   0  -1   9    0.80    3.00
  -1   1  -9   40.10    3.80
   1  -1   9   38.70    5.10
   1  -1   9   43.20    5.80
  -2   1  -9    7.30    2.80
  -2   1  -9    3.00    3.30
   2  -1   9    0.70    4.00
   2  -1   9    2.20    3.60
  -3   1  -9   -2.00    3.20
  -3   1  -9    2.20    4.60
   3  -1   9    8.00    5.10
   3  -1   9    5.30    4.40
  -4   1  -9    2.30    6.50
   4  -1   9   -2.50    7.20
   4  -1   9    0.40    5.50
   8   0  -9    4.70    3.40
  -8   0   9    3.80    5.70
  -8   0   9   -1.10    3.60
  -8   0   9    4.30    5.70
  -8   0   9    7.10    3.40
  -8   0   9    2.20    4.20
   7   0  -9    0.60    2.90
   7   0  -9    6.30    3.70
  -7   0   9   -5.00    2.60
  -7   0   9   -0.10    3.00
  -7   0   9   -1.30    4.80
  -7   0   9    1.00    3.70
  -7   0   9   -2.90    4.70
   6   0  -9   36.50    3.50
  -6   0   9   48.60    6.60
  -6   0   9   43.50    6.00
  -6   0   9   40.20    3.70
  -6   0   9   32.10    3.20
   5   0  -9   15.80    3.80
  -5   0   9   13.90    4.00
  -5   0   9   13.40    3.90
   4   0  -9   -2.40    2.70
   4   0  -9    0.30    1.60
  -4   0   9    4.90    3.40
   3   0  -9   36.90    5.30
   3   0  -9   40.50    3.40
  -3   0   9   36.90    4.80
  -3   0   9   36.20    4.90
  -3   0   9   35.70    4.50
   2   0  -9   -0.20    2.80
   2   0  -9   -1.80    1.60
  -2   0   9    2.00    3.40
  -2   0   9   -3.30    2.40
  -2   0   9   -2.60    2.80
   1   0  -9   21.70    2.80
  -1   0   9   30.10    4.70
  -1   0   9   26.90    3.90
  -1   0   9   27.80    3.60
   0   0  -9    1.40    1.50
   0   0   9   -3.90    3.00
   0   0   9   -2.10    2.80
  -1   0  -9    5.70    2.30
   1   0   9    6.60    3.40
   1   0   9    4.60    3.40
  -2   0  -9   28.40    4.50
  -2   0  -9   34.10    4.10
   2   0   9   28.30    5.00
   2   0   9   31.00    5.30
  -3   0  -9   -1.80    5.60
  -3   0  -9   -5.20    4.20
   3   0   9   -9.70    5.30
   3   0   9    4.20    5.00
   9  -1  -9    7.80    3.80
  -9   1   9    7.90    5.60
  -9   1   9   17.50    7.30
  -9   1   9    7.80   10.30
   8  -1  -9   -3.40    3.50
  -8   1   9   -7.70    5.70
  -8   1   9    5.60    5.70
  -8   1   9    0.20    3.60
  -8   1   9    0.80    3.00
  -8   1   9   -2.60    3.30
   7  -1  -9   26.40    5.00
  -7   1   9   22.10    2.90
  -7   1   9   19.60    2.50
  -7   1   9    9.80    5.10
  -7   1   9   22.20    4.40
   6  -1  -9    8.50    3.20
   6  -1  -9   -5.40    1.80
  -6   1   9   -0.60    3.70
  -6   1   9   -3.90    3.70
   5  -1  -9   16.60    2.50
   5  -1  -9   12.30    3.60
  -5   1   9   17.60    3.90
  -5   1   9   16.80    4.20
   4  -1  -9   23.30    2.90
   4  -1  -9   23.70    4.00
  -4   1   9   22.60    4.60
  -4   1   9   18.30    3.60
   3  -1  -9   40.00    3.60
   3  -1  -9   41.60    5.60
  -3   1   9   33.20    4.90
  -3   1   9   47.10    5.40
  -3   1   9   37.00    4.30
   2  -1  -9   64.89    4.20
   2  -1  -9   81.99    6.90
  -2   1   9   61.89    6.00
  -2   1   9   64.69    7.10
  -2   1   9   58.39    5.80
   1  -1  -9    2.50    2.00
  -1   1   9    2.80    3.30
  -1   1   9    5.50    3.20
  -1   1   9    3.70    3.70
   0  -1  -9   39.50    3.90
   0  -1  -9   44.80    3.30
   0   1   9   35.90    5.30
   0   1   9   37.00    4.80
   0   1   9   41.40    5.60
  -1  -1  -9    0.10    2.60
  -1  -1  -9    4.10    3.60
   1   1   9   -2.50    3.60
   1   1   9    0.10    3.80
  -2  -1  -9    5.30    4.70
  -2  -1  -9    9.30    4.60
   2   1   9   -2.90    4.70
   2   1   9    6.20    4.60
  -3  -1  -9    7.80    5.00
  -3  -1  -9    6.90    6.70
   3   1   9    4.00    6.20
  -9   2   9   -0.60    7.20
   8  -2  -9   14.30    4.50
  -8   2   9   11.50    2.80
  -8   2   9   15.80    6.50
  -8   2   9   15.60    3.30
   7  -2  -9    6.20    3.30
   7  -2  -9   -0.20    4.10
  -7   2   9    5.90    4.20
  -7   2   9    4.10    4.70
   6  -2  -9    4.60    2.30
  -6   2   9   -0.40    4.00
  -6   2   9    1.90    3.80
   5  -2  -9    3.20    3.50
   5  -2  -9   -0.80    2.20
  -5   2   9   -0.20    4.00
  -5   2   9   -2.20    3.20
   4  -2  -9    9.00    3.50
   4  -2  -9    7.10    2.30
  -4   2   9    7.00    4.20
  -4   2   9    2.70    2.90
  -4   2   9    6.90    3.00
   3  -2  -9    0.50    3.60
   3  -2  -9   -2.30    2.00
  -3   2   9   -0.90    3.90
  -3   2   9   -2.50    2.90
  -3   2   9    1.10    3.20
   2  -2  -9   -0.20    1.80
  -2   2   9    1.90    3.50
  -2   2   9   -2.60    3.80
  -2   2   9    0.30    3.20
   1  -2  -9    3.50    3.20
   1  -2  -9    5.10    2.00
  -1   2   9   -4.20    3.80
  -1   2   9    1.40    3.50
  -1   2   9   -4.60    3.40
   0  -2  -9   47.90    4.50
   0  -2  -9   41.30    4.90
   0  -2  -9   46.80    4.10
   0   2   9   37.90    5.50
   0   2   9   45.40    6.20
   0   2   9   50.69    5.90
  -1  -2  -9    1.10    4.00
  -1  -2  -9   -4.00    3.80
  -1  -2  -9    2.90    3.20
   1   2   9    2.30    4.70
   1   2   9    5.20    5.50
   1   2   9    3.50    4.70
  -2  -2  -9   -2.60    4.30
  -2  -2  -9    1.70    5.30
   2   2   9    4.60    6.50
   2   2   9    0.60    5.50
   8  -3  -9    3.80    3.80
   8  -3  -9    4.00    3.60
  -8   3   9    7.50    5.70
  -8   3   9    0.00    2.10
   7  -3  -9   10.70    4.20
  -7   3   9   10.70    4.60
  -7   3   9   14.90    4.50
   6  -3  -9    4.40    3.70
   6  -3  -9    0.70    2.60
  -6   3   9    4.60    3.80
  -6   3   9   -1.20    4.10
   5  -3  -9    2.90    2.20
   5  -3  -9    4.00    3.40
  -5   3   9    3.70    4.50
  -5   3   9    7.70    3.70
   4  -3  -9   18.10    3.20
  -4   3   9   27.20    5.40
  -4   3   9   12.90    4.00
  -4   3   9   18.90    5.00
   3  -3  -9    1.20    4.50
   3  -3  -9    1.50    2.30
  -3   3   9    4.70    3.40
  -3   3   9   -2.80    3.80
  -3   3   9    1.00    4.50
   2  -3  -9   14.40    3.10
   2  -3  -9   24.10    4.50
  -2   3   9   15.60    4.20
  -2   3   9   17.50    4.80
  -2   3   9   28.60    5.50
   1  -3  -9    6.60    3.40
   1  -3  -9   -1.20    2.10
   1  -3  -9    2.00    2.50
   1  -3  -9    3.60    1.90
  -1   3   9    0.20    4.70
  -1   3   9   -1.30    4.00
  -1   3   9    0.60    4.10
   0  -3  -9    9.90    4.40
   0  -3  -9    1.50    3.40
   0  -3  -9    5.10    3.00
   0   3   9    9.10    4.80
   0   3   9   -4.90    5.10
   0   3   9    9.00    4.80
  -1  -3  -9    1.50    4.80
   1   3   9    5.30    6.20
   9  -4  -9   -3.50    3.60
   8  -4  -9   -2.40    4.30
   8  -4  -9    1.20    3.90
  -8   4   9   -1.30    4.90
   7  -4  -9    5.70    4.20
   7  -4  -9   -2.50    4.60
  -7   4   9   -3.20    4.30
   6  -4  -9   -1.50    2.70
   6  -4  -9   -3.10    4.00
  -6   4   9   -0.30    4.90
  -6   4   9    8.90    3.80
   5  -4  -9   -3.40    2.40
  -5   4   9   -2.00    3.80
  -5   4   9   -0.70    3.70
  -5   4   9   -1.10    4.90
   4  -4  -9    1.60    4.40
   4  -4  -9    3.90    2.70
  -4   4   9    7.30    4.30
  -4   4   9    0.10    4.30
  -4   4   9   -0.60    4.90
   3  -4  -9    4.80    4.50
   3  -4  -9    5.10    2.80
  -3   4   9    3.20    4.50
  -3   4   9    4.10    5.10
  -3   4   9    9.60    4.30
   2  -4  -9    8.90    2.90
   2  -4  -9   17.40    4.80
  -2   4   9    3.10    5.00
  -2   4   9   11.20    4.60
  -2   4   9    5.50    4.80
   1  -4  -9    1.00    3.10
   1  -4  -9    7.00    4.00
  -1   4   9   -6.10    4.70
  -1   4   9   -3.20    5.00
  -1   4   9   -0.20    5.60
   0  -4  -9    3.50    4.40
   0   4   9    5.60    6.20
   8  -5  -9    7.30    4.20
   8  -5  -9    4.90    4.70
   7  -5  -9   -1.50    4.60
  -7   5   9    8.80    4.80
   6  -5  -9   -1.70    3.10
  -6   5   9   -1.20    3.80
  -6   5   9   -2.50    4.90
   5  -5  -9   11.30    5.00
   5  -5  -9    1.40    2.80
  -5   5   9   -5.60    3.70
  -5   5   9    1.60    6.10
  -5   5   9    4.80    4.80
   4  -5  -9    7.50    5.00
   4  -5  -9    0.30    2.90
  -4   5   9    1.10    5.70
  -4   5   9   -2.90    3.90
  -4   5   9    4.30    5.10
   3  -5  -9   -1.80    3.30
   3  -5  -9    5.30    5.40
  -3   5   9   -0.70    5.10
  -3   5   9    4.60    5.70
  -3   5   9    1.60    4.50
   2  -5  -9   -0.30    3.10
  -2   5   9    4.50    6.10
  -2   5   9   -2.30    5.50
   1  -5  -9    1.70    4.10
  -1   5   9   -5.20    6.50
   7  -6  -9   10.30    6.00
   6  -6  -9   16.60    6.00
   6  -6  -9   16.40    4.00
  -6   6   9   16.30    6.70
   5  -6  -9    3.80    6.40
   5  -6  -9    3.90    3.40
  -5   6   9    4.50    6.80
   4  -6  -9    4.50    3.60
  -4   6   9   -0.30    6.10
  -3   6   9    3.50    6.80
   1   8 -10    5.90    3.90
  -1  -8  10   13.10    6.00
  -1  -8  10    4.20    7.60
   0   8 -10   -4.70    4.40
   0   8 -10    0.40    3.50
   0  -8  10    3.40    5.70
   0  -8  10    2.80    6.20
  -1   8 -10    2.50    4.50
  -1   8 -10    0.60    3.40
   1  -8  10   -0.20    6.40
   1  -8  10   -2.30    4.90
  -2   8 -10    2.60    3.70
  -2   8 -10   10.60    5.00
   2  -8  10   -0.10    6.00
   2  -8  10   -4.90    5.60
  -3   8 -10    4.80    5.20
   3  -8  10   -3.90    6.50
   3   7 -10    5.90    4.70
  -3  -7  10    7.40    7.10
  -3  -7  10   -0.20    5.90
  -3  -7  10    4.40    5.60
  -2  -7  10    1.10    6.10
  -2  -7  10   -3.60    5.40
  -2  -7  10    1.00    5.50
   1   7 -10    8.90    4.40
   1   7 -10   -4.30    3.00
  -1  -7  10    4.40    5.00
  -1  -7  10   -4.90    5.30
   0   7 -10   17.00    4.30
   0   7 -10   20.50    3.70
   0  -7  10    7.40    5.10
   0  -7  10   17.70    5.50
  -1   7 -10   48.70    5.50
  -1   7 -10   50.99    5.50
   1  -7  10   48.20    6.30
   1  -7  10   36.00    5.90
  -2   7 -10   16.70    3.90
   2  -7  10   22.80    5.90
   2  -7  10    8.30    4.40
  -3   7 -10    2.40    4.20
  -3   7 -10    2.20    4.80
   3  -7  10   10.10    5.20
   3  -7  10   -0.90    5.40
  -4   7 -10   -1.50    5.50
   4   6 -10   11.30    4.40
  -4  -6  10    8.20    5.50
  -4  -6  10    2.00    6.50
  -4  -6  10    4.40    4.50
  -4  -6  10    6.20    5.60
   3   6 -10    8.00    4.30
  -3  -6  10   15.60    3.50
  -3  -6  10   11.40    6.50
  -3  -6  10   10.40    5.50
  -3  -6  10   14.20    5.30
   2   6 -10    5.10    2.90
  -2  -6  10    8.90    5.40
  -2  -6  10   10.30    6.10
  -2  -6  10    3.90    1.90
  -2  -6  10    6.40    4.40
  -2  -6  10    7.90    2.20
   1   6 -10   10.00    3.20
   1   6 -10   16.90    3.60
  -1  -6  10    9.80    4.80
   0   6 -10    6.40    3.20
   0   6 -10    1.80    2.90
   0  -6  10    3.50    4.60
   0  -6  10    1.80    6.90
  -1   6 -10    5.00    3.30
  -1   6 -10    7.20    3.00
   1  -6  10    7.90    4.20
   1  -6  10    0.60    4.30
  -2   6 -10   -5.70    3.10
  -2   6 -10   -1.50    3.50
   2  -6  10   -5.50    4.20
   2  -6  10   -3.20    3.90
  -3   6 -10    7.00    3.90
  -3   6 -10   -3.00    4.20
   3  -6  10   -1.50    4.60
  -4   6 -10   -0.90    4.90
   5   5 -10    4.00    3.90
   5   5 -10    5.90    3.50
  -5  -5  10   -1.80    9.70
  -5  -5  10    5.00    5.40
  -5  -5  10   -0.50    4.80
  -5  -5  10   -2.00    5.10
   4   5 -10    3.90    4.10
  -4  -5  10    7.40    5.80
  -4  -5  10    3.30    5.10
  -4  -5  10   14.20    5.40
  -4  -5  10    6.60    4.30
  -3  -5  10   -1.90    2.80
  -3  -5  10    4.50    5.50
  -3  -5  10    2.90    4.80
  -3  -5  10    4.40    3.90
   2   5 -10   -0.70    2.60
  -2  -5  10    6.10    2.50
  -2  -5  10    8.50    4.80
  -2  -5  10    6.50    2.20
  -2  -5  10    0.90    4.70
  -2  -5  10    2.30    3.50
   1   5 -10   37.20    4.90
   1   5 -10   41.60    4.60
  -1  -5  10   34.50    3.10
  -1  -5  10   34.60    4.30
  -1  -5  10   37.40    5.80
  -1  -5  10   32.60    2.70
   0   5 -10   54.49    5.30
   0   5 -10   49.10    4.70
   0  -5  10   47.60    6.30
   0  -5  10   53.29    7.50
  -1   5 -10   -0.50    3.00
  -1   5 -10    1.30    2.70
   1  -5  10   -1.80    3.80
   1  -5  10    1.70    3.60
  -2   5 -10   -1.60    3.60
  -2   5 -10    9.30    3.60
   2  -5  10   -2.10    3.60
   2  -5  10    2.10    1.50
  -3   5 -10    0.90    3.90
   3  -5  10    0.20    2.30
   3  -5  10   -6.50    4.20
   6   4 -10    0.60    3.50
   6   4 -10    1.80    3.80
  -6  -4  10    7.40    5.70
  -6  -4  10    5.90    5.50
  -6  -4  10    3.80    6.00
  -6  -4  10    4.10    6.30
   5   4 -10    7.70    4.70
  -5  -4  10    9.20    4.40
  -5  -4  10    9.80    4.80
  -5  -4  10   11.10    5.80
  -5  -4  10   14.00    5.60
   4   4 -10    3.70    3.70
  -4  -4  10   -1.60    4.50
  -4  -4  10   -0.70    5.00
  -4  -4  10    0.40    3.70
  -4  -4  10   -0.60    3.80
   3   4 -10   25.30    3.40
  -3  -4  10   16.30    3.50
  -3  -4  10   10.70    5.00
  -3  -4  10   15.80    3.40
  -3  -4  10   12.40    5.10
   2   4 -10   -1.80    2.30
  -2  -4  10   -1.00    2.20
  -2  -4  10    3.00    2.90
  -2  -4  10    4.20    4.50
  -2  -4  10   -1.70    4.40
  -2  -4  10    4.40    2.80
   1   4 -10   53.09    4.40
   1   4 -10   53.99    4.50
  -1  -4  10   50.69    3.90
  -1  -4  10   59.59    5.30
  -1  -4  10   53.29    6.50
   0   4 -10    1.20    3.10
   0   4 -10    0.00    2.10
   0   4 -10   -1.80    2.40
   0  -4  10   -2.30    1.80
   0  -4  10   -6.10    3.40
  -1   4 -10   29.10    3.40
  -1   4 -10   31.60    3.80
   1  -4  10   30.70    3.80
   1  -4  10   29.00    5.00
  -2   4 -10   -1.40    3.60
  -2   4 -10   -5.70    2.90
   2  -4  10   -0.80    2.70
   2  -4  10    1.40    4.10
  -3   4 -10   -3.80    5.30
  -3   4 -10    2.20    3.50
   3  -4  10   12.20    4.70
   3  -4  10   -0.50    3.40
   4  -4  10   -3.40    4.10
   6   3 -10   27.70    5.00
   6   3 -10   17.30    3.90
  -6  -3  10   13.50    5.60
  -6  -3  10   21.20    5.80
  -6  -3  10   19.20    6.00
  -6  -3  10   19.50    5.10
   5   3 -10   -9.10    3.50
  -5  -3  10    0.30    4.10
  -5  -3  10   -1.40    4.60
  -5  -3  10    1.20    3.30
  -5  -3  10    3.10    4.70
  -4  -3  10    9.30    4.70
  -4  -3  10    9.40    3.00
  -4  -3  10   13.30    3.90
  -4  -3  10   10.50    4.60
   3   3 -10    7.30    2.40
  -3  -3  10    8.00    4.60
  -3  -3  10    8.40    3.30
  -3  -3  10   10.70    2.60
  -3  -3  10    5.40    4.50
   2   3 -10    5.20    2.10
  -2  -3  10    5.20    2.50
  -2  -3  10    9.90    4.50
  -2  -3  10    3.90    3.10
  -2  -3  10    3.90    4.50
   1   3 -10   16.40    2.30
   1   3 -10   16.10    2.50
  -1  -3  10   17.30    2.70
  -1  -3  10   19.70    4.90
   0   3 -10   21.80    3.50
   0   3 -10   12.20    2.30
   0   3 -10   16.90    2.50
   0  -3  10   19.50    3.00
   0  -3  10   16.80    4.10
  -1   3 -10    0.50    2.60
  -1   3 -10    6.90    3.40
   1  -3  10    0.00    2.60
   1  -3  10    1.60    3.80
  -2   3 -10    7.70    3.10
  -2   3 -10   15.00    3.70
   2  -3  10    6.90    3.10
  -3   3 -10    3.50    3.70
   3  -3  10   -2.80    5.10
   3  -3  10    5.20    4.20
   4  -3  10    2.10    5.10
   7   2 -10    0.40    3.30
   7   2 -10   10.40    4.70
  -7  -2  10    0.40    5.80
  -7  -2  10    1.60    5.30
  -7  -2  10    2.10    4.70
  -7  -2  10   -1.90    5.40
   6   2 -10    5.40    4.20
  -6  -2  10   -1.60    3.50
  -6  -2  10    3.30    5.10
  -6  -2  10   -2.50    5.00
  -6  -2  10    4.40    4.90
   5   2 -10   33.30    5.00
  -5  -2  10   30.40    5.60
  -5  -2  10   27.20    3.20
  -5  -2  10   28.60    5.00
  -5  -2  10   36.80    6.00
   4   2 -10    0.70    2.00
  -4  -2  10   -2.00    1.70
  -4  -2  10    5.40    4.30
  -4  -2  10    1.60    4.30
   3   2 -10    4.80    3.50
   3   2 -10    6.10    2.00
  -3  -2  10    8.80    4.60
  -3  -2  10    6.60    4.20
   2   2 -10    6.20    1.80
  -2  -2  10    3.20    4.00
  -2  -2  10    1.50    2.90
  -2  -2  10   -0.40    3.80
   1   2 -10  125.29    5.90
  -1  -2  10  132.59    8.80
  -1  -2  10  125.29    6.40
   0   2 -10   35.30    3.80
   0   2 -10   34.50    4.30
   0   2 -10   34.90    3.30
   0  -2  10   32.40    3.70
   0  -2  10   32.50    5.30
  -1   2 -10   -2.20    2.30
  -1   2 -10    4.10    3.70
   1  -2  10    0.90    3.50
  -2   2 -10    1.10    3.20
  -2   2 -10    0.00    3.50
   2  -2  10    4.50    3.90
   2  -2  10    1.90    4.00
  -3   2 -10   -0.60    3.70
   3  -2  10   -1.50    5.60
   3  -2  10   -1.10    4.50
   7   1 -10    8.10    4.10
  -7  -1  10   -6.40    5.30
  -7  -1  10    0.00    3.60
  -7  -1  10    8.00    5.60
  -7  -1  10   -7.40    5.70
   6   1 -10   -3.30    3.60
  -6  -1  10    0.80    2.50
  -6  -1  10   -0.10    5.00
  -6  -1  10    2.80    5.00
   5   1 -10    2.00    3.90
   5   1 -10   -3.80    3.20
  -5  -1  10    3.70    4.50
  -5  -1  10    9.00    4.60
   4   1 -10    3.70    3.60
   4   1 -10    4.90    2.00
  -4  -1  10   -0.50    4.40
  -4  -1  10    1.80    4.10
   3   1 -10   17.00    2.80
   3   1 -10   10.70    4.30
  -3  -1  10   11.90    3.20
  -3  -1  10   12.00    4.10
  -3  -1  10   17.60    4.80
   2   1 -10   16.70    2.60
  -2  -1  10   14.90    3.90
  -2  -1  10   12.80    3.30
  -2  -1  10   14.80    4.60
   1   1 -10   15.10    2.70
   1   1 -10    4.50    3.50
  -1  -1  10   15.20    3.90
  -1  -1  10   12.30    4.80
  -1  -1  10    7.00    3.30
   0   1 -10    4.30    3.50
   0   1 -10   13.30    1.90
   0  -1  10   15.60    3.60
   0  -1  10   15.20    4.00
  -1   1 -10    1.80    2.60
  -1   1 -10   -0.50    3.80
   1  -1  10    0.40    3.70
   1  -1  10   -4.20    4.10
  -2   1 -10    4.90    3.20
   2  -1  10    4.00    4.50
   2  -1  10   13.30    5.20
  -3   1 -10    2.60    4.30
   3  -1  10    2.60    5.80
   8   0 -10   -0.50    4.30
  -8   0  10    2.00    6.70
  -8   0  10   15.70    7.10
   7   0 -10    5.60    4.40
  -7   0  10   11.40    6.00
  -7   0  10    9.40    5.10
  -7   0  10    6.20    2.70
  -7   0  10    2.30    5.70
  -7   0  10   -0.30    2.20
   6   0 -10    6.70    3.70
   6   0 -10   14.10    4.30
  -6   0  10   11.00    6.30
  -6   0  10   18.00    5.20
   5   0 -10    9.80    3.60
   5   0 -10    2.20    4.80
  -5   0  10    1.90    4.20
  -5   0  10    2.90    4.90
   4   0 -10    7.00    2.00
   4   0 -10   10.30    4.10
  -4   0  10    6.70    4.70
  -4   0  10    3.80    3.70
   3   0 -10   48.40    3.70
  -3   0  10   47.30    4.90
  -3   0  10   54.29    6.10
  -3   0  10   42.80    5.90
   2   0 -10   18.00    2.60
  -2   0  10   12.70    5.00
  -2   0  10   14.80    3.80
  -2   0  10   17.40    4.00
   1   0 -10   -1.50    3.40
   1   0 -10    1.80    2.40
  -1   0  10   -2.70    4.30
  -1   0  10    4.60    3.40
  -1   0  10   -7.20    3.30
   0   0 -10    4.40    3.80
   0   0 -10    0.30    1.60
   0   0 -10   -0.20    1.90
   0   0 -10   -1.40    3.40
   0   0  10    4.40    4.20
   0   0  10    2.60    3.70
  -1   0 -10   12.40    4.00
  -1   0 -10   -3.10    2.50
   1   0  10    1.20    4.20
   1   0  10   -4.70    4.60
  -2   0 -10    2.30    3.60
   2   0  10    1.60    6.70
   2   0  10   -0.90    5.30
   8  -1 -10    2.50    4.40
  -8   1  10   -2.50    7.20
  -8   1  10    0.30    6.90
   7  -1 -10   -0.60    4.00
  -7   1  10    0.00    4.80
  -7   1  10    6.60    5.80
   6  -1 -10    3.70    3.60
   6  -1 -10   -5.80    3.60
  -6   1  10   -3.40    4.30
  -6   1  10    5.30    4.70
   5  -1 -10    6.80    3.70
  -5   1  10    1.90    5.20
  -5   1  10    9.80    4.30
   4  -1 -10    4.50    2.00
   4  -1 -10    5.20    4.80
  -4   1  10    0.80    4.60
  -4   1  10    1.40    3.30
  -4   1  10    2.60    3.10
   3  -1 -10    5.50    1.90
  -3   1  10    4.80    3.60
  -3   1  10   10.70    5.20
  -3   1  10    5.50    4.00
   2  -1 -10    0.20    3.80
   2  -1 -10    0.50    2.30
  -2   1  10   -1.40    3.50
  -2   1  10    5.20    4.60
  -2   1  10   -0.80    3.30
   1  -1 -10    0.40    3.70
   1  -1 -10   -1.00    3.50
  -1   1  10   -0.50    4.40
  -1   1  10   -1.10    3.90
  -1   1  10   -5.40    4.00
   0  -1 -10    9.40    2.40
   0  -1 -10    9.10    4.00
   0  -1 -10    4.20    1.80
   0   1  10    3.60    4.30
   0   1  10   10.80    5.70
   0   1  10   14.40    4.60
  -1  -1 -10   -0.20    3.10
  -1  -1 -10   -0.80    3.60
   1   1  10    2.20    7.70
   1   1  10    0.70    6.20
   1   1  10   -7.80    4.80
   8  -2 -10   11.90    4.60
  -8   2  10   10.40    7.80
  -8   2  10    3.10    4.90
   7  -2 -10    4.40    3.90
   7  -2 -10   -2.80    4.00
  -7   2  10    5.50    5.50
   6  -2 -10   -3.80    4.10
   6  -2 -10    1.90    3.90
  -6   2  10    6.10    5.10
  -6   2  10    2.60    4.20
   5  -2 -10    3.00    6.80
   5  -2 -10    4.40    4.30
  -5   2  10    5.30    4.00
  -5   2  10   -2.40    4.90
   4  -2 -10    0.60    2.50
   4  -2 -10   -1.10    6.60
  -4   2  10   -3.90    3.40
  -4   2  10    3.40    5.00
  -4   2  10   -4.50    3.90
   3  -2 -10   -0.50    2.90
   3  -2 -10    8.60    4.60
  -3   2  10    4.60    4.80
  -3   2  10    2.80    3.60
  -3   2  10   -1.00    4.20
   2  -2 -10    8.90    4.60
   2  -2 -10    4.40    4.70
  -2   2  10    6.80    4.30
  -2   2  10    0.40    4.40
  -2   2  10    5.40    4.90
   1  -2 -10    5.60    3.80
   1  -2 -10   -4.20    3.90
  -1   2  10   -1.40    4.30
  -1   2  10    1.40    5.20
  -1   2  10   -4.70    4.80
   0  -2 -10    1.60    2.40
   0  -2 -10    0.10    2.80
   0   2  10   -1.50    5.20
   0   2  10   -4.60    6.20
   0   2  10   -9.90    4.70
   1   2  10    1.60    7.00
   8  -3 -10    1.10    4.60
   8  -3 -10    6.30    5.70
   7  -3 -10    5.70    4.30
   7  -3 -10    8.80    4.90
  -7   3  10    8.20    5.20
  -7   3  10    4.90    5.80
   6  -3 -10   11.90    5.50
   6  -3 -10    5.10    4.10
  -6   3  10   10.80    5.80
  -6   3  10   -4.70    4.50
   5  -3 -10   27.50    4.80
  -5   3  10   42.70    5.60
  -5   3  10   39.60    6.60
  -5   3  10   40.60    5.70
   4  -3 -10   -4.20    4.20
  -4   3  10    4.80    4.30
  -4   3  10    5.50    5.50
  -4   3  10    0.60    4.70
   3  -3 -10    9.30    4.10
   3  -3 -10   -2.10    4.90
  -3   3  10    3.00    4.60
  -3   3  10    9.20    5.80
  -3   3  10    8.20    4.80
   2  -3 -10    6.40    3.90
   2  -3 -10    0.30    4.80
  -2   3  10    2.80    5.40
  -2   3  10    6.70    5.10
  -2   3  10    5.50    5.70
   1  -3 -10    0.10    4.10
  -1   3  10    3.90    6.40
  -1   3  10  -10.70    5.40
  -1   3  10    1.90    5.90
   0   3  10   -2.50    6.60
   7  -4 -10    1.90    4.30
   6  -4 -10   -2.00    3.90
   6  -4 -10    8.10    5.00
  -6   4  10    0.30    4.80
  -6   4  10    2.90   11.00
   5  -4 -10    8.00    3.80
   5  -4 -10   -0.80    5.00
  -5   4  10   -8.70    4.70
  -5   4  10   -0.50    5.00
  -5   4  10   -4.80    6.50
   4  -4 -10    2.50    4.10
   4  -4 -10    7.70    5.80
  -4   4  10   -2.00    6.10
  -4   4  10    7.50    5.10
  -4   4  10    2.20    5.30
   3  -4 -10    2.50    4.20
   3  -4 -10    7.90    6.60
  -3   4  10    3.00    5.70
  -3   4  10   11.60    6.90
  -3   4  10    5.70    7.10
   2  -4 -10    8.40    4.40
  -2   4  10    1.70    6.30
   6  -5 -10   -4.40    4.20
   6  -5 -10   -4.00    5.80
   5  -5 -10    6.60    6.10
   5  -5 -10    7.10    4.50
  -5   5  10   12.90    7.40
   4  -5 -10    7.60    4.60
  -4   5  10    2.60    7.30
   1   7 -11   -3.20    4.00
  -1  -7  11  -10.00    6.20
  -1  -7  11   -0.30    5.40
   0   7 -11   10.80    4.60
   0   7 -11    9.10    4.70
   0  -7  11    9.40    5.70
  -1   7 -11    3.20    5.40
  -1   7 -11    8.20    4.50
   1  -7  11   -2.90    5.60
  -2   7 -11   25.90    5.40
   2  -7  11   11.50    6.20
   3   6 -11   -0.50    4.20
  -3  -6  11   -0.20    7.00
  -3  -6  11   -5.60    5.10
  -3  -6  11   -4.00    6.40
   2   6 -11    5.10    4.10
  -2  -6  11    2.20    6.30
  -2  -6  11    0.20    4.70
  -2  -6  11   -7.90    6.00
   1   6 -11    0.20    3.80
   1   6 -11    3.40    3.80
  -1  -6  11    3.50    6.00
   0   6 -11    1.20    4.30
   0   6 -11    6.40    3.70
   0  -6  11   12.40    5.70
   0  -6  11    7.60    5.80
  -1   6 -11    6.70    4.00
  -1   6 -11   18.10    4.80
   1  -6  11   11.20    5.20
   1  -6  11   11.10    5.70
  -2   6 -11   10.30    4.50
  -2   6 -11    0.80    4.50
   4   5 -11   -4.40    4.00
  -4  -5  11    7.30    8.90
  -4  -5  11    6.70    7.00
  -4  -5  11    6.20    6.40
  -4  -5  11    3.90    4.60
   3   5 -11   15.40    4.80
  -3  -5  11    9.40    4.40
  -3  -5  11    9.20    6.00
  -3  -5  11   -0.30    6.10
  -3  -5  11    8.90    3.70
   2   5 -11   -0.60    3.50
  -2  -5  11   -2.40    5.90
  -2  -5  11    0.20    5.90
  -2  -5  11   -2.30    3.90
  -2  -5  11    0.70    2.90
  -2  -5  11   -2.00    2.30
   1   5 -11    0.30    3.80
   1   5 -11    1.10    3.20
  -1  -5  11   -5.70    4.90
  -1  -5  11    2.00    2.10
  -1  -5  11    3.00    4.00
  -1  -5  11   -1.80    1.80
   0   5 -11   50.59    5.60
   0   5 -11   48.40    5.60
   0  -5  11   49.80    6.80
   0  -5  11   51.09    5.30
  -1   5 -11   16.80    4.50
  -1   5 -11   10.60    4.70
   1  -5  11    5.50    4.40
  -2   5 -11   -3.10    4.20
  -2   5 -11    3.60    4.20
  -3   5 -11   -3.10    4.90
   5   4 -11   -3.60    4.10
  -5  -4  11    4.90    6.30
  -5  -4  11   -0.80    6.50
  -5  -4  11   -5.60    4.70
  -5  -4  11    0.40    5.40
   4   4 -11    8.00    4.30
  -4  -4  11   11.90    6.30
  -4  -4  11   19.90    4.70
  -4  -4  11   13.40    4.10
  -4  -4  11   13.20    6.20
   3   4 -11   13.20    4.00
  -3  -4  11   13.30    5.80
  -3  -4  11   16.90    3.70
  -3  -4  11   20.10    4.00
  -3  -4  11    7.00    5.80
  -3  -4  11   13.40    3.40
   2   4 -11    0.80    3.60
  -2  -4  11    4.40    2.80
  -2  -4  11    2.60    3.40
  -2  -4  11    1.20    5.00
  -2  -4  11   -2.70    5.40
  -2  -4  11    5.80    3.60
   1   4 -11    8.80    2.70
   1   4 -11    1.80    3.60
  -1  -4  11    5.60    2.60
  -1  -4  11   -3.50    4.90
   0   4 -11    9.80    4.40
   0   4 -11    8.40    3.00
   0   4 -11    9.70    4.40
   0  -4  11   10.10    2.80
   0  -4  11    6.60    5.10
  -1   4 -11   -0.20    3.30
  -1   4 -11    0.60    4.00
   1  -4  11    4.80    2.90
   1  -4  11    2.50    4.40
  -2   4 -11    9.50    4.30
  -2   4 -11   -0.30    4.00
   2  -4  11    0.50    3.70
   6   3 -11   16.70    5.10
  -6  -3  11   17.50    7.40
  -6  -3  11   17.80    6.70
  -6  -3  11   15.00    6.40
   5   3 -11   -2.70    4.00
  -5  -3  11    8.00    6.30
  -5  -3  11    7.80    4.70
  -5  -3  11    0.70    6.20
  -5  -3  11    4.00    3.50
   4   3 -11   -2.10    3.90
  -4  -3  11    0.20    5.40
  -4  -3  11    1.40    5.70
  -4  -3  11    2.80    2.70
   3   3 -11    1.30    3.40
  -3  -3  11    1.20    2.10
  -3  -3  11    3.30    3.20
  -3  -3  11   -2.40    5.30
  -3  -3  11   -4.40    4.80
   2   3 -11   19.00    4.90
   2   3 -11   21.20    4.80
  -2  -3  11   19.50    3.40
  -2  -3  11   13.30    5.30
  -2  -3  11   24.30    5.70
   1   3 -11   -0.60    3.70
   1   3 -11   -7.60    4.00
  -1  -3  11    4.40    3.00
  -1  -3  11   -6.70    4.80
   0   3 -11   11.10    4.00
   0   3 -11   17.60    4.60
   0   3 -11   11.80    2.50
   0  -3  11   15.90    5.10
   0  -3  11    5.60    3.10
  -1   3 -11    0.60    3.70
  -1   3 -11   -0.70    3.10
   1  -3  11    1.10    3.60
   1  -3  11   -4.70    4.50
  -2   3 -11    5.50    3.60
   2  -3  11    3.60    4.20
   6   2 -11   20.60    4.90
  -6  -2  11   23.50    6.80
  -6  -2  11    3.10    5.90
  -6  -2  11   12.30    6.30
   5   2 -11   34.60    5.00
  -5  -2  11   39.00    6.10
  -5  -2  11   34.30    7.00
  -5  -2  11   35.20    6.80
   4   2 -11    2.10    3.80
  -4  -2  11    6.10    5.00
  -4  -2  11    7.50    5.50
   3   2 -11    7.20    4.30
   3   2 -11   -1.10    3.70
  -3  -2  11    4.60    5.30
  -3  -2  11    1.90    3.50
  -3  -2  11    9.40    5.40
   2   2 -11    7.10    4.20
   2   2 -11   -7.90    3.70
  -2  -2  11   -4.60    3.20
  -2  -2  11   -0.10    5.00
  -2  -2  11   -6.10    4.40
   1   2 -11   -3.90    3.70
   1   2 -11    7.50    4.00
  -1  -2  11    7.90    4.90
  -1  -2  11    0.80    4.00
  -1  -2  11   -1.40    3.30
   0   2 -11   10.00    3.90
   0   2 -11    1.60    1.80
   0   2 -11   -3.50    3.70
   0  -2  11    2.60    4.60
   0  -2  11   -1.00    3.70
  -1   2 -11    7.90    4.20
  -1   2 -11    3.30    3.00
   1  -2  11   -0.40    4.00
   1  -2  11    6.30    4.90
  -2   2 -11    0.20    4.00
   2  -2  11    3.70    4.90
   6   1 -11   -7.40    3.90
  -6  -1  11   -4.20    5.50
  -6  -1  11    8.10    5.90
  -6  -1  11   10.40    6.40
   5   1 -11    8.10    4.60
  -5  -1  11   11.70    6.00
  -5  -1  11    7.60    5.60
   4   1 -11    3.20    4.30
   4   1 -11   -0.20    3.50
  -4  -1  11   -3.20    4.50
  -4  -1  11   -4.20    5.10
   3   1 -11   -0.10    3.80
   3   1 -11    4.10    4.60
  -3  -1  11    1.60    5.60
  -3  -1  11    7.10    3.90
  -3  -1  11   -4.10    4.10
   2   1 -11   10.20    4.50
   2   1 -11   11.90    4.20
  -2  -1  11   11.20    5.00
  -2  -1  11    6.50    3.70
  -2  -1  11   10.80    4.00
   1   1 -11    0.00    3.80
   1   1 -11   -5.70    3.90
  -1  -1  11    2.50    4.20
  -1  -1  11    9.80    4.00
  -1  -1  11    3.20    5.10
   0   1 -11    3.10    4.40
   0  -1  11   -3.70    4.10
   0  -1  11    5.50    5.00
  -1   1 -11    8.00    4.50
   1  -1  11    2.90    5.10
   7   0 -11   13.40    4.50
  -7   0  11   13.30    6.40
  -7   0  11   14.80    6.60
  -7   0  11    7.10    7.40
   6   0 -11    7.20    4.40
   6   0 -11    9.40    4.80
  -6   0  11    9.30    6.00
  -6   0  11    5.00    6.10
   5   0 -11    3.30    3.60
  -5   0  11    9.60    6.00
  -5   0  11    7.30    5.10
   4   0 -11    9.00    4.20
   4   0 -11    7.40    4.50
  -4   0  11    7.20    4.00
  -4   0  11   11.30    5.90
  -4   0  11   13.20    4.60
   3   0 -11    3.40    3.90
   3   0 -11    2.20    4.80
  -3   0  11    5.30    5.90
  -3   0  11    1.90    4.30
  -3   0  11    5.90    4.30
   2   0 -11   14.50    4.60
   2   0 -11    3.40    4.70
  -2   0  11    8.20    4.50
  -2   0  11    7.00    5.60
  -2   0  11   11.30    4.30
   1   0 -11   17.00    4.70
   1   0 -11   10.90    4.60
  -1   0  11    7.60    5.60
  -1   0  11   12.80    5.20
  -1   0  11    9.90    4.60
   0   0 -11   -1.70    4.30
   0   0  11    5.30    5.60
   0   0  11    0.40    5.00
   0   0  11    4.10    5.20
   1   0  11    3.60    6.10
   7  -1 -11    0.40    4.40
   7  -1 -11    6.30    4.90
  -7   1  11   -5.50    6.00
   6  -1 -11    0.70    4.30
  -6   1  11   11.40    8.90
  -6   1  11   13.70    6.00
   5  -1 -11    4.70    4.30
   5  -1 -11   -4.70    4.00
  -5   1  11    6.30    5.80
  -5   1  11    9.50    5.30
   4  -1 -11   -8.60    4.60
   4  -1 -11    1.40    4.20
  -4   1  11   -6.40    5.80
  -4   1  11    0.40    4.30
  -4   1  11   -2.20    4.30
   3  -1 -11   -3.70    3.90
   3  -1 -11   -5.50    4.60
  -3   1  11   -3.10    6.00
  -3   1  11   -0.50    4.40
  -3   1  11   -0.40    4.00
   2  -1 -11    2.00    4.00
   2  -1 -11    0.60    4.90
  -2   1  11    6.10    4.60
  -2   1  11   -5.10    4.40
  -2   1  11    9.00    6.20
   1  -1 -11   15.90    4.70
  -1   1  11   13.20    6.00
  -1   1  11    7.40    5.60
  -1   1  11   11.60    5.40
   0  -1 -11    9.40    4.70
   0   1  11    1.50    5.80
   7  -2 -11    0.20    4.40
  -7   2  11    8.50    6.90
   6  -2 -11   -1.80    4.20
   6  -2 -11   -5.40    5.20
  -6   2  11    4.50    6.50
   5  -2 -11    3.40    3.90
   5  -2 -11   10.70    5.50
  -5   2  11   12.90    4.90
  -5   2  11   -6.30    6.00
  -5   2  11    3.40    5.10
   4  -2 -11    4.50    5.30
   4  -2 -11    4.60    4.10
  -4   2  11    6.40    6.90
  -4   2  11    5.10    5.40
  -4   2  11   -4.00    4.70
   3  -2 -11    6.50    5.60
   3  -2 -11   10.90    4.20
  -3   2  11    2.60    5.00
  -3   2  11    6.30    6.40
  -3   2  11   11.80    5.30
   2  -2 -11   10.80    4.60
  -2   2  11    7.70    6.10
  -2   2  11   11.70    6.00
  -2   2  11   -4.70    6.30
   1  -2 -11    4.50    4.40
  -1   2  11    6.30    7.10
   6  -3 -11   -1.90    4.30
   6  -3 -11   -3.30    5.70
  -6   3  11    7.60    7.20
   5  -3 -11   -4.30    6.00
   5  -3 -11   -1.30    3.90
  -5   3  11    8.00    7.20
   4  -3 -11   15.50    6.20
   4  -3 -11   -1.40    4.10
  -4   3  11   14.80    7.70
  -4   3  11    3.10    9.90
   3  -3 -11    3.90    4.20
  -3   3  11    7.50    7.60
   2   5 -12   -5.50    3.80
  -2  -5  12   -0.10    6.60
  -2  -5  12   -4.80   10.50
   1   5 -12   11.70    4.50
   0   5 -12   -1.00    4.20
   3   4 -12   -1.20    4.30
  -3  -4  12   -1.90    8.70
  -3  -4  12    3.70    7.40
  -3  -4  12   -6.60    5.40
   2   4 -12    0.40    4.00
  -2  -4  12    1.50    6.70
  -2  -4  12    4.90    6.00
  -2  -4  12    7.30    7.30
   1   4 -12    2.60    4.10
  -1  -4  12    2.10    6.20
   0   4 -12   -0.90    4.50
   4   3 -12   13.10    4.70
  -4  -3  12    5.80    5.40
  -4  -3  12    9.20    7.60
  -4  -3  12    1.20    6.90
  -4  -3  12    0.60    4.30
   3   3 -12    5.30    4.00
  -3  -3  12   -2.60    6.60
  -3  -3  12    4.40    7.20
  -3  -3  12   -1.20    4.20
   2   3 -12   -3.60    4.00
   2   3 -12    5.20    6.40
  -2  -3  12   -7.70    6.10
  -2  -3  12    7.70    6.80
   1   3 -12   -0.50    4.10
  -1  -3  12    5.40    3.90
  -1  -3  12   -5.40    6.60
   0   3 -12    4.50    4.60
   5   2 -12   -2.60    4.10
  -5  -2  12   -2.70    5.80
  -5  -2  12   -7.00    7.30
   4   2 -12   -0.60    5.40
   4   2 -12    3.70    4.30
  -4  -2  12    8.90    7.00
  -4  -2  12    9.80    4.90
  -4  -2  12   17.70    7.10
   3   2 -12   -1.10    4.40
   3   2 -12    0.10    5.00
  -3  -2  12    5.20    4.40
  -3  -2  12    2.30    6.30
  -3  -2  12    3.30    6.70
   2   2 -12    0.70    4.10
  -2  -2  12    4.00    6.00
  -2  -2  12    3.00    6.50
  -2  -2  12    5.60    4.00
   1   2 -12    3.70    4.50
  -1  -2  12   -6.50    6.50
  -1  -2  12   -1.30    4.40
   0   2 -12    8.50    4.60
   0  -2  12   -0.10    4.80
   5   1 -12   10.90    6.30
   5   1 -12    7.10    4.70
  -5  -1  12   12.90   10.80
   4   1 -12   -3.30    4.00
   4   1 -12   -2.80    5.40
  -4  -1  12    0.10    5.00
  -4  -1  12    8.50   10.00
   3   1 -12    7.10    5.70
   3   1 -12    1.70    4.40
  -3  -1  12   -1.50    4.50
  -3  -1  12   13.40    7.30
   2   1 -12    0.60    4.00
  -2  -1  12    4.20    6.90
  -2  -1  12    1.80    5.00
   1   1 -12   -2.70    4.50
  -1  -1  12   -0.50    5.20
   5   0 -12   11.90    5.90
   5   0 -12   -0.30    3.90
  -5   0  12    0.10    7.10
  -5   0  12    1.80    5.00
   4   0 -12   -8.60    5.30
   4   0 -12   -8.60    3.80
  -4   0  12    6.10    5.50
  -4   0  12   -3.80    7.10
   3   0 -12    8.10    4.50
  -3   0  12    4.90    7.20
  -3   0  12   10.50    5.50
   2   0 -12    7.80    4.40
  -2   0  12   -3.40   10.20
  -2   0  12    8.20    5.60
   4  -1 -12    9.90    4.40
   4  -1 -12   -1.70    6.90
  -4   1  12   -0.50    7.00
  -4   1  12    3.80    5.80
  -3   1  12    6.20    5.60

_computing_structure_solution     'SHELXT 2014/4 (Sheldrick, 2014)'
_computing_structure_solution     'SHELXT 2014/4 (Sheldrick, 2014)'
_computing_structure_solution     'SHELXT 2014/4 (Sheldrick, 2014)'
;
_shelx_hkl_checksum              69772
_shelx_shelxl_version_number     2014/7
_olex2_submission_special_instructions 'No special instructions were received'
loop_
_space_group_symop_operation_xyz
'x, y, z'
'-x, -y, -z'
loop_
_atom_site_label
_atom_site_type_symbol
_atom_site_fract_x
_atom_site_fract_y
_atom_site_fract_z
_atom_site_U_iso_or_equiv
_atom_site_adp_type
_atom_site_occupancy
_atom_site_site_symmetry_order
_atom_site_calc_flag
_atom_site_refinement_flags_posn
O22 O -0.1069(2) 0.17940(18) 0.3996(2) 0.1013(6) Uani 1 1 d .
N11 N 0.40523(18) 0.65551(15) 0.53166(15) 0.0412(4) Uani 1 1 d .
C1 C 0.2408(2) 0.5683(2) 0.42982(19) 0.0434(5) Uani 1 1 d .
C2 C 0.1896(2) 0.6302(2) 0.31535(19) 0.0508(5) Uani 1 1 d .
H2A H 0.2045 0.7344 0.3580 0.061 Uiso 1 1 calc R
H2B H 0.0659 0.5587 0.2584 0.061 Uiso 1 1 calc R
C3 C 0.3004(2) 0.6440(2) 0.22047(19) 0.0446(5) Uani 1 1 d .
C4 C 0.2290(3) 0.5504(2) 0.0777(2) 0.0569(5) Uani 1 1 d .
H4 H 0.1110 0.4702 0.0406 0.068 Uiso 1 1 calc R
C5 C 0.3296(3) 0.5741(3) -0.0099(2) 0.0634(6) Uani 1 1 d .
H5 H 0.2797 0.5099 -0.1051 0.076 Uiso 1 1 calc R
C6 C 0.5036(3) 0.6926(2) 0.0436(2) 0.0588(6) Uani 1 1 d .
H6 H 0.5709 0.7112 -0.0161 0.071 Uiso 1 1 calc R
C7 C 0.5780(3) 0.7833(2) 0.1850(2) 0.0522(5) Uani 1 1 d .
H7 H 0.6960 0.8632 0.2205 0.063 Uiso 1 1 calc R
C8 C 0.4800(2) 0.75815(19) 0.27716(18) 0.0423(4) Uani 1 1 d .
C9 C 0.5695(2) 0.8517(2) 0.42827(19) 0.0455(5) Uani 1 1 d .
H9 H 0.6571 0.9567 0.4482 0.055 Uiso 1 1 calc R
C10 C 0.5437(2) 0.80833(18) 0.54243(18) 0.0404(4) Uani 1 1 d .
C12 C 0.6607(2) 0.91404(19) 0.68948(18) 0.0423(4) Uani 1 1 d .
C13 C 0.8424(3) 0.9953(2) 0.7216(2) 0.0614(6) Uani 1 1 d .
H13 H 0.8904 0.9811 0.6509 0.074 Uiso 1 1 calc R
C14 C 0.9522(3) 1.0970(3) 0.8577(2) 0.0737(7) Uani 1 1 d .
H14 H 1.0738 1.1515 0.8777 0.088 Uiso 1 1 calc R
C15 C 0.8849(3) 1.1187(2) 0.9635(2) 0.0649(6) Uani 1 1 d .
H15 H 0.9601 1.1864 1.0554 0.078 Uiso 1 1 calc R
C16 C 0.7060(3) 1.0401(2) 0.9333(2) 0.0588(6) Uani 1 1 d .
H16 H 0.6593 1.0554 1.0046 0.071 Uiso 1 1 calc R
C17 C 0.5948(3) 0.9385(2) 0.7979(2) 0.0514(5) Uani 1 1 d .
H17 H 0.4734 0.8854 0.7787 0.062 Uiso 1 1 calc R
C18 C 0.4207(3) 0.5685(2) 0.6227(2) 0.0504(5) Uani 1 1 d .
H18 H 0.5199 0.6011 0.7006 0.060 Uiso 1 1 calc R
C19 C 0.2678(3) 0.4296(2) 0.5786(2) 0.0556(5) Uani 1 1 d .
H19 H 0.2430 0.3495 0.6208 0.067 Uiso 1 1 calc R
C20 C 0.1509(2) 0.4260(2) 0.4566(2) 0.0494(5) Uani 1 1 d .
C21 C -0.0290(3) 0.3029(2) 0.3758(3) 0.0686(6) Uani 1 1 d .
H21 H -0.0898 0.3198 0.2996 0.082 Uiso 1 1 calc R
loop_
_atom_site_aniso_label
_atom_site_aniso_U_11
_atom_site_aniso_U_22
_atom_site_aniso_U_33
_atom_site_aniso_U_23
_atom_site_aniso_U_13
_atom_site_aniso_U_12
O22 0.0930(13) 0.0546(9) 0.1249(15) 0.0213(10) 0.0621(12) 0.0024(9)
N11 0.0462(9) 0.0354(8) 0.0432(9) 0.0166(7) 0.0208(7) 0.0172(7)
C1 0.0411(10) 0.0404(10) 0.0484(11) 0.0141(9) 0.0225(9) 0.0168(9)
C2 0.0409(11) 0.0522(11) 0.0578(12) 0.0203(10) 0.0164(9) 0.0211(9)
C3 0.0488(11) 0.0414(10) 0.0464(11) 0.0200(9) 0.0155(9) 0.0230(9)
C4 0.0530(12) 0.0528(11) 0.0534(13) 0.0145(10) 0.0080(10) 0.0227(10)
C5 0.0792(16) 0.0665(14) 0.0447(12) 0.0130(11) 0.0166(12) 0.0404(13)
C6 0.0730(15) 0.0675(13) 0.0489(13) 0.0244(11) 0.0306(11) 0.0389(12)
C7 0.0552(12) 0.0530(11) 0.0522(12) 0.0232(10) 0.0251(10) 0.0244(10)
C8 0.0512(11) 0.0366(9) 0.0432(11) 0.0188(8) 0.0189(9) 0.0217(9)
C9 0.0464(11) 0.0355(9) 0.0515(12) 0.0164(9) 0.0216(9) 0.0145(9)
C10 0.0406(10) 0.0339(9) 0.0462(11) 0.0132(8) 0.0188(9) 0.0162(8)
C12 0.0446(11) 0.0376(9) 0.0450(11) 0.0146(8) 0.0181(9) 0.0188(8)
C13 0.0486(12) 0.0735(14) 0.0540(13) 0.0118(11) 0.0212(11) 0.0257(11)
C14 0.0442(12) 0.0859(16) 0.0633(15) 0.0073(13) 0.0114(12) 0.0195(12)
C15 0.0657(15) 0.0601(13) 0.0478(12) 0.0073(10) 0.0099(11) 0.0223(12)
C16 0.0671(15) 0.0529(12) 0.0500(13) 0.0112(10) 0.0262(11) 0.0238(11)
C17 0.0464(11) 0.0466(10) 0.0543(13) 0.0130(9) 0.0224(10) 0.0163(9)
C18 0.0685(13) 0.0476(11) 0.0451(11) 0.0225(9) 0.0263(10) 0.0310(11)
C19 0.0769(14) 0.0401(11) 0.0606(13) 0.0252(10) 0.0413(12) 0.0263(11)
C20 0.0512(12) 0.0378(10) 0.0584(13) 0.0139(9) 0.0320(10) 0.0159(9)
C21 0.0677(14) 0.0489(12) 0.0797(16) 0.0144(11) 0.0466(13) 0.0139(11)
loop_
_atom_type_symbol
_atom_type_description
_atom_type_scat_dispersion_real
_atom_type_scat_dispersion_imag
_atom_type_scat_source
C C 0.0033 0.0016 'International Tables Vol C Tables 4.2.6.8 and 6.1.1.4'
H H 0.0000 0.0000 'International Tables Vol C Tables 4.2.6.8 and 6.1.1.4'
N N 0.0061 0.0033 'International Tables Vol C Tables 4.2.6.8 and 6.1.1.4'
O O 0.0106 0.0060 'International Tables Vol C Tables 4.2.6.8 and 6.1.1.4'
loop_
_geom_angle_atom_site_label_1
_geom_angle_atom_site_label_2
_geom_angle_atom_site_label_3
_geom_angle
C1 N11 C10 126.68(14)
C1 N11 C18 108.74(14)
C18 N11 C10 124.54(15)
N11 C1 C2 120.41(15)
N11 C1 C20 107.76(16)
C20 C1 C2 131.81(18)
C1 C2 H2A 109.4
C1 C2 H2B 109.4
C1 C2 C3 110.99(15)
H2A C2 H2B 108.0
C3 C2 H2A 109.4
C3 C2 H2B 109.4
C4 C3 C2 122.26(17)
C4 C3 C8 118.96(17)
C8 C3 C2 118.76(16)
C3 C4 H4 119.4
C5 C4 C3 121.22(19)
C5 C4 H4 119.4
C4 C5 H5 120.1
C6 C5 C4 119.87(19)
C6 C5 H5 120.1
C5 C6 H6 120.1
C7 C6 C5 119.83(19)
C7 C6 H6 120.1
C6 C7 H7 119.3
C6 C7 C8 121.34(18)
C8 C7 H7 119.3
C3 C8 C7 118.56(16)
C3 C8 C9 122.73(15)
C7 C8 C9 118.70(16)
C8 C9 H9 115.3
C10 C9 C8 129.32(15)
C10 C9 H9 115.3
N11 C10 C12 115.17(14)
C9 C10 N11 122.91(15)
C9 C10 C12 121.90(15)
C13 C12 C10 119.96(16)
C17 C12 C10 122.05(16)
C17 C12 C13 117.98(17)
C12 C13 H13 119.8
C14 C13 C12 120.32(19)
C14 C13 H13 119.8
C13 C14 H14 119.6
C15 C14 C13 120.9(2)
C15 C14 H14 119.6
C14 C15 H15 120.3
C14 C15 C16 119.5(2)
C16 C15 H15 120.3
C15 C16 H16 119.9
C15 C16 C17 120.28(19)
C17 C16 H16 119.9
C12 C17 H17 119.5
C16 C17 C12 121.09(18)
C16 C17 H17 119.5
N11 C18 H18 125.8
C19 C18 N11 108.33(18)
C19 C18 H18 125.8
C18 C19 H19 125.9
C18 C19 C20 108.21(16)
C20 C19 H19 125.9
C1 C20 C19 106.96(16)
C1 C20 C21 125.2(2)
C19 C20 C21 127.87(17)
O22 C21 C20 125.0(2)
O22 C21 H21 117.5
C20 C21 H21 117.5
loop_
_geom_bond_atom_site_label_1
_geom_bond_atom_site_label_2
_geom_bond_distance
O22 C21 1.207(2)
N11 C1 1.367(2)
N11 C10 1.433(2)
N11 C18 1.394(2)
C1 C2 1.483(2)
C1 C20 1.389(2)
C2 H2A 0.9700
C2 H2B 0.9700
C2 C3 1.508(2)
C3 C4 1.390(3)
C3 C8 1.397(2)
C4 H4 0.9300
C4 C5 1.376(3)
C5 H5 0.9300
C5 C6 1.373(3)
C6 H6 0.9300
C6 C7 1.370(3)
C7 H7 0.9300
C7 C8 1.398(2)
C8 C9 1.457(2)
C9 H9 0.9300
C9 C10 1.337(2)
C10 C12 1.477(2)
C12 C13 1.388(3)
C12 C17 1.385(2)
C13 H13 0.9300
C13 C14 1.378(3)
C14 H14 0.9300
C14 C15 1.367(3)
C15 H15 0.9300
C15 C16 1.367(3)
C16 H16 0.9300
C16 C17 1.375(3)
C17 H17 0.9300
C18 H18 0.9300
C18 C19 1.344(3)
C19 H19 0.9300
C19 C20 1.418(3)
C20 C21 1.441(3)
C21 H21 0.9300
loop_
_geom_torsion_atom_site_label_1
_geom_torsion_atom_site_label_2
_geom_torsion_atom_site_label_3
_geom_torsion_atom_site_label_4
_geom_torsion
N11 C1 C2 C3 64.6(2)
N11 C1 C20 C19 -0.37(19)
N11 C1 C20 C21 177.99(16)
N11 C10 C12 C13 134.49(17)
N11 C10 C12 C17 -47.0(2)
N11 C18 C19 C20 0.1(2)
C1 N11 C10 C9 -34.0(3)
C1 N11 C10 C12 147.81(16)
C1 N11 C18 C19 -0.31(19)
C1 C2 C3 C4 114.03(19)
C1 C2 C3 C8 -67.9(2)
C1 C20 C21 O22 -179.9(2)
C2 C1 C20 C19 177.90(18)
C2 C1 C20 C21 -3.7(3)
C2 C3 C4 C5 174.59(17)
C2 C3 C8 C7 -172.77(16)
C2 C3 C8 C9 7.4(2)
C3 C4 C5 C6 -0.3(3)
C3 C8 C9 C10 35.9(3)
C4 C3 C8 C7 5.4(2)
C4 C3 C8 C9 -174.46(16)
C4 C5 C6 C7 2.1(3)
C5 C6 C7 C8 -0.1(3)
C6 C7 C8 C3 -3.7(3)
C6 C7 C8 C9 176.17(17)
C7 C8 C9 C10 -144.00(19)
C8 C3 C4 C5 -3.5(3)
C8 C9 C10 N11 -5.0(3)
C8 C9 C10 C12 173.05(17)
C9 C10 C12 C13 -43.7(3)
C9 C10 C12 C17 134.78(19)
C10 N11 C1 C2 -0.4(3)
C10 N11 C1 C20 178.16(14)
C10 N11 C18 C19 -178.10(15)
C10 C12 C13 C14 178.51(18)
C10 C12 C17 C16 -178.60(17)
C12 C13 C14 C15 0.5(3)
C13 C12 C17 C16 -0.1(3)
C13 C14 C15 C16 -0.9(4)
C14 C15 C16 C17 0.8(3)
C15 C16 C17 C12 -0.3(3)
C17 C12 C13 C14 -0.1(3)
C18 N11 C1 C2 -178.09(16)
C18 N11 C1 C20 0.42(18)
C18 N11 C10 C9 143.40(18)
C18 N11 C10 C12 -34.8(2)
C18 C19 C20 C1 0.2(2)
C18 C19 C20 C21 -178.12(17)
C19 C20 C21 O22 -1.9(3)
C20 C1 C2 C3 -113.5(2)
