#------------------------------------------------------------------------------
#$Date: 2017-02-04 04:25:44 +0200 (Sat, 04 Feb 2017) $
#$Revision: 191386 $
#$URL: file:///home/coder/svn-repositories/cod/cif/1/54/50/1545066.cif $
#------------------------------------------------------------------------------
#
# This file is available in the Crystallography Open Database (COD),
# http://www.crystallography.net/
#
# All data on this site have been placed in the public domain by the
# contributors.
#
data_1545066
loop_
_publ_author_name
'Lee, Melissa'
'Sanford, Melanie S.'
_publ_section_title
;
 Remote C(sp(3))-H Oxygenation of Protonated Aliphatic Amines with
 Potassium Persulfate.
;
_journal_issue                   3
_journal_name_full               'Organic letters'
_journal_page_first              572
_journal_page_last               575
_journal_paper_doi               10.1021/acs.orglett.6b03731
_journal_volume                  19
_journal_year                    2017
_chemical_absolute_configuration unk
_chemical_formula_sum            'C14 H17 N O4'
_chemical_formula_weight         263.28
_space_group_crystal_system      monoclinic
_space_group_IT_number           4
_space_group_name_Hall           'P 2yb'
_space_group_name_H-M_alt        'P 1 21 1'
_symmetry_space_group_name_Hall  'P 2yb'
_symmetry_space_group_name_H-M   'P 1 21 1'
_atom_sites_solution_hydrogens   mixed
_audit_creation_method           SHELXL-2014/6
_cell_angle_alpha                90
_cell_angle_beta                 107.183(6)
_cell_angle_gamma                90
_cell_formula_units_Z            2
_cell_length_a                   9.3634(6)
_cell_length_b                   5.3559(3)
_cell_length_c                   13.9632(8)
_cell_measurement_reflns_used    4407
_cell_measurement_temperature    85(2)
_cell_measurement_theta_max      68.8790
_cell_measurement_theta_min      3.2540
_cell_volume                     668.99(7)
_computing_cell_refinement       'CrysAlisPro 1.171.38.41 (Rigaku OD, 2015)'
_computing_data_collection
'CrystalClear-SM Expert 2.0 r16 (Rigaku, 2014)'
_computing_data_reduction        'CrysAlisPro 1.171.38.41 (Rigaku OD, 2015)'
_computing_molecular_graphics    'Bruker SHELXTL'
_computing_publication_material  'Bruker SHELXTL'
_computing_structure_refinement  'SHELXL-2014/6 (Sheldrick, 2014)'
_computing_structure_solution    'SHELXT (Sheldrick, 2014)'
_diffrn_ambient_temperature      85(2)
_diffrn_measured_fraction_theta_full 0.984
_diffrn_measured_fraction_theta_max 0.976
_diffrn_measurement_device_type  'Rigaku Saturn 944+ CCD'
_diffrn_radiation_type           CuK\a
_diffrn_radiation_wavelength     1.54178
_diffrn_reflns_av_unetI/netI     0.0323
_diffrn_reflns_Laue_measured_fraction_full 0.984
_diffrn_reflns_Laue_measured_fraction_max 0.976
_diffrn_reflns_limit_h_max       9
_diffrn_reflns_limit_h_min       -10
_diffrn_reflns_limit_k_max       6
_diffrn_reflns_limit_k_min       -6
_diffrn_reflns_limit_l_max       16
_diffrn_reflns_limit_l_min       -16
_diffrn_reflns_number            16469
_diffrn_reflns_point_group_measured_fraction_full 0.990
_diffrn_reflns_point_group_measured_fraction_max 0.979
_diffrn_reflns_theta_full        67.679
_diffrn_reflns_theta_max         69.668
_diffrn_reflns_theta_min         3.313
_diffrn_source                   'micro-focus rotating anode'
_exptl_absorpt_coefficient_mu    0.795
_exptl_absorpt_correction_T_max  0.64699
_exptl_absorpt_correction_T_min  0.62219
_exptl_absorpt_correction_type   multi-scan
_exptl_absorpt_process_details
;
CrysAlisPro 1.171.38.41 (Rigaku Oxford Diffraction, 2015)
Spherical absorption correction
 using equivalent radius and absorption coefficient.
Empirical absorption correction using spherical harmonics,
 implemented in SCALE3 ABSPACK scaling algorithm.
;
_exptl_crystal_colour            colorless
_exptl_crystal_density_diffrn    1.307
_exptl_crystal_description       needle
_exptl_crystal_F_000             280
_exptl_crystal_size_max          0.440
_exptl_crystal_size_mid          0.030
_exptl_crystal_size_min          0.020
_refine_diff_density_max         0.253
_refine_diff_density_min         -0.317
_refine_diff_density_rms         0.066
_refine_ls_abs_structure_details
;
 Classical Flack method preferred over Parsons because s.u. lower.
;
_refine_ls_abs_structure_Flack   0.3(3)
_refine_ls_extinction_coef       none
_refine_ls_extinction_method     SHELXL
_refine_ls_goodness_of_fit_ref   0.975
_refine_ls_hydrogen_treatment    mixed
_refine_ls_matrix_type           full
_refine_ls_number_parameters     179
_refine_ls_number_reflns         4498
_refine_ls_number_restraints     1
_refine_ls_restrained_S_all      0.975
_refine_ls_R_factor_all          0.0628
_refine_ls_R_factor_gt           0.0547
_refine_ls_shift/su_max          0.000
_refine_ls_shift/su_mean         0.000
_refine_ls_structure_factor_coef Fsqd
_refine_ls_weighting_details
'w=1/[\s^2^(Fo^2^)+(0.1326P)^2^] where P=(Fo^2^+2Fc^2^)/3'
_refine_ls_weighting_scheme      calc
_refine_ls_wR_factor_gt          0.1525
_refine_ls_wR_factor_ref         0.1615
_reflns_Friedel_coverage         0.799
_reflns_Friedel_fraction_full    0.996
_reflns_Friedel_fraction_max     0.983
_reflns_number_gt                3825
_reflns_number_total             4498
_reflns_threshold_expression     'I > 2\s(I)'
_cod_data_source_file            ol6b03731_si_001.cif
_cod_data_source_block           ml5051
_cod_depositor_comments          'Adding full bibliography for 1545066.cif.'
_cod_database_code               1545066
_shelx_space_group_comment
;
The symmetry employed for this shelxl refinement is uniquely defined
by the following loop, which should always be used as a source of
symmetry information in preference to the above space-group names.
They are only intended as comments.
;
_shelx_estimated_absorpt_t_min   0.721
_shelx_estimated_absorpt_t_max   0.984
_shelxl_version_number           2014/6
_shelx_res_file
;
TITL ml5051_a.res in P2(1)
CELL  1.54178    9.363428   5.355856  13.963163    90.0000   107.1832    90.0000
ZERR    2.000   0.000598   0.000256   0.000846     0.0000     0.0063     0.0000
LATT -1
SYMM -X, 1/2+Y, -Z
SFAC C  H  N  O
UNIT 28  34  2  8
REM Old TITL ml5051 in P2(1)
REM SHELXT solution in P2(1)
REM R1 0.217,  Rweak 0.134,  Alpha 0.031,  Orientation as input
REM Flack x=  0.486 ( 0.045 ) from Parsons' quotients
REM Formula found by SHELXT:  C14 N2 O3
omit -1 0 1
omit -2 0 2
L.S. 50
ACTA
BOND $H
FMAP 2
PLAN 20
conf
htab
SIZE 0.44 0.03 0.02
TEMP -188
REM  exti .001
REM Instructions for potential hydrogen bonds
EQIV $1 -x+1, y-1/2, -z+1
HTAB N1 O4_$1
WGHT    0.132600
BASF   0.47982
FVAR      14.33622
N1    3    0.335166    0.342530    0.458413    11.00000    0.03205    0.03790 =
         0.01634    0.00177    0.00588    0.00873
H1    2    0.410016    0.280567    0.517541    11.00000    0.04927
O1    4    0.258759    0.543492    0.571613    11.00000    0.04050    0.05193 =
         0.01644    0.00516    0.01079    0.02043
O2    4    0.159175    0.650416    0.407494    11.00000    0.03124    0.04273 =
         0.02111    0.00538    0.00645    0.01044
O3    4    0.324102    0.512924    0.211332    11.00000    0.02624    0.02914 =
         0.01705   -0.00078    0.00353   -0.00453
O4    4    0.471913    0.687930    0.349169    11.00000    0.02910    0.03964 =
         0.02259   -0.00580    0.00536   -0.00323
C1    1    0.243675    0.525082    0.472691    11.00000    0.02956    0.03906 =
         0.01640    0.00294    0.00715    0.00647
C2    1    0.162617    0.723295    0.600826    11.00000    0.03971    0.04926 =
         0.02283    0.00132    0.01195    0.01904
AFIX  23
H2A   2    0.055994    0.679000    0.571198    11.00000   -1.20000
H2B   2    0.179305    0.893660    0.578786    11.00000   -1.20000
AFIX   0
C3    1    0.206593    0.708079    0.713165    11.00000    0.02310    0.04244 =
         0.02189    0.00228    0.01049    0.01049
C4    1    0.295896    0.889260    0.771903    11.00000    0.02722    0.03948 =
         0.03702    0.00170    0.01680    0.00273
AFIX  43
H4    2    0.325177    1.031222    0.741483    11.00000   -1.20000
AFIX   0
C5    1    0.342914    0.863498    0.875735    11.00000    0.02538    0.04640 =
         0.03166   -0.01090    0.00921    0.00023
AFIX  43
H5    2    0.403992    0.988743    0.915941    11.00000   -1.20000
AFIX   0
C6    1    0.301834    0.658801    0.920554    11.00000    0.02520    0.05144 =
         0.02123   -0.00266    0.00715    0.00854
AFIX  43
H6    2    0.335039    0.642218    0.991444    11.00000   -1.20000
AFIX   0
C7    1    0.211265    0.475037    0.861942    11.00000    0.03153    0.04039 =
         0.02514    0.00016    0.01047    0.00286
AFIX  43
H7    2    0.182116    0.333345    0.892588    11.00000   -1.20000
AFIX   0
C8    1    0.164292    0.501252    0.758659    11.00000    0.02577    0.03880 =
         0.02450   -0.00511    0.00758    0.00363
AFIX  43
H8    2    0.102545    0.376721    0.718454    11.00000   -1.20000
AFIX   0
C9    1    0.346953    0.291462    0.359625    11.00000    0.02723    0.03579 =
         0.01338    0.00201    0.00664    0.00313
AFIX  13
H9    2    0.427125    0.163471    0.366522    11.00000   -1.20000
AFIX   0
C10   1    0.206220    0.196239    0.281897    11.00000    0.02728    0.03207 =
         0.01985    0.00183    0.00767   -0.00091
AFIX  23
H10A  2    0.115062    0.263309    0.294733    11.00000   -1.20000
H10B  2    0.202046    0.011540    0.281931    11.00000   -1.20000
AFIX   0
C11   1    0.222420    0.295224    0.182280    11.00000    0.02325    0.02892 =
         0.01749   -0.00313    0.00293   -0.00573
C12   1    0.389516    0.519534    0.309960    11.00000    0.01962    0.03091 =
         0.01591   -0.00401    0.00261    0.00109
C13   1    0.297849    0.110781    0.130594    11.00000    0.04154    0.02988 =
         0.02241   -0.00254    0.01256   -0.00146
AFIX 137
H13A  2    0.320841    0.193055    0.074215    11.00000   -1.50000
H13B  2    0.230861   -0.030831    0.105764    11.00000   -1.50000
H13C  2    0.390623    0.050846    0.178381    11.00000   -1.50000
AFIX   0
C14   1    0.079198    0.399903    0.113016    11.00000    0.02899    0.04764 =
         0.02063    0.00593    0.00094   -0.00259
AFIX 137
H14A  2    0.038163    0.524681    0.148978    11.00000   -1.50000
H14B  2    0.006680    0.264600    0.090044    11.00000   -1.50000
H14C  2    0.099833    0.478340    0.055088    11.00000   -1.50000

AFIX   0
HKLF 5

REM  ml5051_a.res in P2(1)
REM R1 =  0.0545 for    3825 Fo > 4sig(Fo)  and  0.0625 for all    4498 data
REM    179 parameters refined using      1 restraints

END

WGHT      0.1308      0.0000

REM Instructions for potential hydrogen bonds
HTAB N1 O4_$1
EQIV $2 x, y-1, z
HTAB C9 O4_$2
HTAB C10 O2

REM Highest difference peak  0.253,  deepest hole -0.317,  1-sigma level  0.066
Q1    1  -0.1105  0.3285  0.1215  11.00000  0.05    0.25
Q2    1   0.0400  0.5726  0.5678  11.00000  0.05    0.25
Q3    1   0.1429  0.5354  0.5797  11.00000  0.05    0.24
Q4    1   0.5156  0.0524  0.5221  11.00000  0.05    0.23
Q5    1   0.3180  0.5167  0.3393  11.00000  0.05    0.22
Q6    1   0.2411  0.3254  0.4618  11.00000  0.05    0.22
Q7    1   0.4402  0.3081  0.1796  11.00000  0.05    0.21
Q8    1   0.2887  0.5265  0.3196  11.00000  0.05    0.21
Q9    1   0.3441  0.5054  0.4592  11.00000  0.05    0.21
Q10   1   0.4557  0.3348  0.2374  11.00000  0.05    0.20
Q11   1  -0.0108  0.3995  0.1189  11.00000  0.05    0.20
Q12   1   0.1483  0.6934  0.7347  11.00000  0.05    0.20
Q13   1   0.0801  0.3964  0.2652  11.00000  0.05    0.19
Q14   1   0.0549  0.6416  0.4222  11.00000  0.05    0.19
Q15   1   0.1551  0.8472  0.4240  11.00000  0.05    0.19
Q16   1   0.3697  0.3763  0.6201  11.00000  0.05    0.19
Q17   1   0.5952  0.3013  0.3810  11.00000  0.05    0.19
Q18   1   0.2277  0.5322  0.7217  11.00000  0.05    0.19
Q19   1   0.0439  0.6059  0.5027  11.00000  0.05    0.18
Q20   1   0.1068  0.3037  0.8756  11.00000  0.05    0.18
;
_shelx_res_checksum              80766
_shelx_hkl_file
;
   0   6   0 32894.9 615.561  -2
   0  -6   0 32894.9 615.561   1
   0   6   1 6778.58 268.590  -2
   0  -6  -1 6778.58 268.590   1
   0   6   2 1646.24 237.867  -2
   0  -6  -2 1646.24 237.867   1
   0   6   3 1153.82 226.143  -2
   0  -6  -3 1153.82 226.143   1
   0   6   4 8172.18 272.750  -2
   0  -6  -4 8172.18 272.750   1
   0   6   5 2504.70 604.749  -2
   0  -6  -5 2504.70 604.749   1
   0   5  -1 1033.25 328.040  -2
   0  -5   1 1033.25 328.040   1
   0   5  -2 24127.2 476.563  -2
   0  -5   2 24127.2 476.563   1
   0   5   3 1951.52 317.835  -2
   0  -5  -3 1951.52 317.835   1
   0   5  -4 2175.27 319.551  -2
   0  -5   4 2175.27 319.551   1
   0   5   5 12227.5 414.422  -2
   0  -5  -5 12227.5 414.422   1
   0   5  -6 17187.5 419.108  -2
   0  -5   6 17187.5 419.108   1
   0   5  -7 26693.6 492.168  -2
   0  -5   7 26693.6 492.168   1
   0   5  -8 24474.6 924.083  -2
   0  -5   8 24474.6 924.083   1
   0   5  -9 2914.00 375.273  -2
   0  -5   9 2914.00 375.273   1
   0   5  10 124.826 371.043  -2
   0  -5 -10 124.826 371.043   1
   0   4   0 10781.4 521.756  -2
   0  -4   0 10781.4 521.756   1
   0   4   1 9958.73 363.024  -2
   0  -4  -1 9958.73 363.024   1
   0   4  -2 29591.2 486.572  -2
   0  -4   2 29591.2 486.572   1
   0   4   3 29822.8 366.770  -2
   0  -4  -3 29822.8 366.770   1
   0   4   4 21712.9 342.655  -2
   0  -4  -4 21712.9 342.655   1
   0   4   5 6744.32 226.482  -2
   0  -4  -5 6744.32 226.482   1
   0   4   6 10758.7 276.437  -2
   0  -4  -6 10758.7 276.437   1
   0   4   7 2092.02 257.716  -2
   0  -4  -7 2092.02 257.716   1
   0   4   8 9351.91 340.713  -2
   0  -4  -8 9351.91 340.713   1
   0   4   9 5708.88 441.968  -2
   0  -4  -9 5708.88 441.968   1
   0   4 -10 1342.96 302.269  -2
   0  -4  10 1342.96 302.269   1
   0   4  11 1120.61 280.971  -2
   0  -4 -11 1120.61 280.971   1
   0   4  12 589.600 281.863  -2
   0  -4 -12 589.600 281.863   1
   0   3   1 12531.0 510.162  -2
   0  -3  -1 12531.0 510.162   1
   0   3  -2 44559.7 429.714  -2
   0  -3   2 44559.7 429.714   1
   0   3   3 77019.9 545.178  -2
   0  -3  -3 77019.9 545.178   1
   0   3  -4 62514.4 502.661  -2
   0  -3   4 62514.4 502.661   1
   0   3  -5 15519.4 312.237  -2
   0  -3   5 15519.4 312.237   1
   0   3   6 7640.30 264.360  -2
   0  -3  -6 7640.30 264.360   1
   0   3  -7 8539.28 281.547  -2
   0  -3   7 8539.28 281.547   1
   0   3   8 12089.1 350.877  -2
   0  -3  -8 12089.1 350.877   1
   0   3  -9 32942.6 638.146  -2
   0  -3   9 32942.6 638.146   1
   0   3  10 42329.9 548.510  -2
   0  -3 -10 42329.9 548.510   1
   0   3  11 34278.2 654.072  -2
   0  -3 -11 34278.2 654.072   1
   0   3  12 11544.5 434.841  -2
   0  -3 -12 11544.5 434.841   1
   0   3 -13 1988.78 318.569  -2
   0  -3  13 1988.78 318.569   1
   0   3  14 417.497 330.270  -2
   0  -3 -14 417.497 330.270   1
   0   2   0 50582.5 1505.15  -2
   0  -2   0 50582.5 1505.15   1
   0   2   1 72174.3 1817.49  -2
   0  -2  -1 72174.3 1817.49   1
   0   2  -2 5194.09 390.580  -2
   0  -2   2 5194.09 390.580   1
   0   2  -3 286131. 2242.89  -2
   0  -2   3 286131. 2242.89   1
   0   2  -4 63508.4 1341.68  -2
   0  -2   4 63508.4 1341.68   1
   0   2  -5 5829.15 518.976  -2
   0  -2   5 5829.15 518.976   1
   0   2   6 19568.6 302.318  -2
   0  -2  -6 19568.6 302.318   1
   0   2   7 8629.43 330.736  -2
   0  -2  -7 8629.43 330.736   1
   0   2   8 9559.52 494.119  -2
   0  -2  -8 9559.52 494.119   1
   0   2  -9 80220.7 813.568  -2
   0  -2   9 80220.7 813.568   1
   0   2  10 8261.49 411.728  -2
   0  -2 -10 8261.49 411.728   1
   0   2 -11 59866.4 751.486  -2
   0  -2  11 59866.4 751.486   1
   0   2  12 14341.6 500.207  -2
   0  -2 -12 14341.6 500.207   1
   0   2  13 9320.38 440.188  -2
   0  -2 -13 9320.38 440.188   1
   0   2 -14 16734.2 559.615  -2
   0  -2  14 16734.2 559.615   1
   0   2  15 2990.72 474.460  -2
   0  -2 -15 2990.72 474.460   1
   0   1  -1 629934. 1439.28  -2
   0  -1   1 629934. 1439.28   1
   0   1   2 106075. 986.318  -2
   0  -1  -2 106075. 986.318   1
   0   1   3 23970.0 827.302  -2
   0  -1  -3 23970.0 827.302   1
   0   1  -7 43373.0 518.473  -2
   0  -1   7 43373.0 518.473   1
   0   1   8 114493. 757.886  -2
   0  -1  -8 114493. 757.886   1
   0   1   9 710.020 275.074  -2
   0  -1  -9 710.020 275.074   1
   0   1 -10 15267.8 419.257  -2
   0  -1  10 15267.8 419.257   1
   0   1  11 67720.8 716.863  -2
   0  -1 -11 67720.8 716.863   1
   0   1  12 9048.04 404.437  -2
   0  -1 -12 9048.04 404.437   1
   0   1 -13 11028.7 516.018  -2
   0  -1  13 11028.7 516.018   1
   0   1 -14 2345.56 397.437  -2
   0  -1  14 2345.56 397.437   1
   0   1  15 1935.88 368.045  -2
   0  -1 -15 1935.88 368.045   1
   0   0   1 191948. 357.638  -2
   0   0  -1 191948. 357.638   1
   0   0   2 186853. 618.576  -2
   0   0  -2 186853. 618.576   1
   0   0   3 94434.8 596.990  -2
   0   0  -3 94434.8 596.990   1
   0   0  -4 193880. 1580.96  -2
   0   0   4 193880. 1580.96   1
   0   0  -5 7488.54 649.655  -2
   0   0   5 7488.54 649.655   1
   0   0  -6 132349. 2121.69  -2
   0   0   6 132349. 2121.69   1
   0   0  -7 27618.1 458.493  -2
   0   0   7 27618.1 458.493   1
   0   0   8 1074.61 264.601  -2
   0   0  -8 1074.61 264.601   1
   0   0   9 44393.2 593.566  -2
   0   0  -9 44393.2 593.566   1
   0   0 -10 3615.23 221.202  -2
   0   0  10 3615.23 221.202   1
   0   0 -11 1680.29 428.141  -2
   0   0  11 1680.29 428.141   1
   0   0 -12 15993.9 345.935  -2
   0   0  12 15993.9 345.935   1
   0   0  13 2412.06 362.832  -2
   0   0 -13 2412.06 362.832   1
   0   0  14 9582.18 374.531  -2
   0   0 -14 9582.18 374.531   1
   0   0 -15 5101.69 495.988  -2
   0   0  15 5101.69 495.988   1
   0  -1   1 670740. 1229.57  -2
   0   1  -1 670740. 1229.57   1
   0  -1   2 105679. 566.941  -2
   0   1  -2 105679. 566.941   1
   0  -1   3 22656.2 346.809  -2
   0   1  -3 22656.2 346.809   1
   0  -1  -4 9044.02 363.432  -2
   0   1   4 9044.02 363.432   1
   0  -1  -5 28932.8 563.446  -2
   0   1   5 28932.8 563.446   1
   0  -1  -6 91787.4 1639.41  -2
   0   1   6 91787.4 1639.41   1
   0  -1  -7 35714.8 541.505  -2
   0   1   7 35714.8 541.505   1
   0  -1  -8 97661.1 872.976  -2
   0   1   8 97661.1 872.976   1
   0  -1   9 702.721 338.113  -2
   0   1  -9 702.721 338.113   1
   0  -1  10 13573.7 463.292  -2
   0   1 -10 13573.7 463.292   1
   0  -1 -11 63061.0 733.679  -2
   0   1  11 63061.0 733.679   1
   0  -1  12 8792.19 403.569  -2
   0   1 -12 8792.19 403.569   1
   0  -1  13 12280.5 502.121  -2
   0   1 -13 12280.5 502.121   1
   0  -1 -14 2584.30 383.982  -2
   0   1  14 2584.30 383.982   1
   0  -1  15 1719.40 451.774  -2
   0   1 -15 1719.40 451.774   1
   0  -2   0 43646.4 688.599  -2
   0   2   0 43646.4 688.599   1
   0  -2   1 77541.5 772.909  -2
   0   2  -1 77541.5 772.909   1
   0  -2  -2 5076.13 409.347  -2
   0   2   2 5076.13 409.347   1
   0  -2   3 286720. 1903.83  -2
   0   2  -3 286720. 1903.83   1
   0  -2   4 74070.8 1089.14  -2
   0   2  -4 74070.8 1089.14   1
   0  -2  -5 6635.31 215.380  -2
   0   2   5 6635.31 215.380   1
   0  -2  -6 17624.4 328.254  -2
   0   2   6 17624.4 328.254   1
   0  -2   7 8202.96 242.390  -2
   0   2  -7 8202.96 242.390   1
   0  -2  -8 7988.39 364.154  -2
   0   2   8 7988.39 364.154   1
   0  -2   9 69342.7 864.541  -2
   0   2  -9 69342.7 864.541   1
   0  -2  10 7066.01 448.221  -2
   0   2 -10 7066.01 448.221   1
   0  -2  11 55516.3 837.142  -2
   0   2 -11 55516.3 837.142   1
   0  -2  12 13348.2 515.165  -2
   0   2 -12 13348.2 515.165   1
   0  -2  13 8637.72 454.590  -2
   0   2 -13 8637.72 454.590   1
   0  -2  14 16242.5 673.114  -2
   0   2 -14 16242.5 673.114   1
   0  -2  15 2618.97 375.352  -2
   0   2 -15 2618.97 375.352   1
   0  -3   1 12870.0 225.718  -2
   0   3  -1 12870.0 225.718   1
   0  -3   2 45012.1 370.823  -2
   0   3  -2 45012.1 370.823   1
   0  -3   3 73728.1 417.352  -2
   0   3  -3 73728.1 417.352   1
   0  -3   4 61848.0 336.608  -2
   0   3  -4 61848.0 336.608   1
   0  -3   5 13439.2 266.975  -2
   0   3  -5 13439.2 266.975   1
   0  -3   6 6957.95 256.968  -2
   0   3  -6 6957.95 256.968   1
   0  -3   7 8752.96 231.809  -2
   0   3  -7 8752.96 231.809   1
   0  -3   8 11321.4 309.529  -2
   0   3  -8 11321.4 309.529   1
   0  -3   9 30015.0 451.033  -2
   0   3  -9 30015.0 451.033   1
   0  -3  10 38428.8 662.408  -2
   0   3 -10 38428.8 662.408   1
   0  -3 -11 32602.3 551.927  -2
   0   3  11 32602.3 551.927   1
   0  -3  12 10996.2 400.694  -2
   0   3 -12 10996.2 400.694   1
   0  -3 -13 2088.85 413.025  -2
   0   3  13 2088.85 413.025   1
   0  -3  14 519.833 354.735  -2
   0   3 -14 519.833 354.735   1
   0  -4   0 10647.2 584.390  -2
   0   4   0 10647.2 584.390   1
   0  -4  -1 10118.4 361.596  -2
   0   4   1 10118.4 361.596   1
   0  -4  -2 28069.7 460.084  -2
   0   4   2 28069.7 460.084   1
   0  -4   3 29134.3 392.723  -2
   0   4  -3 29134.3 392.723   1
   0  -4   4 22189.0 349.043  -2
   0   4  -4 22189.0 349.043   1
   0  -4   5 6207.52 312.500  -2
   0   4  -5 6207.52 312.500   1
   0  -4  -6 10310.2 364.879  -2
   0   4   6 10310.2 364.879   1
   0  -4   7 2279.58 301.678  -2
   0   4  -7 2279.58 301.678   1
   0  -4   8 9708.78 251.712  -2
   0   4  -8 9708.78 251.712   1
   0  -4   9 6801.35 293.589  -2
   0   4  -9 6801.35 293.589   1
   0  -4 -10 1442.25 265.181  -2
   0   4  10 1442.25 265.181   1
   0  -4  11 975.762 340.440  -2
   0   4 -11 975.762 340.440   1
   0  -4 -12 772.252 386.360  -2
   0   4  12 772.252 386.360   1
   0  -5   1 784.191 408.321  -2
   0   5  -1 784.191 408.321   1
   0  -5  -2 17683.2 539.828  -2
   0   5   2 17683.2 539.828   1
   0  -5  -3 1516.63 418.244  -2
   0   5   3 1516.63 418.244   1
   0  -5   4 1710.83 423.448  -2
   0   5  -4 1710.83 423.448   1
   0  -5   5 10575.0 419.659  -2
   0   5  -5 10575.0 419.659   1
   0  -5  -6 16333.0 332.756  -2
   0   5   6 16333.0 332.756   1
   0  -5  -7 25179.4 514.943  -2
   0   5   7 25179.4 514.943   1
   0  -5   8 20634.1 363.553  -2
   0   5  -8 20634.1 363.553   1
   0  -5   9 3135.67 428.312  -2
   0   5  -9 3135.67 428.312   1
   0  -5  10 240.516 473.078  -2
   0   5 -10 240.516 473.078   1
   0  -6   0 12433.4 1017.66  -2
   0   6   0 12433.4 1017.66   1
   0  -6   1 2863.65 648.476  -2
   0   6  -1 2863.65 648.476   1
   0  -6  -2 368.354 622.715  -2
   0   6   2 368.354 622.715   1
   0  -6   3 555.684 622.587  -2
   0   6  -3 555.684 622.587   1
   0  -6   4 5160.70 760.180  -2
   0   6  -4 5160.70 760.180   1
   0  -6  -5 1785.48 716.231  -2
   0   6   5 1785.48 716.231   1
  -1   6  -5 2186.22 374.754  -2
  -1  -6   6 2186.22 374.754   1
   1   6   4 6942.94 353.824  -2
   1  -6  -5 6942.94 353.824   1
   1   6   3 2127.92 243.425  -2
   1  -6  -4 2127.92 243.425   1
   1   6   2 4400.10 251.887  -2
   1  -6  -3 4400.10 251.887   1
  -1   6  -1 6566.91 265.892  -2
  -1  -6   2 6566.91 265.892   1
  -1   6   0 2929.01 243.699  -2
  -1  -6   1 2929.01 243.699   1
  -1   6   1 2714.85 227.360  -2
  -1  -6   0 2714.85 227.360   1
   1   6  -2 6399.06 251.452  -2
   1  -6   1 6399.06 251.452   1
  -1   6   3 4625.20 236.939  -2
  -1  -6  -2 4625.20 236.939   1
   1   6  -4 2313.59 268.072  -2
   1  -6   3 2313.59 268.072   1
  -1   6   5 7359.59 305.082  -2
  -1  -6  -4 7359.59 305.082   1
  -1   6   6 1455.28 550.899  -2
  -1  -6  -5 1455.28 550.899   1
  -1  -5  10 44.1103 386.332   1
  -1   5  -9 1519.98 323.543  -2
  -1  -5  10 1519.98 323.543   1
   1   5   8 4267.50 478.079  -2
   1  -5  -9 4267.50 478.079   1
  -1   5  -7 1083.94 388.203  -2
  -1  -5   8 1083.94 388.203   1
   1  -5  -7 1467.43 640.159   1
   1   5   6 2344.00 310.159  -2
   1  -5  -7 2344.00 310.159   1
   1   5   5 5674.15 284.365  -2
   1  -5  -6 5674.15 284.365   1
  -1   5  -4 6247.43 288.211  -2
  -1  -5   5 6247.43 288.211   1
  -1   5  -3 8333.15 309.960  -2
  -1  -5   4 8333.15 309.960   1
  -1   5  -2 4414.21 289.714  -2
  -1  -5   3 4414.21 289.714   1
   1   5   1 29301.4 424.338  -2
   1  -5  -2 29301.4 424.338   1
  -1   5   0 44471.6 691.214  -2
  -1  -5   1 44471.6 691.214   1
  -1   5   1 46926.8 575.396  -2
  -1  -5   0 46926.8 575.396   1
  -1   5   2 31318.1 489.804  -2
  -1  -5  -1 31318.1 489.804   1
  -1   5   3 3938.97 310.679  -2
  -1  -5  -2 3938.97 310.679   1
  -1   5   4 9044.36 322.057  -2
  -1  -5  -3 9044.36 322.057   1
  -1   5   5 5972.68 300.349  -2
  -1  -5  -4 5972.68 300.349   1
  -1   5   6 5728.31 298.437  -2
  -1  -5  -5 5728.31 298.437   1
  -1   5   7 2433.21 311.271  -2
  -1  -5  -6 2433.21 311.271   1
   1  -5   7 520.003 679.092   1
  -1   5   8 1051.48 550.463  -2
  -1  -5  -7 1051.48 550.463   1
  -1   5   9 4021.96 341.445  -2
  -1  -5  -8 4021.96 341.445   1
  -1  -5  -9 220.584 1036.58   1
  -1   5  10 1373.83 402.956  -2
  -1  -5  -9 1373.83 402.956   1
  -1  -4  13 309.048 432.579   1
   1  -4 -12 36.0700 261.370   1
  -1   4 -11 246.037 411.643  -2
  -1  -4  12 246.037 411.643   1
  -1   4 -10 5111.03 301.737  -2
  -1  -4  11 5111.03 301.737   1
   1   4   9 16613.3 363.764  -2
   1  -4 -10 16613.3 363.764   1
  -1   4  -8 16070.9 441.779  -2
  -1  -4   9 16070.9 441.779   1
  -1   4  -7 23102.0 388.612  -2
  -1  -4   8 23102.0 388.612   1
   1  -4  -7 8610.66 725.264   1
   1   4   6 14292.9 357.406  -2
   1  -4  -7 14292.9 357.406   1
  -1   4  -5 8203.87 302.047  -2
  -1  -4   6 8203.87 302.047   1
  -1   4  -4 1168.48 255.571  -2
  -1  -4   5 1168.48 255.571   1
  -1   4  -3 9334.25 292.491  -2
  -1  -4   4 9334.25 292.491   1
   1   4   2 23354.3 416.643  -2
   1  -4  -3 23354.3 416.643   1
  -1   4  -1 8376.28 330.792  -2
  -1  -4   2 8376.28 330.792   1
  -1   4   0 12700.3 370.993  -2
  -1  -4   1 12700.3 370.993   1
  -1   4   1 11487.6 374.387  -2
  -1  -4   0 11487.6 374.387   1
  -1   4   2 7880.46 404.345  -2
  -1  -4  -1 7880.46 404.345   1
  -1   4   3 19576.7 458.002  -2
  -1  -4  -2 19576.7 458.002   1
  -1   4   4 9265.19 337.117  -2
  -1  -4  -3 9265.19 337.117   1
  -1   4   5 1131.39 258.022  -2
  -1  -4  -4 1131.39 258.022   1
   1   4  -6 6654.79 292.800  -2
   1  -4   5 6654.79 292.800   1
  -1   4   7 12658.8 325.997  -2
  -1  -4  -6 12658.8 325.997   1
  -1   4   8 21800.1 343.816  -2
  -1  -4  -7 21800.1 343.816   1
  -1   4   9 18553.5 483.323  -2
  -1  -4  -8 18553.5 483.323   1
  -1   4  10 13479.4 396.245  -2
  -1  -4  -9 13479.4 396.245   1
  -1  -4 -10 312.851 1193.00   1
  -1   4  11 4233.94 339.001  -2
  -1  -4 -10 4233.94 339.001   1
   1  -4  11 616.845 471.786   1
  -1   4  12 449.569 411.021  -2
  -1  -4 -11 449.569 411.021   1
  -1  -4 -12 4172.27 288.722   1
   1  -3 -14 4564.91 263.292   1
   1  -3 -13 1536.48 257.386   1
   1  -3 -12 18639.5 789.069   1
  -1   3 -11 32420.0 538.484  -2
  -1  -3  12 32420.0 538.484   1
   1  -3 -11 8937.51 693.906   1
  -1   3 -10 13311.9 450.649  -2
  -1  -3  11 13311.9 450.649   1
   1   3   9 26721.4 585.696  -2
   1  -3 -10 26721.4 585.696   1
  -1   3  -8 1724.86 439.321  -2
  -1  -3   9 1724.86 439.321   1
  -1   3  -7 22471.3 414.147  -2
  -1  -3   8 22471.3 414.147   1
   1  -3  -7 2847.34 622.834   1
  -1   3  -6 3682.24 335.326  -2
  -1  -3   7 3682.24 335.326   1
   1  -3  -6 844.677 439.660   1
  -1   3  -5 13193.0 314.335  -2
  -1  -3   6 13193.0 314.335   1
   1  -3  -5 6550.93 514.656   1
  -1   3  -4 23974.0 319.740  -2
  -1  -3   5 23974.0 319.740   1
   1   3   3 19678.1 319.556  -2
   1  -3  -4 19678.1 319.556   1
  -1   3  -2 74981.1 518.576  -2
  -1  -3   3 74981.1 518.576   1
  -1   3  -1 4015.05 259.134  -2
  -1  -3   2 4015.05 259.134   1
  -1   3   0 37808.6 451.000  -2
  -1  -3   1 37808.6 451.000   1
  -1   3   1 38338.0 525.874  -2
  -1  -3   0 38338.0 525.874   1
  -1   3   2 3971.81 284.263  -2
  -1  -3  -1 3971.81 284.263   1
  -1   3   3 78339.3 571.333  -2
  -1  -3  -2 78339.3 571.333   1
  -1   3   4 18667.8 318.642  -2
  -1  -3  -3 18667.8 318.642   1
  -1   3   5 24903.5 326.015  -2
  -1  -3  -4 24903.5 326.015   1
  -1   3   6 15176.9 289.838  -2
  -1  -3  -5 15176.9 289.838   1
  -1   3   7 3447.78 243.350  -2
  -1  -3  -6 3447.78 243.350   1
  -1   3   8 20194.8 343.299  -2
  -1  -3  -7 20194.8 343.299   1
   1   3  -9 1559.23 387.334  -2
   1  -3   8 1559.23 387.334   1
   1   3 -10 28828.3 500.958  -2
   1  -3   9 28828.3 500.958   1
  -1  -3 -10 635.209 1281.81   1
   1   3 -11 13236.6 403.306  -2
   1  -3  10 13236.6 403.306   1
   1  -3  11 16531.3 801.094   1
  -1   3  12 31284.9 537.527  -2
  -1  -3 -11 31284.9 537.527   1
   1  -3  12 79.2856 296.814   1
  -1  -3 -13 1005.98 275.307   1
  -1  -2  15 1816.82 338.527   1
   1  -2 -14 5385.15 309.257   1
   1  -2 -13 463.761 281.874   1
   1  -2 -12 15597.3 808.929   1
  -1   2 -11 26174.1 618.488  -2
  -1  -2  12 26174.1 618.488   1
   1  -2 -11 44430.2 1149.16   1
   1   2  10 60458.8 791.412  -2
   1  -2 -11 60458.8 791.412   1
  -1   2  -9 55241.8 645.882  -2
  -1  -2  10 55241.8 645.882   1
  -1   2  -8 28523.9 672.577  -2
  -1  -2   9 28523.9 672.577   1
   1   2   7 35066.3 651.583  -2
   1  -2  -8 35066.3 651.583   1
   1   2   6 10155.9 366.797  -2
   1  -2  -7 10155.9 366.797   1
   1  -2  -6 6876.35 451.219   1
  -1   2  -5 34605.2 705.817  -2
  -1  -2   6 34605.2 705.817   1
  -1   2  -4 35848.9 624.924  -2
  -1  -2   5 35848.9 624.924   1
  -1   2  -3 11446.2 706.155  -2
  -1  -2   4 11446.2 706.155   1
  -1   2  -2 18630.3 609.688  -2
  -1  -2   3 18630.3 609.688   1
  -1   2   1 6470.76 713.035  -2
  -1  -2   0 6470.76 713.035   1
   1  -2   3 6001.95 384.789   1
   1  -2   4 35465.8 797.273   1
  -1   2   5 38011.5 440.493  -2
  -1  -2  -4 38011.5 440.493   1
  -1   2   6 35462.4 312.769  -2
  -1  -2  -5 35462.4 312.769   1
  -1   2   7 10491.0 248.443  -2
  -1  -2  -6 10491.0 248.443   1
  -1   2   8 40019.2 433.086  -2
  -1  -2  -7 40019.2 433.086   1
  -1   2   9 30339.6 406.600  -2
  -1  -2  -8 30339.6 406.600   1
   1   2 -10 52599.6 568.199  -2
   1  -2   9 52599.6 568.199   1
  -1  -2 -10 8018.21 1428.28   1
  -1   2  11 56177.9 601.774  -2
  -1  -2 -10 56177.9 601.774   1
  -1   2  12 26746.3 477.201  -2
  -1  -2 -11 26746.3 477.201   1
   1  -2  12 15267.3 487.485   1
  -1   2  13 14416.6 1091.04  -2
  -1  -2 -12 14416.6 1091.04   1
  -1  -2 -13 3953.37 360.048   1
  -1  -2 -14 2024.64 262.613   1
   1  -1 -16 4236.89 422.055   1
   1  -1 -15 915.147 297.213   1
  -1  -1  14 1415.67 377.504   1
  -1   1 -13 4090.52 916.214  -2
  -1  -1  14 4090.52 916.214   1
  -1  -1  13 1940.55 308.333   1
  -1   1 -12 3928.86 944.223  -2
  -1  -1  13 3928.86 944.223   1
   1  -1 -12 16605.2 423.980   1
  -1   1 -11 29077.6 1159.75  -2
  -1  -1  12 29077.6 1159.75   1
  -1  -1  11 16653.1 818.199   1
   1   1  10 27401.4 521.228  -2
   1  -1 -11 27401.4 521.228   1
  -1  -1  10 12266.5 717.505   1
   1   1   9 14237.1 423.795  -2
   1  -1 -10 14237.1 423.795   1
  -1  -1   9 11140.3 522.382   1
   1   1   8 12970.0 391.099  -2
   1  -1  -9 12970.0 391.099   1
  -1   1  -7 50342.5 456.480  -2
  -1  -1   8 50342.5 456.480   1
  -1   1  -6 61700.6 664.198  -2
  -1  -1   7 61700.6 664.198   1
  -1   1  -2 172188. 923.609  -2
  -1  -1   3 172188. 923.609   1
  -1  -1   2 166.566 253.289   1
  -1   1  -1 262821. 1044.58  -2
  -1  -1   2 262821. 1044.58   1
   1  -1  -1 4300.32 157.779   1
   1  -1   0 406965. 1270.76   1
   1   1  -2 268632. 1277.81  -2
   1  -1   1 268632. 1277.81   1
  -1   1   3 175283. 1128.74  -2
  -1  -1  -2 175283. 1128.74   1
  -1   1   4 54996.1 1099.92  -2
  -1  -1  -3 54996.1 1099.92   1
  -1   1   7 66467.8 449.819  -2
  -1  -1  -6 66467.8 449.819   1
  -1   1   8 50905.8 519.801  -2
  -1  -1  -7 50905.8 519.801   1
  -1  -1  -8 1216.92 652.747   1
  -1   1   9 12349.2 380.455  -2
  -1  -1  -8 12349.2 380.455   1
   1  -1   9 1151.26 794.222   1
  -1   1  10 13549.4 370.577  -2
  -1  -1  -9 13549.4 370.577   1
   1  -1  10 8737.55 446.426   1
  -1   1  11 25892.5 577.770  -2
  -1  -1 -10 25892.5 577.770   1
  -1  -1 -11 13583.2 596.782   1
  -1   1  12 28208.7 604.777  -2
  -1  -1 -11 28208.7 604.777   1
   1  -1  12 2488.76 380.431   1
  -1   1  13 3791.51 941.422  -2
  -1  -1 -12 3791.51 941.422   1
   1  -1  13 3470.16 303.476   1
  -1  -1 -14 2240.61 246.773   1
  -1  -1 -15 58.0473 355.416   1
   1   0 -16 49.2673 296.176   1
   1   0 -15 181.097 296.459   1
  -1   0 -14 45.2817 548.031  -2
  -1   0  15 45.2817 548.031   1
   1   0 -14 18919.2 492.170   1
  -1   0 -13 17784.9 1055.49  -2
  -1   0  14 17784.9 1055.49   1
   1   0 -13 589.195 442.609   1
   1   0  12 540.163 638.727  -2
   1   0 -13 540.163 638.727   1
   1   0 -12 6402.50 394.873   1
  -1   0 -11 44930.1 917.777  -2
  -1   0  12 44930.1 917.777   1
  -1   0  11 9274.23 783.866   1
   1   0  10 55550.1 641.409  -2
   1   0 -11 55550.1 641.409   1
  -1   0  10 325.663 652.884   1
  -1   0  -9 21973.7 461.005  -2
  -1   0  10 21973.7 461.005   1
   1   0  -9 11044.1 511.115   1
   1   0   8 35194.9 470.193  -2
   1   0  -9 35194.9 470.193   1
   1   0  -8 8426.50 683.572   1
  -1   0  -7 10881.5 337.848  -2
  -1   0   8 10881.5 337.848   1
  -1   0   7 306413. 2203.71   1
  -1   0  -6 384416. 2810.37  -2
  -1   0   7 384416. 2810.37   1
  -1   0  -5 91567.4 1333.19  -2
  -1   0   6 91567.4 1333.19   1
  -1   0  -4 34549.1 777.939  -2
  -1   0   5 34549.1 777.939   1
   1   0  -4 4778.73 446.937   1
  -1   0  -3 13982.6 508.557  -2
  -1   0   4 13982.6 508.557   1
   1   0  -3 21772.5 542.989   1
  -1   0  -2 64785.0 723.335  -2
  -1   0   3 64785.0 723.335   1
   1   0   1 10441.3 196.868  -2
   1   0  -2 10441.3 196.868   1
  -1   0   1 49233.3 243.010   1
   1   0   0 67185.8 335.717  -2
   1   0  -1 67185.8 335.717   1
   1   0   0 29001.4 249.438   1
  -1   0   2 7905.99 194.742  -2
  -1   0  -1 7905.99 194.742   1
  -1   0  -2 38019.0 663.440   1
   1   0  -3 55475.3 677.680  -2
   1   0   2 55475.3 677.680   1
   1   0   3 8337.29 327.623   1
   1   0  -5 33220.1 783.282  -2
   1   0   4 33220.1 783.282   1
   1   0   5 23592.3 877.318   1
   1   0   6 66785.3 1273.70   1
   1   0   7 1743.24 251.389   1
  -1   0   8 10649.5 399.391  -2
  -1   0  -7 10649.5 399.391   1
   1   0   8 22367.3 532.043   1
  -1   0   9 35445.8 585.365  -2
  -1   0  -8 35445.8 585.365   1
  -1   0  -9 22594.2 444.517   1
  -1   0  10 24884.9 1052.09  -2
  -1   0  -9 24884.9 1052.09   1
  -1   0 -10 41882.7 740.985   1
  -1   0  11 61022.2 1427.47  -2
  -1   0 -10 61022.2 1427.47   1
   1   0  11 33193.7 1268.27   1
  -1   0  12 40181.3 706.691  -2
  -1   0 -11 40181.3 706.691   1
  -1   0 -12 59.6483 237.497   1
   1   0  13 492.837 241.779   1
  -1   0 -14 33.4044 211.819   1
  -1   0 -15 462.387 277.782   1
  -1   1  16 3701.51 324.755   1
  -1   1  15 1060.73 337.894   1
  -1   1  14 1421.19 377.071   1
   1   1 -13 1633.18 488.325   1
  -1  -1 -12 4430.22 550.971  -2
  -1   1  13 4430.22 550.971   1
   1   1 -12 16929.7 656.675   1
   1  -1  11 28836.5 540.544  -2
   1   1 -12 28836.5 540.544   1
  -1  -1 -10 26801.7 431.651  -2
  -1   1  11 26801.7 431.651   1
  -1  -1  -9 13678.7 409.645  -2
  -1   1  10 13678.7 409.645   1
  -1  -1  -8 12043.2 405.356  -2
  -1   1   9 12043.2 405.356   1
   1  -1   7 46512.2 425.098  -2
   1   1  -8 46512.2 425.098   1
  -1  -1  -6 62981.9 657.317  -2
  -1   1   7 62981.9 657.317   1
  -1  -1  -5 100030. 1232.08  -2
  -1   1   6 100030. 1232.08   1
   1  -1   4 51231.7 854.117  -2
   1   1  -5 51231.7 854.117   1
  -1  -1  -3 56219.4 806.145  -2
  -1   1   4 56219.4 806.145   1
   1  -1   2 189117. 1056.92  -2
   1   1  -3 189117. 1056.92   1
   1   1  -2 162.058 216.284   1
   1  -1   1 262483. 1100.89  -2
   1   1  -2 262483. 1100.89   1
  -1   1   1 4374.80 217.534   1
   1  -1   0 414323. 2036.36  -2
   1   1  -1 414323. 2036.36   1
   1   1   0 422714. 911.959   1
   1   1   1 280623. 949.871   1
  -1   1  -2 65439.8 1208.46   1
  -1  -1   3 178949. 777.269  -2
  -1   1  -2 178949. 777.269   1
   1  -1  -4 56512.5 667.680  -2
   1   1   3 56512.5 667.680   1
   1  -1  -5 48076.2 819.316  -2
   1   1   4 48076.2 819.316   1
  -1   1  -5 36758.1 1230.40   1
   1  -1  -6 93770.6 1612.88  -2
   1   1   5 93770.6 1612.88   1
   1   1   6 54671.6 899.695   1
  -1  -1   7 62171.7 447.613  -2
  -1   1  -6 62171.7 447.613   1
   1   1   7 2757.99 545.553   1
  -1  -1   8 46254.8 479.957  -2
  -1   1  -7 46254.8 479.957   1
   1   1   8 1622.06 385.000   1
  -1  -1   9 11555.4 402.549  -2
  -1   1  -8 11555.4 402.549   1
   1   1   9 1596.17 490.711   1
  -1  -1  10 12574.1 443.143  -2
  -1   1  -9 12574.1 443.143   1
   1   1  10 10258.0 428.669   1
  -1  -1  11 24425.1 768.230  -2
  -1   1 -10 24425.1 768.230   1
  -1   1 -11 14828.6 344.564   1
   1   1  12 2652.83 254.195   1
   1   1  13 3787.17 300.928   1
   1   1  14 2283.02 271.513   1
   1   1  15 88.3355 320.264   1
  -1   2  15 2164.34 332.195   1
  -1   2  14 5317.26 726.823   1
   1  -2  13 9447.59 660.676  -2
   1   2 -14 9447.59 660.676   1
  -1   2  13 384.614 764.942   1
   1  -2  12 16684.8 792.754  -2
   1   2 -13 16684.8 792.754   1
  -1   2  12 13512.6 1020.38   1
   1  -2  11 26642.0 927.083  -2
   1   2 -12 26642.0 927.083   1
  -1  -2 -10 59248.7 657.865  -2
  -1   2  11 59248.7 657.865   1
   1  -2   9 50893.3 548.629  -2
   1   2 -10 50893.3 548.629   1
   1  -2   8 26328.0 444.675  -2
   1   2  -9 26328.0 444.675   1
  -1  -2  -7 35053.5 394.222  -2
  -1   2   8 35053.5 394.222   1
   1  -2   6 9852.93 281.829  -2
   1   2  -7 9852.93 281.829   1
  -1  -2  -5 34338.7 371.484  -2
  -1   2   6 34338.7 371.484   1
  -1  -2  -4 37455.5 419.643  -2
  -1   2   5 37455.5 419.643   1
   1  -2   3 10350.5 505.584  -2
   1   2  -4 10350.5 505.584   1
  -1  -2  -2 20367.1 476.061  -2
  -1   2   3 20367.1 476.061   1
  -1  -2  -1 85669.4 1046.37  -2
  -1   2   2 85669.4 1046.37   1
  -1   2   1 3084.23 200.716   1
  -1  -2   0 6334.72 399.669  -2
  -1   2   1 6334.72 399.669   1
  -1  -2   1 6083.43 384.244  -2
  -1   2   0 6083.43 384.244   1
  -1  -2   2 89817.9 740.733  -2
  -1   2  -1 89817.9 740.733   1
   1  -2  -3 17150.9 506.843  -2
   1   2   2 17150.9 506.843   1
  -1  -2   4 11372.6 535.686  -2
  -1   2  -3 11372.6 535.686   1
  -1  -2   5 37168.8 379.361  -2
  -1   2  -4 37168.8 379.361   1
   1  -2  -6 33732.8 363.404  -2
   1   2   5 33732.8 363.404   1
  -1  -2   7 9520.59 272.519  -2
  -1   2  -6 9520.59 272.519   1
  -1   2  -7 31525.4 1906.99   1
  -1  -2   8 36776.4 485.130  -2
  -1   2  -7 36776.4 485.130   1
   1  -2  -9 29123.7 498.363  -2
   1   2   8 29123.7 498.363   1
  -1   2  -9 18754.3 561.091   1
   1  -2 -10 45234.8 931.506  -2
   1   2   9 45234.8 931.506   1
   1   2  10 16663.9 530.715   1
  -1  -2  11 58011.7 1181.21  -2
  -1   2 -10 58011.7 1181.21   1
  -1   2 -11 13728.6 401.035   1
  -1   2 -12 15451.2 401.123   1
  -1   2 -13 4292.99 295.573   1
  -1   2 -14 2079.70 260.076   1
  -1  -2  15 3296.56 739.397  -2
  -1   2 -14 3296.56 739.397   1
   1   3 -14 5254.79 657.457   1
   1  -3  13 5880.01 470.538  -2
   1   3 -14 5880.01 470.538   1
   1   3 -13 1416.67 440.480   1
  -1  -3 -12 1817.63 488.594  -2
  -1   3  13 1817.63 488.594   1
   1   3 -12 18327.1 879.034   1
   1  -3  11 35123.9 806.869  -2
   1   3 -12 35123.9 806.869   1
   1   3 -11 10485.6 819.596   1
  -1  -3 -10 13352.4 681.309  -2
  -1   3  11 13352.4 681.309   1
   1   3 -10 1198.52 671.159   1
  -1  -3  -9 26702.9 489.224  -2
  -1   3  10 26702.9 489.224   1
  -1  -3  -8 1671.04 323.589  -2
  -1   3   9 1671.04 323.589   1
   1  -3   7 22253.7 376.611  -2
   1   3  -8 22253.7 376.611   1
  -1  -3  -6 3625.88 288.681  -2
  -1   3   7 3625.88 288.681   1
  -1  -3  -5 13743.9 294.315  -2
  -1   3   6 13743.9 294.315   1
  -1  -3  -4 22913.2 318.045  -2
  -1   3   5 22913.2 318.045   1
  -1  -3  -3 20076.6 301.325  -2
  -1   3   4 20076.6 301.325   1
  -1  -3  -2 77208.1 425.792  -2
  -1   3   3 77208.1 425.792   1
   1  -3   1 3889.70 223.440  -2
   1   3  -2 3889.70 223.440   1
   1   3  -1 22235.4 848.458   1
   1  -3   0 40245.0 338.587  -2
   1   3  -1 40245.0 338.587   1
  -1  -3   1 38695.5 330.261  -2
  -1   3   0 38695.5 330.261   1
   1  -3  -2 3978.57 210.273  -2
   1   3   1 3978.57 210.273   1
   1  -3  -3 79198.6 436.939  -2
   1   3   2 79198.6 436.939   1
   1  -3  -4 18356.4 294.566  -2
   1   3   3 18356.4 294.566   1
  -1  -3   5 23814.4 306.001  -2
  -1   3  -4 23814.4 306.001   1
   1  -3  -6 14293.6 282.292  -2
   1   3   5 14293.6 282.292   1
  -1  -3   7 3524.04 252.534  -2
  -1   3  -6 3524.04 252.534   1
   1  -3  -8 21155.8 361.486  -2
   1   3   7 21155.8 361.486   1
  -1  -3   9 1766.65 314.996  -2
  -1   3  -8 1766.65 314.996   1
   1  -3 -10 28051.6 461.458  -2
   1   3   9 28051.6 461.458   1
  -1   3 -10 4788.99 600.843   1
   1  -3 -11 12473.7 473.186  -2
   1   3  10 12473.7 473.186   1
   1   3  11 16397.3 405.064   1
  -1  -3  12 28717.8 1140.14  -2
  -1   3 -11 28717.8 1140.14   1
  -1   3 -12 92.8801 255.039   1
  -1  -3  13 1248.26 788.590  -2
  -1   3 -12 1248.26 788.590   1
  -1   3 -13 1046.08 328.942   1
  -1  -3  14 4167.90 771.930  -2
  -1   3 -13 4167.90 771.930   1
   1   4 -12 91.6708 414.528   1
   1  -4  11 376.906 513.818  -2
   1   4 -12 376.906 513.818   1
   1   4 -11 4010.32 685.600   1
   1  -4  10 5048.57 461.954  -2
   1   4 -11 5048.57 461.954   1
   1   4 -10 14611.0 832.197   1
   1  -4   9 15639.8 496.001  -2
   1   4 -10 15639.8 496.001   1
  -1  -4  -8 18599.4 391.404  -2
  -1   4   9 18599.4 391.404   1
   1  -4   7 25758.4 400.778  -2
   1   4  -8 25758.4 400.778   1
  -1  -4  -6 12600.5 374.434  -2
  -1   4   7 12600.5 374.434   1
   1  -4   5 7170.84 342.007  -2
   1   4  -6 7170.84 342.007   1
  -1  -4  -4 1051.37 295.360  -2
  -1   4   5 1051.37 295.360   1
   1  -4   3 8631.55 309.665  -2
   1   4  -4 8631.55 309.665   1
   1  -4   2 21265.3 370.359  -2
   1   4  -3 21265.3 370.359   1
   1  -4   1 7959.35 363.024  -2
   1   4  -2 7959.35 363.024   1
  -1  -4   0 11111.1 408.480  -2
  -1   4   1 11111.1 408.480   1
  -1  -4   1 10666.7 365.158  -2
  -1   4   0 10666.7 365.158   1
  -1  -4   2 7665.60 308.356  -2
  -1   4  -1 7665.60 308.356   1
  -1  -4   3 19368.6 397.951  -2
  -1   4  -2 19368.6 397.951   1
   1  -4  -4 9064.75 314.574  -2
   1   4   3 9064.75 314.574   1
  -1  -4   5 1026.95 261.332  -2
  -1   4  -4 1026.95 261.332   1
   1  -4  -6 7288.49 319.379  -2
   1   4   5 7288.49 319.379   1
  -1  -4   7 13458.7 352.640  -2
  -1   4  -6 13458.7 352.640   1
   1  -4  -8 23098.8 425.168  -2
   1   4   7 23098.8 425.168   1
  -1  -4   9 19289.2 400.021  -2
  -1   4  -8 19289.2 400.021   1
  -1  -4  10 16634.8 394.859  -2
  -1   4  -9 16634.8 394.859   1
   1   4  10 756.775 471.906   1
  -1  -4  11 4760.37 399.084  -2
  -1   4 -10 4760.37 399.084   1
  -1   4 -11 537.940 244.128   1
  -1  -4  12 693.117 762.837  -2
  -1   4 -11 693.117 762.837   1
  -1   4 -12 4732.55 403.414   1
  -1  -4  13 5214.44 748.632  -2
  -1   4 -12 5214.44 748.632   1
   1  -5   9 2402.76 453.765  -2
   1   5 -10 2402.76 453.765   1
   1  -5   8 4967.14 424.421  -2
   1   5  -9 4967.14 424.421   1
   1  -5   7 1482.63 353.402  -2
   1   5  -8 1482.63 353.402   1
   1  -5   6 2567.04 374.786  -2
   1   5  -7 2567.04 374.786   1
  -1  -5  -5 5128.68 364.416  -2
  -1   5   6 5128.68 364.416   1
  -1  -5  -4 4762.79 432.028  -2
  -1   5   5 4762.79 432.028   1
   1  -5   3 5984.11 450.073  -2
   1   5  -4 5984.11 450.073   1
  -1  -5  -2 3349.72 430.615  -2
  -1   5   3 3349.72 430.615   1
  -1  -5  -1 23526.4 546.759  -2
  -1   5   2 23526.4 546.759   1
  -1  -5   0 33099.9 588.110  -2
  -1   5   1 33099.9 588.110   1
   1  -5  -1 38040.2 648.463  -2
   1   5   0 38040.2 648.463   1
  -1  -5   2 24505.6 567.144  -2
  -1   5  -1 24505.6 567.144   1
  -1  -5   3 3499.90 430.916  -2
  -1   5  -2 3499.90 430.916   1
  -1  -5   4 7592.85 404.978  -2
  -1   5  -3 7592.85 404.978   1
  -1  -5   5 6266.73 410.192  -2
  -1   5  -4 6266.73 410.192   1
  -1  -5   6 6358.07 376.517  -2
  -1   5  -5 6358.07 376.517   1
  -1  -5   7 2852.53 346.658  -2
  -1   5  -6 2852.53 346.658   1
  -1  -5   8 1490.43 323.491  -2
  -1   5  -7 1490.43 323.491   1
  -1  -5   9 5619.16 388.037  -2
  -1   5  -8 5619.16 388.037   1
  -1  -5  10 2614.90 419.118  -2
  -1   5  -9 2614.90 419.118   1
  -1  -6  -5 1746.15 702.293  -2
  -1   6   6 1746.15 702.293   1
  -1  -6  -4 5411.56 529.008  -2
  -1   6   5 5411.56 529.008   1
   1  -6   3 1279.73 465.170  -2
   1   6  -4 1279.73 465.170   1
   1  -6   2 2627.55 476.303  -2
   1   6  -3 2627.55 476.303   1
  -1  -6  -1 3260.73 491.433  -2
  -1   6   2 3260.73 491.433   1
  -1  -6   0 1431.27 481.203  -2
  -1   6   1 1431.27 481.203   1
  -1  -6   1 1274.84 478.598  -2
  -1   6   0 1274.84 478.598   1
  -1  -6   2 3135.07 485.705  -2
  -1   6  -1 3135.07 485.705   1
   1  -6  -3 2243.89 487.106  -2
   1   6   2 2243.89 487.106   1
  -1  -6   4 1799.97 528.449  -2
  -1   6  -3 1799.97 528.449   1
  -1  -6   5 4764.50 548.767  -2
  -1   6  -4 4764.50 548.767   1
  -1  -6   6 1320.52 692.510  -2
  -1   6  -5 1320.52 692.510   1
  -2   6  -3 394.293 368.723  -2
  -2  -6   5 394.293 368.723   1
   2  -6  -4 4611.51 539.621   1
  -2   6  -2 5231.28 408.202  -2
  -2  -6   4 5231.28 408.202   1
   2  -6  -3 8100.56 572.995   1
  -2   6  -1 9723.35 381.834  -2
  -2  -6   3 9723.35 381.834   1
   2  -6  -2 2710.79 518.299   1
   2   6   0 3254.99 265.780  -2
   2  -6  -2 3254.99 265.780   1
   2  -6  -1 6405.48 565.219   1
  -2   6   1 8038.75 264.826  -2
  -2  -6   1 8038.75 264.826   1
   2  -6   0 2249.47 516.076   1
  -2   6   2 3244.11 236.889  -2
  -2  -6   0 3244.11 236.889   1
   2  -6   1 4827.80 541.845   1
  -2   6   3 9063.70 261.529  -2
  -2  -6  -1 9063.70 261.529   1
   2  -6   2 2778.47 503.773   1
  -2   6   4 5265.85 241.271  -2
  -2  -6  -2 5265.85 241.271   1
   2  -6   3 298.777 483.296   1
  -2   6   5 613.218 261.149  -2
  -2  -6  -3 613.218 261.149   1
  -2  -6  -4 3441.34 460.984   1
  -2   6   6 8517.99 369.539  -2
  -2  -6  -4 8517.99 369.539   1
   2  -5 -10 384.829 202.909   1
  -2  -5   9 2288.49 294.618   1
  -2   5  -7 4828.60 562.559  -2
  -2  -5   9 4828.60 562.559   1
  -2  -5   8 593.927 371.316   1
  -2   5  -6 2727.19 564.438  -2
  -2  -5   8 2727.19 564.438   1
  -2  -5   7 2281.24 335.529   1
  -2   5  -5 5542.11 595.969  -2
  -2  -5   7 5542.11 595.969   1
  -2  -5   6 480.372 382.479   1
  -2   5  -4 8757.74 505.776  -2
  -2  -5   6 8757.74 505.776   1
  -2  -5   5 798.120 278.767   1
  -2   5  -3 2982.85 478.318  -2
  -2  -5   5 2982.85 478.318   1
   2  -5  -4 1463.35 397.410   1
  -2   5  -2 5985.02 358.286  -2
  -2  -5   4 5985.02 358.286   1
   2  -5  -3 1817.44 595.000   1
  -2   5  -1 2176.24 298.134  -2
  -2  -5   3 2176.24 298.134   1
   2  -5  -2 13567.7 764.527   1
  -2   5   0 16521.1 370.165  -2
  -2  -5   2 16521.1 370.165   1
  -2  -5   1 6787.54 483.557   1
  -2   5   1 12906.9 401.164  -2
  -2  -5   1 12906.9 401.164   1
   2  -5   0 9235.02 712.820   1
  -2   5   2 17455.0 431.157  -2
  -2  -5   0 17455.0 431.157   1
   2  -5   1 1410.39 563.048   1
  -2   5   3 2170.90 307.986  -2
  -2  -5  -1 2170.90 307.986   1
   2  -5   2 5000.19 653.463   1
  -2   5   4 6368.66 311.032  -2
  -2  -5  -2 6368.66 311.032   1
   2  -5   3 2444.89 587.308   1
  -2   5   5 3353.81 285.400  -2
  -2  -5  -3 3353.81 285.400   1
   2  -5   4 8490.20 483.572   1
  -2   5   6 10144.5 365.169  -2
  -2  -5  -4 10144.5 365.169   1
   2  -5   5 1647.92 258.144   1
  -2   5   7 4212.03 473.940  -2
  -2  -5  -5 4212.03 473.940   1
  -2  -5  -6 1323.89 201.381   1
   2  -5   7 1052.91 253.514   1
  -2  -5  -8 3512.49 300.348   1
   2  -4 -13 3895.63 260.920   1
   2  -4 -12 3233.21 228.334   1
   2  -4 -11 4079.65 234.746   1
   2  -4 -10 9292.97 338.408   1
  -2  -4   9 7416.50 339.870   1
  -2  -4   8 1928.78 296.336   1
  -2  -4   7 8190.29 506.340   1
  -2   4  -5 10516.8 541.788  -2
  -2  -4   7 10516.8 541.788   1
   2  -4  -6 8260.91 338.175   1
  -2   4  -4 10943.6 543.344  -2
  -2  -4   6 10943.6 543.344   1
  -2  -4   5 7982.28 492.194   1
   2   4   3 12067.7 343.888  -2
   2  -4  -5 12067.7 343.888   1
  -2  -4   4 2347.64 424.687   1
  -2   4  -2 5154.67 307.083  -2
  -2  -4   4 5154.67 307.083   1
   2  -4  -3 4545.04 613.948   1
  -2   4  -1 40121.5 502.095  -2
  -2  -4   3 40121.5 502.095   1
   2  -4  -2 2926.72 549.535   1
  -2   4   0 10227.7 357.381  -2
  -2  -4   2 10227.7 357.381   1
   2  -4  -1 14113.1 711.504   1
  -2   4   1 24888.4 476.099  -2
  -2  -4   1 24888.4 476.099   1
  -2  -4   0 9708.75 598.545   1
  -2   4   2 11652.2 503.571  -2
  -2  -4   0 11652.2 503.571   1
  -2   4   3 48171.6 482.579  -2
  -2  -4  -1 48171.6 482.579   1
  -2   4   4 5126.52 319.455  -2
  -2  -4  -2 5126.52 319.455   1
  -2   4   5 11018.1 326.231  -2
  -2  -4  -3 11018.1 326.231   1
  -2  -4  -4 3060.95 443.527   1
  -2   4   6 10565.7 366.599  -2
  -2  -4  -4 10565.7 366.599   1
  -2  -4  -5 1429.86 250.441   1
  -2   4   7 7483.87 599.940  -2
  -2  -4  -5 7483.87 599.940   1
  -2  -4  -6 4875.67 287.383   1
  -2   4   8 6471.18 616.402  -2
  -2  -4  -6 6471.18 616.402   1
  -2  -4  -7 5960.00 233.590   1
  -2   4   9 11225.8 655.901  -2
  -2  -4  -7 11225.8 655.901   1
  -2  -4  -8 213.312 233.878   1
  -2  -4  -9 3261.13 268.655   1
  -2  -4 -10 3918.02 290.036   1
   2  -4  11 277.840 262.360   1
   2  -3 -14 1504.18 261.995   1
  -2  -3  13 232.287 236.958   1
  -2  -3  12 3722.74 285.364   1
   2  -3 -11 33496.5 465.206   1
  -2  -3  10 69229.3 759.000   1
  -2  -3   9 613.021 337.031   1
  -2  -3   8 2388.74 395.978   1
  -2  -3   7 4990.17 423.605   1
   2  -3  -6 3218.64 385.049   1
  -2   3  -4 9304.09 729.982  -2
  -2  -3   6 9304.09 729.982   1
  -2  -3   5 7966.49 307.533   1
  -2   3  -3 13234.9 497.633  -2
  -2  -3   5 13234.9 497.633   1
   2  -3  -4 55388.7 657.745   1
  -2   3  -2 68047.2 584.299  -2
  -2  -3   4 68047.2 584.299   1
   2  -3  -3 3530.93 501.474   1
  -2   3  -1 9399.31 311.098  -2
  -2  -3   3 9399.31 311.098   1
  -2   3   0 17808.2 336.722  -2
  -2  -3   2 17808.2 336.722   1
  -2   3   1 5130.27 278.449  -2
  -2  -3   1 5130.27 278.449   1
  -2  -3   0 21742.1 831.928   1
  -2   3   2 20421.3 332.537  -2
  -2  -3   0 20421.3 332.537   1
  -2  -3  -1 7334.52 505.068   1
  -2   3   3 9565.59 265.120  -2
  -2  -3  -1 9565.59 265.120   1
  -2  -3  -2 8387.70 644.212   1
  -2   3   4 60225.5 430.545  -2
  -2  -3  -2 60225.5 430.545   1
  -2  -3  -3 4967.07 293.490   1
  -2   3   5 12720.0 355.662  -2
  -2  -3  -3 12720.0 355.662   1
  -2  -3  -4 7648.76 243.590   1
  -2   3   6 11154.7 577.060  -2
  -2  -3  -4 11154.7 577.060   1
  -2  -3  -5 4866.16 233.111   1
  -2   3   7 9236.14 588.672  -2
  -2  -3  -5 9236.14 588.672   1
  -2  -3  -6 233.611 185.971   1
  -2  -3  -7 4276.07 224.742   1
  -2  -3  -8 9918.18 309.724   1
   2  -3   9 850.989 233.335   1
  -2  -3 -10 7345.56 303.137   1
   2  -3  11 2985.97 313.090   1
   2  -3  12 34.4447 259.643   1
   2  -3  13 2214.72 279.115   1
  -2  -2  15 197.926 288.071   1
   2  -2 -14 3628.60 274.223   1
  -2  -2  13 1743.42 301.997   1
   2  -2 -12 2827.69 291.881   1
   2  -2 -11 3981.13 295.174   1
  -2  -2  10 29472.5 427.050   1
  -2  -2   9 6320.86 367.185   1
  -2  -2   8 4498.19 307.038   1
  -2  -2   7 8221.82 298.161   1
  -2  -2   6 27840.1 371.790   1
  -2  -2   5 69449.3 732.099   1
  -2  -2   4 5741.68 558.942   1
  -2  -2   3 106565. 1779.31   1
  -2   2  -1 158831. 2081.21  -2
  -2  -2   3 158831. 2081.21   1
  -2  -2   0 15668.1 431.737   1
  -2  -2  -3 13022.3 216.100   1
  -2  -2  -4 6261.84 177.636   1
  -2  -2  -5 2178.60 172.216   1
  -2  -2  -6 9413.52 234.963   1
  -2  -2  -7 23533.4 311.011   1
  -2  -2  -8 1346.28 229.639   1
  -2  -2  -9 38718.6 428.548   1
  -2  -2 -10 19880.5 389.718   1
   2  -2  11 10566.6 398.713   1
  -2  -2 -12 3346.29 311.802   1
   2  -2  13 93.1136 294.048   1
  -2  -2 -14 2293.69 250.603   1
   2  -1 -16 1490.64 390.084   1
   2  -1 -15 53.0310 374.755   1
   2  -1 -14 1936.57 306.395   1
  -2  -1  13 6969.61 319.507   1
   2  -1 -12 5870.34 311.414   1
   2  -1 -11 954.740 266.751   1
   2  -1 -10 17672.8 354.748   1
  -2  -1   9 7180.66 279.576   1
  -2  -1   8 4428.77 265.047   1
  -2  -1   7 51744.7 599.415   1
  -2  -1   5 45507.4 1118.55   1
  -2  -1   4 127290. 1118.63   1
  -2  -1   3 144122. 1006.85   1
   2  -1  -2 73762.0 454.684   1
   2  -1  -1 676450. 1258.05   1
  -2  -1   0 25952.5 404.718   1
   2  -1   1 76240.2 486.100   1
  -2  -1  -3 4119.35 525.892   1
  -2  -1  -4-69.0500 713.833   1
  -2  -1  -5 23803.4 299.841   1
  -2  -1  -6 63171.7 376.987   1
  -2  -1  -7 5914.47 226.592   1
  -2  -1  -8 67372.7 461.826   1
  -2  -1  -9 3254.75 260.010   1
  -2  -1 -10 6274.21 340.828   1
  -2  -1 -11 20307.7 478.940   1
  -2  -1 -12 9012.38 324.710   1
  -2  -1 -13 6381.80 332.308   1
  -2  -1 -14 1331.15 268.569   1
   2   0 -16 85.2586 296.189   1
   2   0 -15 2193.06 365.997   1
  -2   0  14 13874.0 505.364   1
  -2   0  13 2131.08 399.301   1
  -2   0  12 10967.0 387.253   1
   2   0 -11 1008.61 298.924   1
   2   0 -10 3954.29 299.731   1
  -2   0   9 9954.41 326.587   1
  -2   0   8 40129.8 512.036   1
  -2   0   7 174985. 1226.95   1
  -2   0   6 46925.1 940.599   1
  -2   0   5 172.171 280.364   1
   2   0  -4 8461.19 269.613   1
   2   0  -3 365810. 1038.59   1
   2   0  -2 160108. 438.508   1
  -2   0   1 24567.4 213.750   1
  -2   0   0 928931. 1001.39   1
  -2   0  -1 107080. 611.315   1
  -2   0  -2 7895.15 224.198   1
   2   0   3 34762.7 478.157   1
   2   0   4 28765.9 625.034   1
   2   0   5 9879.58 636.327   1
  -2   0  -6 67228.0 369.406   1
  -2   0  -7 747.349 213.850   1
   2   0   8 2986.18 258.494   1
  -2   0  -9 11743.2 386.938   1
  -2   0 -10 1887.92 278.548   1
  -2   0 -11 607.485 244.379   1
   2   0  12 308.546 236.501   1
  -2   0 -13 8072.77 259.358   1
  -2   0 -14 56.9283 321.289   1
  -2   1  16 1608.83 313.497   1
  -2   1  15 55.9904 338.220   1
  -2   1  14 1810.51 385.795   1
  -2   1  13 7854.50 493.896   1
  -2   1  12 5701.03 469.962   1
  -2   1  11 1051.67 414.796   1
   2   1 -10 17237.3 391.306   1
  -2   1   9 7312.50 305.145   1
  -2   1   8 4982.13 279.618   1
  -2   1   7 56181.8 395.586   1
  -2   1   6 2411.39 407.364   1
  -2   1   5 57798.1 835.780   1
  -2   1   4 134171. 980.023   1
   2   1  -3 147382. 953.469   1
   2   1  -2 75875.5 440.833   1
   2   1  -1 697858. 969.623   1
   2   1   0 25742.2 259.625   1
  -2   1  -1 83159.0 413.016   1
  -2   1  -2 7543.23 234.782   1
   2   1   3 3549.71 332.313   1
  -2   1  -4 39.7114 327.118   1
  -2   1  -5 24371.6 290.546   1
   2   1   6 61834.3 410.227   1
  -2   1  -7 6574.58 225.335   1
   2   1   8 64862.8 474.324   1
  -2   1  -9 3324.03 272.416   1
   2   1  10 6195.26 312.241   1
  -2   1 -11 19806.9 377.181   1
   2   1  12 8659.75 292.203   1
   2   1  13 6757.99 305.809   1
  -2   1 -14 1352.30 249.609   1
   2   2 -15 404.061 323.404   1
  -2   2  14 4342.83 397.459   1
  -2   2  13 1962.04 400.113   1
  -2   2  12 2887.15 436.512   1
  -2   2  11 3507.78 364.303   1
  -2   2  10 28575.2 545.857   1
  -2   2   9 6139.37 304.319   1
  -2   2   8 4598.47 270.612   1
  -2   2   7 8623.33 246.418   1
   2   2  -6 28101.4 314.694   1
  -2   2   5 75519.0 507.800   1
   2   2  -4 5952.50 508.449   1
  -2   2   3 114154. 1137.19   1
  -2   2   2 38379.2 187.436   1
  -2  -2   0 162581. 1244.42  -2
  -2   2   2 162581. 1244.42   1
   2   2  -1 14131.0 468.363   1
  -2  -2   1 27107.1 1150.12  -2
  -2   2   1 27107.1 1150.12   1
   2   2   0 17160.8 597.422   1
  -2  -2   2 134226. 1276.51  -2
  -2   2   0 134226. 1276.51   1
   2   2   1 40584.6 531.870   1
  -2   2  -2 22594.6 477.231   1
  -2   2  -3 13356.0 238.001   1
  -2   2  -4 5864.13 219.873   1
  -2   2  -5 2088.08 208.927   1
  -2   2  -6 9119.13 273.007   1
  -2   2  -7 22679.4 373.890   1
  -2   2  -8 1467.45 251.995   1
  -2   2  -9 39492.8 572.028   1
  -2   2 -10 19059.3 447.964   1
  -2   2 -11 10972.4 378.752   1
  -2   2 -12 3556.53 291.206   1
   2   2  13 39.4835 226.522   1
   2   2  14 1964.92 385.086   1
  -2   3  14 1875.65 289.826   1
   2   3 -13 268.097 317.034   1
  -2   3  12 3369.23 326.550   1
  -2   3  11 32165.4 499.637   1
  -2   3  10 69184.9 589.620   1
  -2   3   9 636.714 269.662   1
  -2   3   8 2438.87 279.087   1
  -2   3   7 4764.36 252.640   1
  -2   3   6 2868.17 232.087   1
  -2   3   5 7514.64 281.831   1
  -2  -3  -3 12510.8 435.376  -2
  -2   3   5 12510.8 435.376   1
  -2   3   4 57440.6 705.625   1
   2  -3   2 64797.4 543.823  -2
   2   3  -4 64797.4 543.823   1
  -2  -3  -1 9243.98 274.424  -2
  -2   3   3 9243.98 274.424   1
  -2  -3   0 18411.2 281.352  -2
  -2   3   2 18411.2 281.352   1
  -2   3   1 2908.67 309.861   1
  -2  -3   1 4774.00 336.955  -2
  -2   3   1 4774.00 336.955   1
  -2   3   0 14920.2 559.755   1
  -2  -3   2 19126.4 271.528  -2
  -2   3   0 19126.4 271.528   1
  -2   3  -1 6126.39 500.074   1
  -2  -3   3 9459.67 242.379  -2
  -2   3  -1 9459.67 242.379   1
   2   3   2 8670.31 522.842   1
  -2  -3   4 59107.6 401.463  -2
  -2   3  -2 59107.6 401.463   1
  -2   3  -3 5018.20 280.947   1
  -2  -3   5 12224.9 395.370  -2
  -2   3  -3 12224.9 395.370   1
  -2   3  -4 7028.64 231.772   1
  -2  -3   6 9922.24 612.452  -2
  -2   3  -4 9922.24 612.452   1
  -2   3  -5 4411.95 218.601   1
  -2  -3   7 9547.51 966.958  -2
  -2   3  -5 9547.51 966.958   1
  -2   3  -6 313.454 197.974   1
  -2   3  -7 4219.62 257.658   1
  -2   3  -8 10139.3 345.657   1
  -2   3  -9 959.194 260.557   1
  -2   3 -10 7629.66 313.957   1
   2   3  11 3109.02 257.029   1
  -2   3 -12 102.662 213.983   1
  -2   3 -13 2188.27 409.488   1
   2   4 -12 3615.96 340.350   1
   2   4 -11 3905.33 317.490   1
   2   4 -10 8554.00 386.624   1
  -2   4   9 7069.96 332.765   1
   2   4  -8 1726.49 312.337   1
  -2  -4  -6 6499.85 816.120  -2
  -2   4   8 6499.85 816.120   1
  -2   4   7 6466.42 362.155   1
   2  -4   5 8791.78 952.051  -2
   2   4  -7 8791.78 952.051   1
   2   4  -6 5477.60 442.568   1
  -2  -4  -4 10594.7 414.045  -2
  -2   4   6 10594.7 414.045   1
   2   4  -5 7404.21 495.306   1
  -2  -4  -3 9541.06 384.850  -2
  -2   4   5 9541.06 384.850   1
  -2   4   4 250.062 1414.64   1
   2  -4   2 4942.99 338.627  -2
   2   4  -4 4942.99 338.627   1
  -2   4   3 630.837 1389.43   1
  -2  -4  -1 33090.4 462.177  -2
  -2   4   3 33090.4 462.177   1
   2  -4   0 7881.67 407.090  -2
   2   4  -2 7881.67 407.090   1
  -2  -4   1 20956.9 425.467  -2
  -2   4   1 20956.9 425.467   1
  -2  -4   2 9535.98 347.139  -2
  -2   4   0 9535.98 347.139   1
  -2  -4   3 44943.0 472.234  -2
  -2   4  -1 44943.0 472.234   1
  -2  -4   4 4999.25 296.595  -2
  -2   4  -2 4999.25 296.595   1
  -2  -4   5 10415.5 343.339  -2
  -2   4  -3 10415.5 343.339   1
  -2   4  -4 3207.06 365.579   1
  -2  -4   6 10358.6 496.293  -2
  -2   4  -4 10358.6 496.293   1
  -2   4  -5 1227.98 274.427   1
  -2  -4   7 9528.89 697.683  -2
  -2   4  -5 9528.89 697.683   1
  -2   4  -6 4741.68 264.512   1
  -2   4  -7 6874.88 313.927   1
   2   4   8 417.077 247.739   1
   2   4   9 4211.15 264.158   1
  -2   4 -10 4620.27 255.704   1
   2   4  11 254.991 206.611   1
  -2   5  10 527.711 338.815   1
   2   5  -9 4283.25 309.743   1
  -2   5   8 2066.52 266.981   1
   2   5  -7 2382.60 563.364   1
   2  -5   5 5827.38 573.948  -2
   2   5  -7 5827.38 573.948   1
  -2   5   6 575.972 528.410   1
  -2  -5  -4 9486.98 622.320  -2
  -2   5   6 9486.98 622.320   1
  -2   5   5 625.649 740.255   1
  -2  -5  -3 2270.27 502.229  -2
  -2   5   5 2270.27 502.229   1
  -2   5   4-70.5247 1620.27   1
   2  -5   2 4106.56 470.380  -2
   2   5  -4 4106.56 470.380   1
  -2   5   3 503.772 1536.19   1
   2  -5   1 1748.99 462.166  -2
   2   5  -3 1748.99 462.166   1
  -2  -5   0 12668.8 533.913  -2
  -2   5   2 12668.8 533.913   1
   2  -5  -1 10291.2 521.122  -2
   2   5  -1 10291.2 521.122   1
  -2  -5   2 10823.7 608.644  -2
  -2   5   0 10823.7 608.644   1
  -2  -5   3 1372.89 559.968  -2
  -2   5  -1 1372.89 559.968   1
  -2  -5   4 5365.87 459.279  -2
  -2   5  -2 5365.87 459.279   1
  -2  -5   5 3075.53 429.294  -2
  -2   5  -3 3075.53 429.294   1
   2   5   4 8305.25 826.271   1
  -2  -5   6 10722.6 514.911  -2
  -2   5  -4 10722.6 514.911   1
  -2   5  -5 1510.56 346.381   1
  -2  -5   7 5754.18 844.047  -2
  -2   5  -5 5754.18 844.047   1
   2   5   6 1864.91 421.803   1
  -2  -5   8 3930.82 787.103  -2
  -2   5  -6 3930.82 787.103   1
  -2   5  -7 1752.17 271.421   1
  -2   5  -8 7320.62 402.707   1
  -2   6   6 959.737 521.454   1
  -2   6   5 158.475 419.550   1
  -2  -6  -3 799.450 611.409  -2
  -2   6   5 799.450 611.409   1
  -2  -6  -2 3236.26 452.257  -2
  -2   6   4 3236.26 452.257   1
  -2  -6  -1 4787.96 477.039  -2
  -2   6   3 4787.96 477.039   1
  -2  -6   0 1447.45 448.448  -2
  -2   6   2 1447.45 448.448   1
  -2  -6   1 4016.84 484.533  -2
  -2   6   1 4016.84 484.533   1
  -2  -6   2 1580.10 457.618  -2
  -2   6   0 1580.10 457.618   1
  -2  -6   3 5333.23 539.620  -2
  -2   6  -1 5333.23 539.620   1
  -2  -6   4 3416.45 518.942  -2
  -2   6  -2 3416.45 518.942   1
  -2  -6   5 583.832 487.361  -2
  -2   6  -3 583.832 487.361   1
   2   6   4 2304.11 631.515   1
  -2  -6   6 5663.39 1510.05  -2
  -2   6  -4 5663.39 1510.05   1
   3  -6  -4 1292.36 263.756   1
   3  -6  -3 4234.78 249.722   1
  -3   6   0 2762.93 521.179  -2
  -3  -6   3 2762.93 521.179   1
   3  -6  -2 250.253 201.429   1
  -3   6   1 2495.34 513.334  -2
  -3  -6   2 2495.34 513.334   1
  -3  -6   1 3294.49 218.908   1
  -3   6   2 2899.85 523.450  -2
  -3  -6   1 2899.85 523.450   1
  -3  -6   0 197.041 192.550   1
  -3  -6  -1 212.678 190.815   1
  -3  -6  -2 372.059 187.112   1
  -3  -6  -3 2423.91 229.146   1
   3  -5 -10 62.2405 192.846   1
   3  -5  -9 362.472 250.576   1
  -3  -5   8 1244.10 274.303   1
  -3  -5   7 323.199 278.639   1
  -3  -5   6 900.965 293.023   1
  -3  -5   5 2722.87 406.276   1
  -3   5  -2 5926.38 583.439  -2
  -3  -5   5 5926.38 583.439   1
   3  -5  -4 394.374 240.063   1
  -3   5  -1 13513.0 661.888  -2
  -3  -5   4 13513.0 661.888   1
  -3  -5   3 15236.2 292.624   1
  -3   5   0 19245.7 751.772  -2
  -3  -5   3 19245.7 751.772   1
  -3  -5   2 203.489 208.937   1
  -3   5   1 12410.8 716.588  -2
  -3  -5   2 12410.8 716.588   1
  -3  -5   1 12528.3 332.148   1
  -3   5   2 13287.5 684.674  -2
  -3  -5   1 13287.5 684.674   1
  -3  -5   0 3655.22 273.694   1
  -3   5   3 18303.4 749.966  -2
  -3  -5   0 18303.4 749.966   1
  -3  -5  -1 13049.6 332.332   1
  -3   5   4 13710.5 674.244  -2
  -3  -5  -1 13710.5 674.244   1
  -3  -5  -2 2859.99 257.244   1
  -3   5   5 5502.02 557.212  -2
  -3  -5  -2 5502.02 557.212   1
   3  -5   3 7015.63 279.992   1
  -3   5   6 7754.99 590.520  -2
  -3  -5  -3 7754.99 590.520   1
  -3  -5  -4 476.060 192.527   1
  -3  -5  -5 161.237 171.683   1
  -3  -5  -6 31.4285 309.137   1
  -3  -5  -7 1078.71 347.616   1
   3  -4 -13 6365.34 273.885   1
   3  -4 -12 1372.26 188.620   1
  -3  -4  11 384.261 208.300   1
  -3  -4  10 10541.8 344.736   1
   3  -4  -9 1343.80 280.780   1
  -3  -4   8 5916.86 361.356   1
  -3  -4   7 3005.38 326.040   1
  -3  -4   6 404.497 272.653   1
   3  -4  -5 2991.12 267.251   1
  -3  -4   4 3722.12 299.884   1
  -3   4  -1 9881.16 511.108  -2
  -3  -4   4 9881.16 511.108   1
  -3  -4   3 7643.26 360.394   1
  -3   4   0 37563.0 675.841  -2
  -3  -4   3 37563.0 675.841   1
  -3  -4   2 10618.4 386.270   1
  -3   4   1 29773.4 867.539  -2
  -3  -4   2 29773.4 867.539   1
  -3  -4   1 23924.8 416.692   1
  -3   4   2 31349.6 828.661  -2
  -3  -4   1 31349.6 828.661   1
  -3  -4   0 34845.3 473.776   1
  -3   4   3 39421.3 900.385  -2
  -3  -4   0 39421.3 900.385   1
  -3  -4  -1 6337.25 281.993   1
  -3   4   4 10279.4 621.150  -2
  -3  -4  -1 10279.4 621.150   1
  -3  -4  -2 2201.09 252.572   1
  -3   4   5 5024.72 560.509  -2
  -3  -4  -2 5024.72 560.509   1
  -3  -4  -3 6250.50 258.431   1
  -3  -4  -4 3211.63 243.017   1
  -3  -4  -5 12061.6 296.863   1
  -3  -4  -6 3502.17 207.390   1
   3  -4   7 4237.89 251.218   1
  -3  -4  -8 8739.22 297.064   1
   3  -4   9 1341.60 238.742   1
  -3  -4 -10 1035.13 254.486   1
  -3  -3  14 516.861 235.166   1
   3  -3 -13 899.313 254.359   1
  -3  -3  12 10375.4 314.213   1
  -3  -3  11 5217.83 292.657   1
   3  -3 -10 886.126 328.357   1
  -3  -3   9 3498.54 387.055   1
  -3  -3   8 15823.9 459.078   1
  -3  -3   7 866.916 337.095   1
  -3  -3   6 12246.3 302.468   1
  -3  -3   5 140.876 213.599   1
  -3  -3   4 10540.1 325.305   1
  -3   3  -1 47470.7 642.896  -2
  -3  -3   4 47470.7 642.896   1
  -3  -3   3 15491.8 486.055   1
  -3   3   0 36437.3 476.585  -2
  -3  -3   3 36437.3 476.585   1
  -3  -3   2 10988.6 310.411   1
  -3   3   1 22418.7 561.016  -2
  -3  -3   2 22418.7 561.016   1
  -3  -3   1 15493.2 423.797   1
  -3   3   2 22153.7 422.788  -2
  -3  -3   1 22153.7 422.788   1
  -3  -3   0 22644.5 312.584   1
  -3   3   3 34921.7 733.355  -2
  -3  -3   0 34921.7 733.355   1
  -3  -3  -1 45033.5 368.668   1
  -3  -3  -2 3204.61 196.748   1
  -3  -3  -3 1416.50 168.753   1
  -3  -3  -4 1734.87 193.303   1
  -3  -3  -5 4981.72 209.827   1
  -3  -3  -6 24213.4 292.260   1
  -3  -3  -7 5465.35 240.491   1
  -3  -3  -8 7263.35 311.558   1
  -3  -3  -9 7550.50 304.985   1
  -3  -3 -10 9780.83 348.774   1
  -3  -3 -11 4374.83 282.450   1
  -3  -3 -12 622.513 269.502   1
   3  -2 -15 205.006 324.026   1
   3  -2 -14 2977.98 300.313   1
  -3  -2  13 4141.44 299.528   1
  -3  -2  12 5428.88 304.637   1
   3  -2 -11 12302.6 346.970   1
  -3  -2  10 51946.4 539.095   1
  -3  -2   9 26361.8 455.981   1
  -3  -2   8 1013.12 270.059   1
  -3  -2   7 4266.96 267.682   1
  -3  -2   6 9916.36 286.304   1
  -3  -2   5 9729.15 251.644   1
  -3  -2   4 9023.77 242.934   1
  -3  -2   3 11308.1 226.949   1
  -3  -2   0 67827.0 794.261   1
  -3  -2  -1 71586.7 373.353   1
  -3  -2  -2 44051.4 299.647   1
  -3  -2  -3 7762.11 194.260   1
  -3  -2  -4 5402.45 180.580   1
  -3  -2  -5 8859.89 197.808   1
  -3  -2  -6 3368.78 203.174   1
  -3  -2  -7 4052.45 214.918   1
  -3  -2  -8 28379.9 380.022   1
  -3  -2  -9 4251.63 291.610   1
   3  -2  10 3937.04 318.619   1
  -3  -2 -11 1900.38 291.804   1
  -3  -2 -12 1661.13 279.601   1
   3  -2  13 678.774 233.148   1
   3  -1 -16 212.476 310.584   1
  -3  -1  15 3417.05 558.591   1
   3  -1 -14 8635.18 473.757   1
  -3  -1  13 10101.9 489.489   1
   3  -1 -12 576.302 283.151   1
  -3  -1  11 16884.3 323.071   1
  -3  -1  10 3092.15 237.484   1
   3  -1  -9 11637.9 265.618   1
  -3  -1   8 87270.1 592.320   1
  -3  -1   7 232.333 225.826   1
  -3  -1   6 21986.9 446.190   1
  -3  -1   5 41741.9 1054.31   1
   3  -1  -4 8908.16 437.774   1
  -3  -1   3 295245. 1326.90   1
  -3  -1   2 94822.8 551.034   1
  -3  -1   1 53645.5 555.292   1
  -3  -1   0 452.872 239.331   1
   3  -1   1 127364. 848.635   1
  -3  -1  -4 7796.44 180.614   1
  -3  -1  -5 9908.63 213.051   1
  -3  -1  -6 5194.25 196.107   1
  -3  -1  -7 1773.34 233.550   1
  -3  -1  -8 18496.5 349.996   1
  -3  -1  -9 17958.1 412.582   1
  -3  -1 -10 11233.6 384.476   1
  -3  -1 -11 4587.92 337.241   1
  -3  -1 -12 2730.66 271.823   1
   3  -1  13 1825.71 269.549   1
  -3  -1 -14 44.3981 287.511   1
  -3   0  16 629.704 319.529   1
  -3   0  15 196.047 327.549   1
  -3   0  14 10287.5 766.496   1
  -3   0  13 694.067 624.702   1
   3   0 -12 13348.1 429.276   1
  -3   0  11 3454.49 461.135   1
  -3   0  10 11928.8 493.174   1
   3   0  -9 34952.1 540.541   1
  -3   0   8 2049.52 388.805   1
  -3   0   7 85191.5 770.857   1
  -3   0   5 20173.1 496.010   1
   3   0  -4 33434.0 446.344   1
  -3   0   3 14943.2 220.422   1
   3   0  -2 500.455 197.947   1
  -3   0   1 219056. 787.334   1
  -3   0   0 1806.65 97.9486   1
   3   0   1 1884.01 179.593   1
  -3   0  -2 55236.4 573.584   1
  -3   0  -3 100306. 615.379   1
  -3   0  -4 2542.17 228.166   1
  -3   0  -5 1809.08 183.656   1
  -3   0  -6 4512.85 250.978   1
  -3   0  -7 3910.04 231.985   1
   3   0   8 828.484 222.489   1
  -3   0  -9 49079.3 521.415   1
  -3   0 -10 18560.9 349.176   1
  -3   0 -11 6610.63 371.090   1
  -3   0 -12 11697.9 387.211   1
  -3   0 -13 8102.98 285.806   1
  -3   0 -14 197.926 287.681   1
  -3   1  16 103.845 309.753   1
   3   1 -15 3255.58 370.393   1
  -3   1  14 9074.03 462.180   1
   3   1 -13 10781.1 499.691   1
   3   1 -12 758.129 379.955   1
  -3   1  11 18538.4 736.872   1
  -3   1  10 3436.07 389.090   1
  -3   1   9 12136.0 398.276   1
  -3   1   8 96567.9 521.245   1
   3   1  -7 312.287 199.180   1
  -3   1   6 21284.7 340.971   1
  -3   1   5 46954.4 716.508   1
   3   1  -4 8590.18 243.146   1
  -3   1   3 261317. 941.674   1
  -3   1   2 99029.8 511.476   1
  -3   1   1 57816.2 491.344   1
  -3   1   0 609.047 120.108   1
  -3   1  -1 151257. 635.438   1
  -3   1  -2 3241.51 277.048   1
  -3   1  -3 95642.9 945.261   1
  -3   1  -4 8163.52 206.280   1
  -3   1  -5 11333.7 214.449   1
   3   1   6 5668.70 203.034   1
   3   1   7 1735.55 204.463   1
  -3   1  -8 17735.1 355.299   1
   3   1   9 17105.0 363.093   1
  -3   1 -10 10945.5 320.875   1
   3   1  11 4638.23 314.109   1
   3   1  12 2734.21 285.351   1
  -3   1 -13 2034.81 305.302   1
  -3   2  16 8848.62 546.286   1
  -3   2  15 225.553 328.059   1
   3   2 -14 3198.53 390.115   1
  -3   2  13 4684.33 431.958   1
  -3   2  12 6070.25 455.250   1
  -3   2  11 12316.6 394.049   1
  -3   2  10 53015.9 608.726   1
   3   2  -9 27090.6 414.755   1
  -3   2   8 1009.37 211.089   1
  -3   2   7 4468.30 231.978   1
  -3   2   6 9810.81 243.183   1
  -3   2   5 10640.0 291.603   1
  -3   2   4 8739.53 248.692   1
  -3   2   3 9197.14 239.801   1
   3   2  -2 21195.4 599.510   1
   3   2  -1 50648.9 642.328   1
   3   2   0 63564.1 542.063   1
  -3   2  -1 70296.0 396.290   1
  -3   2  -2 43064.0 317.152   1
  -3   2  -3 8278.30 220.512   1
   3   2   4 5675.66 232.342   1
  -3   2  -5 9604.06 277.996   1
  -3   2  -6 3510.37 252.629   1
  -3   2  -7 4318.24 268.440   1
  -3   2  -8 29423.2 448.744   1
  -3   2  -9 4639.73 291.208   1
  -3   2 -10 4367.65 321.331   1
   3   2  11 1976.35 278.114   1
  -3   2 -12 1564.47 235.778   1
  -3   2 -13 649.050 244.906   1
   3   3 -14 495.522 348.255   1
  -3   3  13 1108.81 365.396   1
  -3   3  12 10556.9 411.314   1
  -3   3  11 5554.42 377.034   1
  -3   3  10 986.707 289.526   1
  -3   3   9 3511.41 311.523   1
  -3   3   8 15314.0 365.398   1
  -3   3   7 762.723 255.759   1
  -3   3   6 12760.6 321.268   1
  -3   3   5 132.594 281.312   1
  -3   3   4 9863.26 346.704   1
  -3   3   3 14092.5 289.774   1
   3  -3   0 27769.4 1927.99  -2
   3   3  -3 27769.4 1927.99   1
  -3   3   2 9248.80 333.980   1
   3  -3  -1 23214.8 915.120  -2
   3   3  -2 23214.8 915.120   1
  -3   3   1 12933.9 283.024   1
   3  -3  -2 19560.2 835.105  -2
   3   3  -1 19560.2 835.105   1
  -3   3   0 20459.4 310.394   1
  -3  -3   3 34512.6 568.379  -2
  -3   3   0 34512.6 568.379   1
   3   3   1 42355.3 339.737   1
  -3  -3   4 51384.4 1114.64  -2
  -3   3  -1 51384.4 1114.64   1
  -3   3  -2 2933.57 198.978   1
  -3   3  -3 1322.12 198.653   1
  -3   3  -4 1939.55 218.725   1
  -3   3  -5 5153.95 262.702   1
  -3   3  -6 25281.4 401.841   1
  -3   3  -7 5825.42 273.952   1
   3   3   8 8505.45 296.663   1
  -3   3  -9 7993.76 314.923   1
  -3   3 -10 10303.0 311.936   1
   3   3  11 4593.59 248.855   1
  -3   3 -12 538.242 246.320   1
   3   4 -13 4266.52 509.961   1
   3   4 -12 1702.00 289.924   1
  -3   4  11 450.001 297.285   1
  -3   4  10 8833.99 318.832   1
  -3   4   9 986.797 266.981   1
  -3   4   8 4789.17 311.847   1
  -3   4   7 2529.34 269.852   1
  -3   4   6 412.623 287.908   1
  -3   4   5 2655.30 302.401   1
  -3   4   4 2333.58 401.738   1
  -3  -4  -1 10296.8 630.583  -2
  -3   4   4 10296.8 630.583   1
  -3   4   3 5425.07 380.776   1
   3  -4   0 18921.7 803.216  -2
   3   4  -3 18921.7 803.216   1
  -3   4   2 7671.95 733.048   1
   3  -4  -1 21027.7 534.225  -2
   3   4  -2 21027.7 534.225   1
  -3   4   1 20019.7 653.004   1
  -3  -4   2 25202.4 541.619  -2
  -3   4   1 25202.4 541.619   1
   3   4   0 28954.4 627.522   1
  -3  -4   3 37659.1 830.635  -2
  -3   4   0 37659.1 830.635   1
  -3   4  -1 6185.82 362.754   1
  -3  -4   4 10180.5 677.811  -2
  -3   4  -1 10180.5 677.811   1
  -3   4  -2 2122.41 262.269   1
  -3  -4   5 4491.60 849.717  -2
  -3   4  -2 4491.60 849.717   1
  -3   4  -3 6364.00 278.099   1
  -3   4  -4 3345.79 274.971   1
  -3   4  -5 12454.6 347.437   1
   3   4   6 3891.07 285.169   1
  -3   4  -7 5326.96 293.813   1
  -3   4  -8 11177.4 320.210   1
   3   4   9 1708.43 228.357   1
   3   4  10 1215.93 210.791   1
  -3   5  10 129.405 311.255   1
  -3   5   9 568.091 275.731   1
   3   5  -8 1347.73 292.229   1
   3   5  -7 118.502 286.132   1
  -3   5   6 900.813 309.058   1
  -3   5   5 1326.19 503.816   1
   3  -5   2 5609.87 478.469  -2
   3   5  -5 5609.87 478.469   1
  -3   5   4 196.928 491.806   1
  -3  -5  -1 11245.2 525.623  -2
  -3   5   4 11245.2 525.623   1
  -3   5   3 11101.6 795.488   1
   3  -5   0 14673.5 509.351  -2
   3   5  -3 14673.5 509.351   1
  -3   5   2 212.728 629.263   1
  -3  -5   1 7969.40 488.593  -2
  -3   5   2 7969.40 488.593   1
  -3   5   1 8796.52 753.841   1
  -3  -5   2 10502.8 567.354  -2
  -3   5   1 10502.8 567.354   1
  -3   5   0 1883.62 534.247   1
  -3  -5   3 16886.3 986.764  -2
  -3   5   0 16886.3 986.764   1
   3   5   1 7646.07 771.734   1
  -3  -5   4 11920.7 968.779  -2
  -3   5  -1 11920.7 968.779   1
  -3   5  -2 2265.02 436.657   1
  -3  -5   5 4797.26 880.304  -2
  -3   5  -2 4797.26 880.304   1
   3   5   3 6566.14 405.171   1
  -3   5  -4 549.425 337.978   1
  -3   5  -5 272.814 318.238   1
  -3   5  -6 206.266 346.200   1
  -3   5  -7 2196.49 351.155   1
  -3   5  -8 496.274 309.937   1
   3   6  -5 412.099 403.689   1
  -3  -6  -2 1601.41 597.534  -2
  -3   6   5 1601.41 597.534   1
   3   6  -4 232.141 429.151   1
  -3  -6  -1 1477.52 597.398  -2
  -3   6   4 1477.52 597.398   1
  -3   6   3 2943.75 623.031   1
  -3  -6   0 2795.03 510.537  -2
  -3   6   3 2795.03 510.537   1
  -3   6   2 73.0626 635.677   1
  -3  -6   1 1256.03 505.270  -2
  -3   6   2 1256.03 505.270   1
  -3   6   1 515.241 1333.68   1
  -3  -6   2 2250.77 509.220  -2
  -3   6   1 2250.77 509.220   1
   3   6   0 3.94174 525.090   1
  -3  -6   3 3493.06 656.468  -2
  -3   6   0 3493.06 656.468   1
   3   6   1 116.494 512.539   1
  -3  -6   4 1323.10 652.401  -2
  -3   6  -1 1323.10 652.401   1
   3   6   2 132.854 527.760   1
  -3  -6   5 1555.18 637.317  -2
  -3   6  -2 1555.18 637.317   1
  -4  -6   3 864.447 498.245   1
  -4  -6   2 389.995 507.672   1
   4  -6  -1 3997.86 373.454   1
   4  -6   0 207.462 345.913   1
  -4  -5  10 52.3036 233.106   1
  -4  -5   9 83.1702 239.077   1
  -4  -5   8 690.363 260.915   1
  -4  -5   7 1962.12 252.981   1
  -4  -5   6 625.677 235.931   1
  -4  -5   5 1888.84 235.641   1
  -4  -5   4 3211.73 267.576   1
  -4   5   0 4077.04 542.984  -2
  -4  -5   4 4077.04 542.984   1
  -4  -5   3 4357.42 274.593   1
  -4   5   1 5620.93 564.789  -2
  -4  -5   3 5620.93 564.789   1
  -4  -5   2 1352.32 251.306   1
  -4   5   2 2425.46 514.596  -2
  -4  -5   2 2425.46 514.596   1
  -4  -5   1 767.263 219.880   1
  -4   5   3 5288.70 543.193  -2
  -4  -5   1 5288.70 543.193   1
   4  -5   0 280.008 215.981   1
  -4   5   4 3711.93 522.717  -2
  -4  -5   0 3711.93 522.717   1
  -4  -5  -1 2208.33 200.896   1
  -4  -5  -2 412.311 189.422   1
   4  -5   3 830.828 187.735   1
   4  -5   4 172.159 226.195   1
   4  -5   5 316.279 216.666   1
  -4  -5  -6 327.027 267.378   1
   4  -4 -13 2559.02 303.725   1
   4  -4 -12 4771.55 233.348   1
   4  -4 -11 2337.18 204.404   1
  -4  -4  10 1082.68 236.302   1
  -4  -4   9 1057.17 256.651   1
  -4  -4   8 7539.85 313.908   1
  -4  -4   7 767.554 261.016   1
  -4  -4   6 11376.8 335.358   1
   4  -4  -5 8417.06 297.185   1
  -4  -4   4 5553.06 219.596   1
  -4  -4   3 11397.5 314.279   1
  -4   4   1 15398.7 463.640  -2
  -4  -4   3 15398.7 463.640   1
  -4  -4   2 5210.37 303.674   1
  -4   4   2 9739.58 492.644  -2
  -4  -4   2 9739.58 492.644   1
  -4  -4   1 4431.99 272.714   1
  -4   4   3 15204.4 662.119  -2
  -4  -4   1 15204.4 662.119   1
  -4  -4   0 1235.85 210.001   1
  -4  -4  -1 13980.1 281.296   1
  -4  -4  -2 15295.7 293.266   1
  -4  -4  -3 7624.64 268.550   1
  -4  -4  -4 158.731 208.937   1
  -4  -4  -5 2125.83 209.027   1
  -4  -4  -6 9650.04 306.875   1
  -4  -4  -7 9875.71 299.951   1
  -4  -4  -8 311.817 296.583   1
  -4  -4  -9 642.962 481.685   1
   4  -3 -14 4347.53 263.694   1
  -4  -3  13 6237.99 261.521   1
  -4  -3  12 21.6913 208.386   1
   4  -3 -11 14999.4 346.264   1
  -4  -3  10 23075.5 533.316   1
  -4  -3   9 3322.78 278.408   1
  -4  -3   8 14.5562 235.397   1
  -4  -3   7 7312.73 283.475   1
  -4  -3   6 7650.99 282.284   1
  -4  -3   5 8172.91 230.222   1
  -4  -3   4 1990.45 227.255   1
  -4  -3   3 9601.90 261.779   1
  -4  -3   2 26029.9 314.312   1
  -4   3   2 50036.9 877.389  -2
  -4  -3   2 50036.9 877.389   1
  -4  -3   1 2211.20 175.947   1
  -4  -3   0 3864.46 202.416   1
  -4  -3  -1 4395.90 209.899   1
  -4  -3  -2 7415.06 222.020   1
  -4  -3  -3 148.174 155.841   1
  -4  -3  -4 2593.15 187.181   1
  -4  -3  -5 23575.3 297.565   1
   4  -3   6 3798.61 240.312   1
   4  -3   7 2558.63 277.418   1
   4  -3   8 255.874 248.620   1
  -4  -3  -9 4126.76 264.071   1
  -4  -3 -10 3124.57 275.377   1
  -4  -3 -11 576.806 365.401   1
   4  -2 -15 2294.29 338.319   1
   4  -2 -14 1720.84 313.066   1
  -4  -2  13 5448.03 381.265   1
  -4  -2  12 9861.61 415.387   1
  -4  -2  11 11499.4 359.709   1
  -4  -2  10 626.504 252.252   1
  -4  -2   9 11211.7 360.962   1
  -4  -2   8 3391.15 294.260   1
  -4  -2   7 995.521 229.810   1
  -4  -2   6 2189.93 264.537   1
  -4  -2   5 35585.3 379.891   1
  -4  -2   4 24693.5 266.577   1
  -4  -2   3 64115.5 373.427   1
  -4  -2   2 193745. 591.320   1
  -4  -2   1 2849.17 153.434   1
  -4  -2   0 14207.1 211.953   1
  -4  -2  -1 58034.7 351.052   1
  -4  -2  -2 10358.5 212.012   1
  -4  -2  -3 22674.9 248.122   1
  -4  -2  -4 166.740 145.840   1
  -4  -2  -5 5146.12 244.126   1
  -4  -2  -6 7236.75 257.828   1
  -4  -2  -7 3712.36 278.900   1
  -4  -2  -8 5026.31 265.870   1
  -4  -2  -9 882.651 285.741   1
  -4  -2 -10 13561.1 367.544   1
  -4  -2 -11 411.948 256.910   1
  -4  -2 -12 216.662 213.848   1
   4  -1 -16 2287.70 327.678   1
  -4  -1  15 896.716 502.265   1
  -4  -1  14 1600.57 405.937   1
   4  -1 -13 11992.3 512.061   1
  -4  -1  12 716.368 325.069   1
  -4  -1  11 13710.8 370.562   1
   4  -1 -10 38598.5 467.897   1
  -4  -1   9 33704.5 453.227   1
  -4  -1   8 8680.84 301.597   1
  -4  -1   7 20626.3 327.082   1
  -4  -1   6 27798.9 332.348   1
  -4  -1   5 11180.2 309.220   1
  -4  -1   4 10432.6 639.972   1
  -4  -1   3 82876.4 1206.75   1
  -4  -1   2 5468.82 599.226   1
  -4  -1   1 65162.1 1044.49   1
  -4  -1   0 17032.8 591.233   1
  -4  -1  -1 44551.6 426.309   1
  -4  -1  -2 22525.9 228.623   1
  -4  -1  -3 17580.7 270.111   1
  -4  -1  -4 24630.9 274.306   1
  -4  -1  -5 11138.6 252.648   1
  -4  -1  -6 3820.05 250.781   1
  -4  -1  -7 2584.56 254.506   1
  -4  -1  -8 35386.9 505.997   1
  -4  -1  -9 18763.0 414.883   1
  -4  -1 -10 1972.80 297.159   1
  -4  -1 -11 4518.18 270.457   1
  -4  -1 -12 2656.87 268.424   1
  -4  -1 -13 1391.87 296.918   1
  -4   0  16 763.056 313.767   1
  -4   0  15 2651.02 371.383   1
  -4   0  14 8135.67 677.000   1
  -4   0  13 25748.9 600.834   1
  -4   0  12 209.406 390.469   1
  -4   0  11 31194.1 633.622   1
  -4   0  10 709.109 469.874   1
  -4   0   9 18255.8 575.589   1
  -4   0   8 14991.5 469.239   1
  -4   0   7 54.9031 319.402   1
  -4   0   6 416.617 284.825   1
  -4   0   5 2327.72 357.914   1
   4   0  -4 4073.05 189.952   1
  -4   0   3 7979.47 407.938   1
   4   0  -2 25001.8 598.293   1
  -4   0   1 2056.72 606.316   1
  -4   0   0 223.814 664.844   1
  -4   0  -1 2056.05 291.105   1
  -4   0  -2 9914.94 281.139   1
  -4   0  -3 4612.11 223.245   1
  -4   0  -4 12620.2 259.195   1
  -4   0  -5 390.309 234.078   1
  -4   0  -6 8603.72 306.302   1
  -4   0  -7 1570.10 258.526   1
  -4   0  -8 53.2726 261.419   1
  -4   0  -9 10589.9 350.790   1
  -4   0 -10 9891.20 344.490   1
  -4   0 -11 146.880 297.261   1
  -4   0 -12 1486.03 299.634   1
  -4   0 -13 166.899 278.652   1
  -4   1  16 2201.70 336.105   1
  -4   1  15 790.810 347.009   1
   4   1 -14 1625.47 313.942   1
  -4   1  13 12571.4 518.242   1
  -4   1  12 642.844 342.765   1
  -4   1  11 15126.2 673.154   1
  -4   1  10 44485.7 849.064   1
  -4   1   9 36104.6 524.387   1
  -4   1   8 8779.30 257.397   1
  -4   1   7 21342.6 285.256   1
  -4   1   6 28640.4 312.694   1
  -4   1   5 11552.6 255.670   1
  -4   1   4 10458.2 261.643   1
  -4   1   3 79431.6 691.062   1
  -4   1   2 4883.18 402.782   1
   4   1  -1 25378.6 336.101   1
  -4   1   0 10906.0 206.491   1
  -4   1  -1 46604.7 435.494   1
  -4   1  -2 24402.1 270.563   1
  -4   1  -3 19880.6 267.240   1
  -4   1  -4 27577.2 310.500   1
  -4   1  -5 12099.5 270.029   1
  -4   1  -6 4107.90 243.554   1
  -4   1  -7 2593.08 258.112   1
  -4   1  -8 34326.8 479.038   1
  -4   1  -9 16894.4 462.823   1
   4   1  10 1729.44 325.898   1
   4   1  11 4537.86 381.719   1
  -4   1 -12 2651.04 285.025   1
  -4   1 -13 1274.33 288.153   1
  -4   2  15 3720.46 365.627   1
  -4   2  14 2197.84 373.591   1
   4   2 -13 6343.92 448.859   1
  -4   2  12 11089.7 455.135   1
  -4   2  11 12335.5 386.918   1
  -4   2  10 790.196 294.332   1
  -4   2   9 11870.2 296.229   1
   4   2  -8 3375.02 238.539   1
  -4   2   7 1107.10 256.399   1
  -4   2   6 2536.39 288.620   1
  -4   2   5 34555.5 414.149   1
  -4   2   4 23102.0 309.030   1
  -4   2   3 61999.6 458.005   1
  -4   2   2 191090. 671.403   1
  -4   2   1 2724.47 219.147   1
  -4   2   0 14323.3 246.300   1
  -4   2  -1 56331.9 375.798   1
  -4   2  -2 10393.4 243.187   1
   4   2   3 23738.2 322.791   1
  -4   2  -4 144.717 203.332   1
  -4   2  -5 5502.92 260.677   1
  -4   2  -6 7654.82 293.307   1
  -4   2  -7 4045.28 261.736   1
  -4   2  -8 5346.36 277.431   1
   4   2   9 777.782 242.449   1
  -4   2 -10 12333.3 331.124   1
   4   2  11 629.378 269.111   1
   4   2  12 409.319 242.517   1
  -4   3  13 7417.91 454.815   1
  -4   3  12 63.5912 318.891   1
  -4   3  11 14946.6 416.640   1
  -4   3  10 19573.4 454.474   1
  -4   3   9 3377.35 336.161   1
  -4   3   8-52.1510 321.723   1
  -4   3   7 7680.20 374.608   1
  -4   3   6 7755.29 371.602   1
  -4   3   5 7697.91 361.935   1
  -4   3   4 1711.56 272.125   1
  -4   3   3 8881.47 283.963   1
  -4   3   2 25080.2 349.159   1
   4   3  -1 2037.08 219.368   1
  -4   3   0 3787.01 244.893   1
  -4   3  -1 4592.18 232.495   1
   4   3   2 7429.12 262.960   1
  -4   3  -3 119.562 213.962   1
  -4   3  -4 3034.15 256.323   1
  -4   3  -5 27025.8 406.525   1
  -4   3  -6 4271.45 271.394   1
   4   3   7 3285.18 254.560   1
  -4   3  -8 207.427 225.929   1
  -4   3  -9 4317.08 270.895   1
   4   3  10 3304.95 245.986   1
  -4   3 -11 600.668 242.262   1
   4   4 -13 2004.71 449.482   1
   4   4 -12 6113.41 546.246   1
   4   4 -11 2636.28 352.152   1
  -4   4  10 1033.25 298.791   1
  -4   4   9 810.138 331.875   1
  -4   4   8 7527.37 331.827   1
  -4   4   7 717.040 283.880   1
  -4   4   6 9748.58 356.075   1
  -4   4   5 7472.98 348.549   1
  -4   4   4 5088.00 327.772   1
   4   4  -3 9276.62 340.698   1
  -4   4   2 4202.73 349.088   1
  -4  -4   2 7915.88 871.659  -2
  -4   4   2 7915.88 871.659   1
  -4   4   1 3774.50 301.110   1
  -4  -4   3 12610.8 973.272  -2
  -4   4   1 12610.8 973.272   1
  -4   4   0 1212.80 297.793   1
  -4   4  -1 13972.1 418.586   1
  -4   4  -2 16870.5 446.343   1
  -4   4  -3 7958.96 313.532   1
  -4   4  -4 238.429 255.849   1
  -4   4  -5 2718.64 275.013   1
  -4   4  -6 11267.4 337.891   1
   4   4   7 12430.2 322.348   1
   4   4   8 405.810 225.339   1
   4   4   9 1231.65 249.410   1
  -4   5  10 122.904 296.977   1
  -4   5   9-20.4084 252.111   1
  -4   5   8 826.004 274.113   1
  -4   5   7 1768.21 286.003   1
  -4   5   6 581.369 247.566   1
  -4   5   5 1394.69 260.820   1
  -4   5   4 2310.75 312.500   1
  -4  -5   0 3142.61 772.363  -2
  -4   5   4 3142.61 772.363   1
   4   5  -3 3354.78 390.311   1
  -4  -5   1 4613.15 573.016  -2
  -4   5   3 4613.15 573.016   1
  -4   5   2 964.943 364.992   1
  -4  -5   2 2076.53 574.616  -2
  -4   5   2 2076.53 574.616   1
   4   5  -1 537.815 496.870   1
  -4  -5   3 3809.74 591.965  -2
  -4   5   1 3809.74 591.965   1
  -4   5   0 214.017 649.484   1
  -4  -5   4 2954.53 580.443  -2
  -4   5   0 2954.53 580.443   1
  -4   5  -1 1545.35 372.283   1
  -4   5  -2 516.610 319.496   1
  -4   5  -3 998.324 315.866   1
   4   5   4 201.335 326.603   1
  -4   5  -5 516.552 315.195   1
  -4   5  -6 463.293 303.078   1
   4   6  -4 46.8650 580.807   1
  -4  -6   0 3037.80 591.265  -2
  -4   6   4 3037.80 591.265   1
   4   6  -3 58.6876 558.748   1
  -4  -6   1 6782.87 640.279  -2
  -4   6   3 6782.87 640.279   1
   4   6  -2 137.179 561.030   1
  -4  -6   2 942.065 601.717  -2
  -4   6   2 942.065 601.717   1
   4   6  -1 1377.44 602.344   1
  -4  -6   3 6886.20 647.434  -2
  -4   6   1 6886.20 647.434   1
   4   6   0 105.589 573.887   1
  -4  -6   4 2702.78 605.017  -2
  -4   6   0 2702.78 605.017   1
  -5  -5   9 506.814 238.898   1
  -5  -5   8 144.862 242.828   1
  -5  -5   7 61.5945 279.002   1
  -5  -5   6 66.1973 291.948   1
  -5  -5   5 666.491 542.452   1
  -5   5  -1 4591.39 503.991  -2
  -5  -5   5 4591.39 503.991   1
  -5  -5   4 1268.91 279.389   1
  -5   5   0 3615.71 496.293  -2
  -5  -5   4 3615.71 496.293   1
  -5  -5   3 531.291 249.877   1
  -5   5   1 1301.28 402.799  -2
  -5  -5   3 1301.28 402.799   1
  -5  -5   2 1693.22 248.072   1
  -5   5   2 3629.24 422.254  -2
  -5  -5   2 3629.24 422.254   1
  -5  -5   1 550.412 214.330   1
  -5   5   3 1468.84 465.738  -2
  -5  -5   1 1468.84 465.738   1
  -5  -5   0 1578.38 215.829   1
  -5   5   4 3279.06 506.703  -2
  -5  -5   0 3279.06 506.703   1
  -5  -5  -1 2132.54 219.966   1
  -5   5   5 3459.94 504.069  -2
  -5  -5  -1 3459.94 504.069   1
  -5  -5  -2 1492.42 181.805   1
   5  -5   3 47.8519 212.235   1
  -5  -5  -4 20.8762 200.341   1
  -5  -5  -5 331.294 291.574   1
  -5  -4  12 3678.38 249.472   1
  -5  -4  11 2922.25 260.312   1
  -5  -4  10 2607.80 271.071   1
  -5  -4   9 379.867 287.556   1
  -5  -4   8 1593.29 271.621   1
  -5  -4   7 11299.3 344.844   1
  -5  -4   6 295.208 275.838   1
  -5   4  -2 4971.09 831.629  -2
  -5  -4   6 4971.09 831.629   1
  -5  -4   5 487.982 296.305   1
  -5   4  -1 8104.29 421.628  -2
  -5  -4   5 8104.29 421.628   1
  -5  -4   4 7019.26 304.761   1
  -5   4   0 25422.1 523.423  -2
  -5  -4   4 25422.1 523.423   1
  -5  -4   3 1006.88 278.826   1
  -5   4   1 1265.47 420.527  -2
  -5  -4   3 1265.47 420.527   1
  -5  -4   2 11660.1 356.079   1
  -5   4   2 24236.3 608.358  -2
  -5  -4   2 24236.3 608.358   1
  -5  -4   1 186.734 238.002   1
  -5   4   3 1163.69 417.665  -2
  -5  -4   1 1163.69 417.665   1
  -5  -4   0 16348.3 358.594   1
  -5   4   4 24196.4 588.685  -2
  -5  -4   0 24196.4 588.685   1
  -5  -4  -1 6801.58 254.989   1
  -5   4   5 7328.22 758.629  -2
  -5  -4  -1 7328.22 758.629   1
  -5  -4  -2 3991.89 235.342   1
  -5  -4  -3 1807.33 215.064   1
  -5  -4  -4 206.481 248.202   1
  -5  -4  -5 8792.52 346.098   1
  -5  -4  -6 1436.42 345.019   1
  -5  -4  -7 5084.77 355.060   1
  -5  -4  -8 677.572 458.457   1
   5  -3 -14 532.721 270.757   1
  -5  -3  13 4086.87 288.976   1
  -5  -3  12 2061.98 265.893   1
  -5  -3  11 1201.69 239.727   1
  -5  -3  10 454.405 250.460   1
  -5  -3   9 4870.82 251.369   1
  -5  -3   8 7780.43 267.568   1
  -5  -3   7 4842.00 241.520   1
  -5  -3   6 2455.89 243.498   1
  -5  -3   5 4022.29 324.463   1
  -5   3  -1 23710.7 612.383  -2
  -5  -3   5 23710.7 612.383   1
  -5  -3   4 16979.0 497.032   1
  -5   3   0 17271.9 558.164  -2
  -5  -3   4 17271.9 558.164   1
  -5  -3   3 5333.61 293.829   1
  -5   3   1 49455.4 596.900  -2
  -5  -3   3 49455.4 596.900   1
  -5  -3   2 82420.1 607.273   1
  -5   3   2 160529. 923.742  -2
  -5  -3   2 160529. 923.742   1
  -5  -3   1 45910.1 496.176   1
  -5   3   3 50854.2 716.479  -2
  -5  -3   1 50854.2 716.479   1
  -5  -3   0 1301.30 201.453   1
  -5   3   4 17422.1 812.148  -2
  -5  -3   0 17422.1 812.148   1
  -5  -3  -1 19610.3 294.489   1
  -5  -3  -2 4037.20 212.357   1
  -5  -3  -3 1771.59 200.415   1
  -5  -3  -4 4809.53 274.784   1
  -5  -3  -5 648.338 244.891   1
  -5  -3  -6 13506.9 320.558   1
   5  -3   7 7067.70 358.793   1
  -5  -3  -8 656.004 293.958   1
   5  -3   9 706.481 356.137   1
  -5  -3 -10 1059.52 547.148   1
  -5  -2  15 282.769 296.761   1
   5  -2 -14 30.5464 344.709   1
  -5  -2  13 7219.34 317.985   1
  -5  -2  12 2952.92 295.387   1
  -5  -2  11 762.641 277.880   1
  -5  -2  10 25331.9 391.035   1
  -5  -2   9 40952.3 439.404   1
  -5  -2   8 6602.08 303.096   1
  -5  -2   7 20480.9 310.110   1
  -5  -2   6 413.798 184.083   1
  -5  -2   5 1808.92 212.648   1
  -5  -2   4 28872.1 382.519   1
  -5   2   0 26721.7 703.863  -2
  -5  -2   4 26721.7 703.863   1
  -5  -2   3 1504.51 237.477   1
  -5   2   1 10002.2 438.047  -2
  -5  -2   3 10002.2 438.047   1
  -5  -2   2 23661.6 320.662   1
  -5   2   2 42940.9 764.176  -2
  -5  -2   2 42940.9 764.176   1
  -5  -2   1 9540.35 205.637   1
  -5   2   3 10206.6 520.320  -2
  -5  -2   1 10206.6 520.320   1
  -5  -2   0 718.445 162.622   1
  -5  -2  -1 3561.22 182.464   1
  -5  -2  -2 3149.47 186.792   1
  -5  -2  -3 5491.47 248.306   1
  -5  -2  -4 7261.91 274.067   1
  -5  -2  -5 10540.7 284.663   1
  -5  -2  -6 8591.88 318.133   1
  -5  -2  -7 719.567 253.776   1
  -5  -2  -8 7463.63 305.473   1
  -5  -2  -9 6720.09 289.792   1
   5  -2  10 7604.56 301.644   1
  -5  -2 -11 643.312 271.316   1
  -5  -1  16 1759.75 299.322   1
  -5  -1  15 709.047 408.996   1
  -5  -1  14 1611.02 407.360   1
  -5  -1  13 19220.4 539.113   1
   5  -1 -12 2282.55 341.420   1
  -5  -1  11 19050.3 472.138   1
  -5  -1  10 65550.3 579.839   1
  -5  -1   9 14518.2 377.627   1
  -5  -1   8 11981.2 339.755   1
  -5  -1   7 3023.15 220.535   1
  -5  -1   6 28230.2 328.194   1
  -5  -1   5 22586.7 268.163   1
  -5  -1   4 45382.4 383.578   1
  -5   1   0 40219.6 721.986  -2
  -5  -1   4 40219.6 721.986   1
  -5  -1   3 39222.8 446.145   1
  -5  -1   2 53503.8 509.064   1
  -5  -1   1 14236.0 280.883   1
  -5  -1   0 42.0916 220.650   1
  -5   1   4 37395.9 654.668  -2
  -5  -1   0 37395.9 654.668   1
  -5  -1  -1 25147.2 294.284   1
  -5  -1  -2 12799.1 254.940   1
  -5  -1  -3 33277.7 356.341   1
  -5  -1  -4 412.148 184.103   1
  -5  -1  -5 8859.95 298.404   1
  -5  -1  -6 1809.44 254.610   1
  -5  -1  -7 23642.1 450.587   1
  -5  -1  -8 6682.71 338.447   1
  -5  -1  -9 6561.15 318.067   1
  -5  -1 -10 3394.30 252.652   1
  -5  -1 -11 2294.23 247.904   1
   5  -1  12 3755.87 272.308   1
  -5   0  16 151.912 318.988   1
  -5   0  15 6932.12 411.069   1
  -5   0  14 8711.55 447.580   1
  -5   0  13 13058.8 508.051   1
  -5   0  12-27.6049 362.255   1
  -5   0  11 2977.41 382.791   1
  -5   0  10 539.814 326.131   1
  -5   0   9 8134.14 492.920   1
  -5   0   8 12179.9 493.427   1
  -5   0   7 26838.3 541.315   1
  -5   0   6 1741.78 355.689   1
  -5   0   5 36547.4 460.451   1
  -5   0   4 38907.5 443.661   1
  -5   0   1 3533.13 588.152   1
  -5   0   0 856.000 268.303   1
  -5   0  -1 7690.05 279.270   1
  -5   0  -2 50545.9 429.834   1
  -5   0  -3 14205.2 295.129   1
  -5   0  -4 2382.78 273.791   1
  -5   0  -5 2258.27 281.781   1
  -5   0  -6 4879.78 272.613   1
  -5   0  -7 30765.4 429.435   1
  -5   0  -8 35.1816 233.267   1
  -5   0  -9 49025.5 559.301   1
  -5   0 -10 6793.23 372.630   1
  -5   0 -11 340.173 282.034   1
  -5   0 -12 39.6318 287.854   1
  -5   1  16 2424.50 482.553   1
  -5   1  15 921.902 291.199   1
  -5   1  14 1919.05 309.039   1
  -5   1  13 17705.4 445.480   1
  -5   1  12 2621.56 385.245   1
  -5   1  11 21201.6 520.161   1
  -5   1  10 74940.6 1039.65   1
  -5   1   9 14773.5 449.745   1
  -5   1   8 11880.7 299.408   1
  -5   1   7 3309.16 271.942   1
  -5   1   6 29671.5 379.129   1
  -5   1   5 23379.1 337.999   1
  -5   1   4 46372.3 556.138   1
  -5   1   3 40985.7 640.751   1
  -5   1   2 51924.7 801.614   1
  -5   1   1 14883.3 588.200   1
  -5   1   0 94.3982 323.482   1
  -5   1  -1 28710.0 378.692   1
  -5   1  -2 14981.7 300.005   1
  -5   1  -3 39906.9 415.200   1
  -5   1  -4 476.343 223.352   1
  -5   1  -5 9074.96 305.206   1
  -5   1  -6 2054.83 281.272   1
  -5   1  -7 21969.5 502.118   1
   5   1   8 6652.81 373.784   1
  -5   1  -9 6051.99 322.597   1
   5   1  10 3403.02 289.971   1
   5   1  11 2288.42 288.501   1
  -5   1 -12 5184.33 312.846   1
  -5   2  15 482.207 349.789   1
  -5   2  14 121.761 559.240   1
  -5   2  13 8425.54 589.369   1
  -5   2  12 3579.54 578.645   1
  -5   2  11 878.536 541.626   1
  -5   2  10 33063.2 608.807   1
  -5   2   9 46397.0 491.772   1
  -5   2   8 6893.66 310.444   1
  -5   2   7 21326.7 438.305   1
  -5   2   6 354.582 295.114   1
  -5   2   5 1816.19 309.389   1
  -5   2   4 26227.6 384.399   1
  -5   2   3 1470.63 305.456   1
  -5   2   2 22750.8 407.435   1
  -5   2   1 9718.51 308.239   1
  -5   2   0 730.965 253.277   1
  -5   2  -1 3514.70 242.308   1
  -5   2  -2 3800.09 255.672   1
  -5   2  -3 6428.79 276.811   1
  -5   2  -4 8352.58 338.812   1
  -5   2  -5 12216.7 374.385   1
  -5   2  -6 8866.04 352.378   1
  -5   2  -7 662.346 276.133   1
   5   2   8 7187.30 323.423   1
  -5   2  -9 6393.96 307.405   1
   5   2  10 7867.30 331.796   1
   5   2  11 803.805 271.534   1
   5   3 -14 578.951 471.132   1
  -5   3  12 3752.04 1120.16   1
  -5   3  11 1160.61 486.107   1
  -5   3  10 572.196 400.148   1
  -5   3   9 5339.71 360.970   1
  -5   3   8 7579.53 388.084   1
  -5   3   7 4738.52 356.252   1
  -5   3   6 2212.17 348.884   1
  -5   3   5 3688.39 308.372   1
  -5   3   4 14215.5 379.644   1
  -5   3   3 5060.57 369.357   1
  -5  -3   1 41855.2 812.872  -2
  -5   3   3 41855.2 812.872   1
  -5   3   2 74184.8 684.523   1
  -5  -3   2 137854. 1709.29  -2
  -5   3   2 137854. 1709.29   1
  -5   3   1 48397.7 588.976   1
  -5  -3   3 46069.4 1218.00  -2
  -5   3   1 46069.4 1218.00   1
  -5   3   0 1565.26 278.172   1
  -5  -3   4 13366.8 966.760  -2
  -5   3   0 13366.8 966.760   1
   5   3   1 21427.7 385.232   1
  -5   3  -2 4674.18 264.763   1
  -5   3  -3 2153.89 244.207   1
  -5   3  -4 6051.21 283.306   1
  -5   3  -5 788.452 239.897   1
  -5   3  -6 16022.2 341.937   1
   5   3   7 8344.94 285.202   1
   5   3   8 757.281 242.735   1
   5   3   9 917.843 267.811   1
   5   3  10 1352.03 272.113   1
   5   4 -12 3968.91 512.732   1
  -5   4  11 2259.75 339.084   1
  -5   4  10 2453.01 370.768   1
  -5   4   9 465.904 307.802   1
  -5   4   8 1721.30 287.370   1
  -5   4   7 9871.35 350.846   1
  -5   4   6 346.071 283.918   1
  -5   4   5 418.778 294.049   1
  -5   4   4 5639.76 388.459   1
  -5  -4   0 22146.3 987.285  -2
  -5   4   4 22146.3 987.285   1
  -5   4   3 840.414 326.398   1
  -5  -4   1 995.681 780.457  -2
  -5   4   3 995.681 780.457   1
  -5   4   2 9522.05 386.168   1
  -5  -4   2 19934.8 989.453  -2
  -5   4   2 19934.8 989.453   1
  -5   4   1 269.347 431.987   1
  -5  -4   3 963.624 585.339  -2
  -5   4   1 963.624 585.339   1
  -5   4   0 15233.8 610.642   1
  -5  -4   4 21396.4 1074.62  -2
  -5   4   0 21396.4 1074.62   1
  -5   4  -1 7193.70 516.501   1
  -5  -4   5 7330.90 907.817  -2
  -5   4  -1 7330.90 907.817   1
  -5   4  -2 4055.14 331.076   1
  -5   4  -3 2201.64 340.130   1
  -5   4  -4 263.853 293.038   1
  -5   4  -5 12506.2 383.685   1
   5   4   6 1996.38 282.986   1
   5   4   7 6864.54 312.443   1
  -5   4  -8 1495.24 256.001   1
   5   5  -9 478.262 291.538   1
  -5   5   8 119.709 248.773   1
  -5   5   7 10.5220 255.060   1
  -5   5   6 121.948 230.088   1
   5   5  -5 840.497 332.554   1
  -5  -5  -1 3333.76 502.596  -2
  -5   5   5 3333.76 502.596   1
   5   5  -4 877.936 349.155   1
  -5  -5   0 2765.54 510.367  -2
  -5   5   4 2765.54 510.367   1
   5   5  -3 254.878 471.979   1
  -5  -5   1 1059.27 500.929  -2
  -5   5   3 1059.27 500.929   1
   5   5  -2 533.045 661.508   1
  -5  -5   2 2690.20 528.068  -2
  -5   5   2 2690.20 528.068   1
   5   5  -1 461.671 623.415   1
  -5  -5   3 900.099 531.092  -2
  -5   5   1 900.099 531.092   1
   5   5   0 1254.67 645.349   1
  -5  -5   4 2802.26 546.929  -2
  -5   5   0 2802.26 546.929   1
  -5   5  -1 1622.45 432.112   1
  -5  -5   5 3393.48 797.792  -2
  -5   5  -1 3393.48 797.792   1
  -5   5  -2 1218.24 333.652   1
  -5   5  -3 257.945 351.116   1
  -5   5  -4 188.572 321.746   1
  -5   5  -5 773.840 504.438   1
  -6  -5   8 102.291 234.735   1
  -6  -5   7 1064.95 550.632   1
  -6   5  -2 5227.00 459.266  -2
  -6  -5   7 5227.00 459.266   1
  -6  -5   6 79.2290 546.338   1
  -6   5  -1 351.449 418.884  -2
  -6  -5   6 351.449 418.884   1
  -6  -5   5 1067.20 575.079   1
  -6   5   0 2031.38 390.203  -2
  -6  -5   5 2031.38 390.203   1
  -6  -5   4 731.724 591.975   1
  -6   5   1 1741.08 388.471  -2
  -6  -5   4 1741.08 388.471   1
  -6  -5   3 1921.89 428.283   1
  -6   5   2 4703.31 413.424  -2
  -6  -5   3 4703.31 413.424   1
  -6  -5   2 1416.05 339.512   1
  -6   5   3 4391.83 412.090  -2
  -6  -5   2 4391.83 412.090   1
  -6  -5   1 407.199 231.788   1
  -6   5   4 1858.06 374.079  -2
  -6  -5   1 1858.06 374.079   1
  -6  -5   0 339.063 300.929   1
  -6   5   5 2060.56 378.519  -2
  -6  -5   0 2060.56 378.519   1
   6  -5   1 158.114 303.839   1
  -6   5   6 193.595 358.763  -2
  -6  -5  -1 193.595 358.763   1
  -6  -5  -2 493.781 273.632   1
  -6   5   7 3036.67 427.025  -2
  -6  -5  -2 3036.67 427.025   1
  -6  -5  -3 325.643 198.105   1
  -6  -4  12 647.800 342.285   1
  -6  -4  11 408.905 238.201   1
  -6  -4  10 914.654 225.560   1
  -6  -4   9 1687.73 255.419   1
  -6  -4   8 4082.48 592.285   1
  -6   4  -3 6882.67 399.886  -2
  -6  -4   8 6882.67 399.886   1
  -6  -4   7 4076.81 578.462   1
  -6   4  -2 8163.67 413.594  -2
  -6  -4   7 8163.67 413.594   1
  -6  -4   6 2615.76 608.301   1
  -6   4  -1 4922.06 393.881  -2
  -6  -4   6 4922.06 393.881   1
  -6  -4   5 5030.17 654.126   1
  -6   4   0 9596.39 442.885  -2
  -6  -4   5 9596.39 442.885   1
   6  -4  -4 903.838 458.663   1
  -6   4   1 8159.65 500.609  -2
  -6  -4   4 8159.65 500.609   1
  -6  -4   3 1584.82 471.123   1
  -6   4   2 13468.4 482.212  -2
  -6  -4   3 13468.4 482.212   1
  -6  -4   2 9163.38 345.829   1
  -6   4   3 11970.8 455.211  -2
  -6  -4   2 11970.8 455.211   1
  -6  -4   1 5076.86 305.605   1
  -6   4   4 7784.96 419.205  -2
  -6  -4   1 7784.96 419.205   1
  -6  -4   0 1975.06 267.914   1
  -6   4   5 9903.52 424.741  -2
  -6  -4   0 9903.52 424.741   1
  -6  -4  -1 1395.01 263.293   1
  -6   4   6 4729.11 386.972  -2
  -6  -4  -1 4729.11 386.972   1
  -6  -4  -2 1958.34 331.353   1
  -6   4   7 6927.63 565.373  -2
  -6  -4  -2 6927.63 565.373   1
  -6  -4  -3 223.507 240.743   1
  -6  -4  -4 119.129 227.845   1
  -6  -4  -5 2969.39 352.664   1
  -6  -4  -6-22.0128 285.724   1
  -6  -3  14 189.124 485.782   1
   6  -3 -13 3223.76 271.311   1
  -6  -3  12 1023.78 280.691   1
  -6  -3  11 862.885 257.648   1
  -6  -3  10 1926.38 282.759   1
  -6  -3   9 7646.45 344.061   1
  -6   3  -4 12056.9 719.834  -2
  -6  -3   9 12056.9 719.834   1
  -6  -3   8 540.341 377.903   1
  -6   3  -3 4607.90 426.205  -2
  -6  -3   8 4607.90 426.205   1
  -6  -3   7 3936.30 417.971   1
  -6   3  -2 16514.8 498.813  -2
  -6  -3   7 16514.8 498.813   1
  -6  -3   6 2327.77 383.359   1
  -6   3  -1 5997.55 430.612  -2
  -6  -3   6 5997.55 430.612   1
  -6  -3   5 6560.16 624.402   1
  -6   3   0 8819.36 439.211  -2
  -6  -3   5 8819.36 439.211   1
  -6  -3   4 2414.43 596.360   1
  -6   3   1 2577.67 386.740  -2
  -6  -3   4 2577.67 386.740   1
  -6  -3   3 10755.9 514.111   1
  -6   3   2 17762.7 514.380  -2
  -6  -3   3 17762.7 514.380   1
  -6  -3   2 4212.72 428.324   1
  -6   3   3 18439.4 510.855  -2
  -6  -3   2 18439.4 510.855   1
  -6  -3   1 249.156 265.193   1
  -6   3   4 2801.56 369.647  -2
  -6  -3   1 2801.56 369.647   1
  -6  -3   0 2056.04 276.087   1
  -6   3   5 8678.28 420.587  -2
  -6  -3   0 8678.28 420.587   1
  -6  -3  -1 2575.73 254.749   1
  -6   3   6 5482.56 441.279  -2
  -6  -3  -1 5482.56 441.279   1
  -6  -3  -2 7995.22 404.028   1
  -6   3   7 15762.3 525.025  -2
  -6  -3  -2 15762.3 525.025   1
  -6  -3  -3 2962.94 282.396   1
  -6  -3  -4 3006.05 281.761   1
  -6  -3  -5 2794.60 253.429   1
  -6  -3  -6 6366.73 310.155   1
  -6  -3  -7 2211.60 386.193   1
  -6  -3  -8 472.777 344.293   1
  -6  -2  15 494.627 383.961   1
  -6  -2  14 393.125 317.178   1
  -6  -2  13 1150.60 266.549   1
   6  -2 -12 1805.26 275.867   1
   6  -2 -11 1465.19 275.582   1
  -6  -2  10 2125.50 313.468   1
  -6   2  -5 2445.98 631.595  -2
  -6  -2  10 2445.98 631.595   1
  -6  -2   9 10965.4 365.226   1
  -6   2  -4 14758.3 759.523  -2
  -6  -2   9 14758.3 759.523   1
  -6  -2   8 3372.42 297.065   1
  -6   2  -3 3686.63 615.895  -2
  -6  -2   8 3686.63 615.895   1
  -6  -2   7 1500.99 360.059   1
  -6   2  -2 4510.92 421.263  -2
  -6  -2   7 4510.92 421.263   1
  -6  -2   6 10362.9 442.986   1
  -6   2  -1 28444.5 531.672  -2
  -6  -2   6 28444.5 531.672   1
  -6  -2   5 12735.8 454.761   1
  -6   2   0 22890.9 499.154  -2
  -6  -2   5 22890.9 499.154   1
  -6  -2   4 37527.6 638.666   1
  -6   2   1 52228.3 647.131  -2
  -6  -2   4 52228.3 647.131   1
  -6  -2   3 13097.0 384.121   1
  -6   2   2 73616.6 753.243  -2
  -6  -2   3 73616.6 753.243   1
  -6  -2   2 56765.2 576.900   1
  -6   2   3 74385.8 621.652  -2
  -6  -2   2 74385.8 621.652   1
  -6  -2   1 13779.2 400.323   1
  -6   2   4 50767.0 706.956  -2
  -6  -2   1 50767.0 706.956   1
  -6  -2   0 8989.49 378.693   1
  -6   2   5 22389.7 540.470  -2
  -6  -2   0 22389.7 540.470   1
  -6  -2  -1 15656.9 442.463   1
  -6   2   6 28761.0 580.675  -2
  -6  -2  -1 28761.0 580.675   1
  -6  -2  -2 2407.69 343.728   1
  -6   2   7 4840.14 426.087  -2
  -6  -2  -2 4840.14 426.087   1
  -6  -2  -3 1079.36 275.540   1
  -6   2   8 3829.35 559.948  -2
  -6  -2  -3 3829.35 559.948   1
  -6  -2  -4 4934.93 298.126   1
  -6  -2  -5 1038.94 319.595   1
  -6  -2  -6 1081.23 316.403   1
  -6  -2  -7 4173.59 350.147   1
  -6  -2  -8 608.428 290.190   1
  -6  -2  -9 206.490 259.971   1
  -6  -2 -10 3337.41 361.266   1
  -6  -1  16 2030.21 407.111   1
  -6  -1  15 1909.83 743.408   1
  -6  -1  14 118.462 277.033   1
  -6  -1  13 18787.6 482.902   1
  -6  -1  12 19771.9 500.680   1
  -6  -1  11 2755.57 341.189   1
  -6  -1  10 10103.2 406.400   1
  -6  -1   9 11713.5 416.251   1
  -6  -1   8 1004.27 287.022   1
  -6   1  -3 1936.76 629.416  -2
  -6  -1   8 1936.76 629.416   1
  -6  -1   7 19518.0 359.610   1
  -6   1  -2 21615.3 759.085  -2
  -6  -1   7 21615.3 759.085   1
  -6  -1   6 2635.65 307.925   1
  -6   1  -1 5795.79 498.319  -2
  -6  -1   6 5795.79 498.319   1
  -6  -1   5 5870.19 357.612   1
  -6   1   0 21047.8 632.694  -2
  -6  -1   5 21047.8 632.694   1
  -6  -1   4 19267.5 480.331   1
  -6   1   1 20761.6 899.759  -2
  -6  -1   4 20761.6 899.759   1
  -6  -1   3 12532.0 431.726   1
  -6   1   2 13863.1 804.167  -2
  -6  -1   3 13863.1 804.167   1
  -6  -1   2 958.183 270.184   1
  -6   1   3 11865.9 720.057  -2
  -6  -1   2 11865.9 720.057   1
  -6  -1   1 1238.11 277.016   1
  -6   1   4 19894.4 790.384  -2
  -6  -1   1 19894.4 790.384   1
  -6  -1   0 13748.8 391.734   1
  -6   1   5 23850.6 796.921  -2
  -6  -1   0 23850.6 796.921   1
  -6  -1  -1 3627.59 323.420   1
  -6   1   6 5671.20 430.885  -2
  -6  -1  -1 5671.20 430.885   1
  -6  -1  -2 7961.15 311.394   1
  -6   1   7 17161.5 665.359  -2
  -6  -1  -2 17161.5 665.359   1
  -6  -1  -3 1686.00 262.684   1
  -6   1   8 1648.63 559.773  -2
  -6  -1  -3 1648.63 559.773   1
  -6  -1  -4 10797.9 395.216   1
  -6  -1  -5 4948.00 444.707   1
  -6  -1  -6 9746.28 365.483   1
  -6  -1  -7 6358.23 299.227   1
  -6  -1  -8 2637.48 262.829   1
  -6  -1  -9 2192.39 283.438   1
  -6  -1 -10 2266.15 255.685   1
  -6   0  16 10917.3 454.954   1
  -6   0  15 1866.66 320.974   1
  -6   0  14 13834.3 391.299   1
  -6   0  13 14562.9 509.671   1
  -6   0  12 810.843 367.782   1
  -6   0  11 3157.25 376.576   1
  -6   0  10 10710.8 422.217   1
  -6   0   9 7540.77 380.360   1
  -6   0   8 4802.48 309.269   1
  -6   0   7 4440.34 285.996   1
  -6   0   6 2037.69 353.899   1
  -6   0  -1 4401.20 514.420  -2
  -6   0   6 4401.20 514.420   1
  -6   0   5 83986.0 800.435   1
  -6   0   0 100178. 1431.23  -2
  -6   0   5 100178. 1431.23   1
  -6   0   4 2090.31 338.277   1
  -6   0   1 2336.80 744.672  -2
  -6   0   4 2336.80 744.672   1
  -6   0   3 593.258 323.846   1
  -6   0   2 7907.90 764.092  -2
  -6   0   3 7907.90 764.092   1
  -6   0   2 7875.21 350.734   1
  -6   0   3 8411.44 723.969  -2
  -6   0   2 8411.44 723.969   1
  -6   0   1 311.626 426.851   1
  -6   0   4 2277.92 655.355  -2
  -6   0   1 2277.92 655.355   1
  -6   0   0 30395.8 638.953   1
  -6   0   5 111842. 1224.29  -2
  -6   0   0 111842. 1224.29   1
  -6   0  -1 2860.36 328.994   1
  -6   0  -2 3151.89 316.286   1
  -6   0  -3 6293.13 352.459   1
  -6   0  -4 1113.42 312.645   1
  -6   0  -5 6.89495 292.313   1
  -6   0  -6 7050.11 360.606   1
  -6   0  -7 8377.40 359.764   1
  -6   0  -8 5642.53 335.604   1
  -6   0  -9 7669.52 350.513   1
  -6   0 -10 1088.10 282.588   1
  -6   1  15 3000.82 327.121   1
  -6   1  14 200.108 356.236   1
  -6   1  13 19242.4 539.859   1
  -6   1  12 20911.2 523.146   1
  -6   1  11 2999.03 505.407   1
  -6   1  10 11978.1 604.352   1
  -6   1   9 11980.3 450.682   1
  -6   1   8 940.538 363.624   1
  -6   1   7 18274.4 415.697   1
  -6   1   6 2618.72 473.622   1
  -6  -1  -1 6490.93 804.887  -2
  -6   1   6 6490.93 804.887   1
  -6   1   5 4065.29 1240.90   1
  -6  -1   0 20540.5 922.153  -2
  -6   1   5 20540.5 922.153   1
  -6  -1   1 17689.5 809.938  -2
  -6   1   4 17689.5 809.938   1
  -6   1   3 13707.1 694.589   1
  -6  -1   2 8689.85 1783.87  -2
  -6   1   3 8689.85 1783.87   1
  -6   1   2 1145.07 555.730   1
  -6  -1   3 6347.22 1815.12  -2
  -6   1   2 6347.22 1815.12   1
  -6   1   1 1522.77 387.897   1
  -6  -1   4 10119.6 1944.93  -2
  -6   1   1 10119.6 1944.93   1
  -6   1   0 19331.9 525.750   1
  -6   1  -1 5009.09 421.080   1
  -6   1  -2 9624.39 331.841   1
  -6   1  -3 2048.49 281.130   1
  -6   1  -4 11863.6 362.214   1
  -6   1  -5 5965.06 320.069   1
  -6   1  -6 10438.1 401.200   1
  -6   1  -7 6286.46 367.706   1
   6   1   8 2778.87 316.359   1
  -6   1  -9 2658.26 297.947   1
  -6   1 -10 2889.45 272.734   1
  -6   2  15 578.569 429.856   1
  -6   2  14 582.799 358.224   1
  -6   2  13 1693.13 524.593   1
  -6   2  12 2720.15 543.967   1
  -6   2  11 1884.15 566.292   1
  -6   2  10 2318.05 571.246   1
  -6   2   9 13122.0 410.814   1
  -6   2   8 3231.53 335.639   1
  -6   2   7 1538.73 366.966   1
  -6  -2  -2 3742.89 898.014  -2
  -6   2   7 3742.89 898.014   1
  -6   2   6 9641.17 434.166   1
  -6  -2  -1 23938.3 1039.02  -2
  -6   2   6 23938.3 1039.02   1
  -6   2   5 16260.2 687.009   1
  -6  -2   0 19116.2 852.844  -2
  -6   2   5 19116.2 852.844   1
  -6   2   4 41319.6 632.736   1
  -6  -2   1 42656.1 1003.34  -2
  -6   2   4 42656.1 1003.34   1
  -6   2   3 14656.4 481.459   1
  -6  -2   2 43055.8 2186.14  -2
  -6   2   3 43055.8 2186.14   1
  -6   2   2 70668.5 1188.54   1
  -6  -2   3 58963.7 2239.65  -2
  -6   2   2 58963.7 2239.65   1
  -6   2   1 17207.8 739.106   1
  -6  -2   4 35529.8 2113.41  -2
  -6   2   1 35529.8 2113.41   1
  -6   2   0 11340.6 405.623   1
  -6  -2   5 17010.2 1985.44  -2
  -6   2   0 17010.2 1985.44   1
  -6   2  -1 21452.2 455.811   1
  -6   2  -2 3488.49 309.353   1
  -6   2  -3 1491.40 296.950   1
  -6   2  -4 7043.76 341.531   1
  -6   2  -5 1319.71 299.189   1
  -6   2  -6 1047.35 292.058   1
  -6   2  -7 4454.83 327.220   1
   6   2   8 825.035 276.169   1
   6   2   9 232.658 253.423   1
  -6   2 -10 5458.76 323.638   1
  -6   3  14 280.483 302.410   1
   6   3 -13 4392.15 539.399   1
  -6   3  12 1634.46 1002.63   1
  -6   3  11 1042.40 1125.16   1
  -6   3  10 2057.42 524.929   1
  -6   3   9 8610.23 374.109   1
  -6   3   8 678.092 281.083   1
  -6   3   7 3880.32 368.637   1
  -6  -3  -2 16365.9 934.401  -2
  -6   3   7 16365.9 934.401   1
  -6   3   6 2431.59 457.795   1
  -6  -3  -1 4239.92 566.545  -2
  -6   3   6 4239.92 566.545   1
  -6  -3   0 6908.52 493.812  -2
  -6   3   5 6908.52 493.812   1
  -6   3   4 1584.28 631.132   1
  -6  -3   1 2352.43 576.739  -2
  -6   3   4 2352.43 576.739   1
  -6   3   3 10924.0 518.390   1
  -6  -3   2 14921.2 681.593  -2
  -6   3   3 14921.2 681.593   1
  -6   3   2 5481.91 622.109   1
  -6  -3   3 13203.4 942.894  -2
  -6   3   2 13203.4 942.894   1
  -6   3   1 386.772 403.927   1
  -6  -3   4 2383.26 846.087  -2
  -6   3   1 2383.26 846.087   1
  -6   3   0 2362.75 324.275   1
  -6  -3   5 6287.00 888.359  -2
  -6   3   0 6287.00 888.359   1
  -6   3  -1 3022.57 344.233   1
  -6  -3   6 4417.97 988.768  -2
  -6   3  -1 4417.97 988.768   1
  -6   3  -2 11705.7 401.883   1
  -6  -3   7 13269.3 1019.00  -2
  -6   3  -2 13269.3 1019.00   1
  -6   3  -3 3833.09 317.414   1
  -6   3  -4 4252.01 299.908   1
  -6   3  -5 4064.21 303.792   1
   6   3   6 7197.03 310.069   1
  -6   3  -7 3410.05 264.640   1
   6   3   8 655.814 247.356   1
   6   4 -11 193.202 389.269   1
  -6   4  10 1104.21 342.614   1
  -6   4   9 1542.08 297.376   1
  -6   4   8 4777.74 345.026   1
  -6  -4  -3 6790.89 733.738  -2
  -6   4   8 6790.89 733.738   1
  -6   4   7 3679.16 432.414   1
  -6  -4  -2 6404.01 534.705  -2
  -6   4   7 6404.01 534.705   1
   6   4  -6 3180.43 596.822   1
  -6  -4  -1 3970.14 455.654  -2
  -6   4   6 3970.14 455.654   1
   6   4  -5 6894.31 662.288   1
  -6  -4   0 7084.79 477.907  -2
  -6   4   5 7084.79 477.907   1
   6   4  -4 139.096 778.903   1
  -6  -4   1 6072.12 494.111  -2
  -6   4   4 6072.12 494.111   1
   6   4  -3 636.076 798.288   1
  -6  -4   2 9681.93 627.626  -2
  -6   4   3 9681.93 627.626   1
   6   4  -2 6876.76 926.441   1
  -6  -4   3 10097.3 622.083  -2
  -6   4   2 10097.3 622.083   1
   6   4  -1 5358.09 941.490   1
  -6  -4   4 5914.04 610.007  -2
  -6   4   1 5914.04 610.007   1
  -6   4   0 1401.64 507.037   1
  -6  -4   5 6900.33 595.482  -2
  -6   4   0 6900.33 595.482   1
  -6   4  -1 1062.38 539.583   1
  -6  -4   6 3470.40 887.480  -2
  -6   4  -1 3470.40 887.480   1
  -6   4  -2 2560.73 525.043   1
  -6  -4   7 5728.41 909.851  -2
  -6   4  -2 5728.41 909.851   1
  -6   4  -3 451.176 373.882   1
  -6   4  -4 125.279 284.462   1
  -6   4  -5 4389.28 306.234   1
   6   4   6-0.64970 410.875   1
   6   5  -8 27.0507 683.298   1
   6   5  -7 853.913 392.695   1
  -6  -5  -2 3245.19 604.811  -2
  -6   5   7 3245.19 604.811   1
   6   5  -6 143.657 410.661   1
  -6  -5  -1 502.663 429.064  -2
  -6   5   6 502.663 429.064   1
   6   5  -5 435.258 435.739   1
  -6  -5   0 1797.20 445.175  -2
  -6   5   5 1797.20 445.175   1
   6   5  -4 247.166 723.818   1
  -6  -5   1 1201.31 459.857  -2
  -6   5   4 1201.31 459.857   1
   6   5  -3 570.024 726.686   1
  -6  -5   2 3419.95 480.417  -2
  -6   5   3 3419.95 480.417   1
   6   5  -2 783.352 704.885   1
  -6  -5   3 3271.37 484.842  -2
  -6   5   2 3271.37 484.842   1
   6   5  -1 261.081 723.246   1
  -6  -5   4 1139.75 462.185  -2
  -6   5   1 1139.75 462.185   1
   6   5   0 167.490 628.995   1
  -6  -5   5 1276.45 495.559  -2
  -6   5   0 1276.45 495.559   1
  -6   5  -1 40.2296 1179.47   1
  -6  -5   6 477.231 495.694  -2
  -6   5  -1 477.231 495.694   1
  -6   5  -2 914.587 477.446   1
  -7   5   1 1930.32 359.788  -2
  -7  -5   5 1930.32 359.788   1
  -7   5   2 7995.08 406.639  -2
  -7  -5   4 7995.08 406.639   1
  -7   5   3 1011.33 352.960  -2
  -7  -5   3 1011.33 352.960   1
  -7   5   4 7093.83 397.309  -2
  -7  -5   2 7093.83 397.309   1
  -7   5   5 2169.15 420.421  -2
  -7  -5   1 2169.15 420.421   1
   7   4   4 1999.64 303.086  -2
   7  -4 -10 1999.64 303.086   1
  -7   4  -3 222.152 301.833  -2
  -7  -4   9 222.152 301.833   1
  -7   4  -2 2838.06 323.491  -2
  -7  -4   8 2838.06 323.491   1
  -7   4  -1 3030.06 357.165  -2
  -7  -4   7 3030.06 357.165   1
  -7   4   0 4692.84 384.852  -2
  -7  -4   6 4692.84 384.852   1
  -7   4   1 943.129 349.168  -2
  -7  -4   5 943.129 349.168   1
  -7   4   2 5023.17 365.598  -2
  -7  -4   4 5023.17 365.598   1
   7   4  -3 2051.00 308.013  -2
   7  -4  -3 2051.00 308.013   1
  -7   4   4 4167.83 321.260  -2
  -7  -4   2 4167.83 321.260   1
  -7   4   5 1305.77 289.277  -2
  -7  -4   1 1305.77 289.277   1
  -7   4   6 3696.58 293.883  -2
  -7  -4   0 3696.58 293.883   1
  -7  -4  -1 717.275 635.943   1
  -7   4   7 3140.78 341.267  -2
  -7  -4  -1 3140.78 341.267   1
  -7  -4  -2 1655.98 624.952   1
  -7   4   8 1558.27 318.810  -2
  -7  -4  -2 1558.27 318.810   1
  -7  -4  -3 128.718 556.643   1
  -7   4   9 173.972 290.169  -2
  -7  -4  -3 173.972 290.169   1
  -7   4  10 1136.50 375.148  -2
  -7  -4  -4 1136.50 375.148   1
  -7  -3  13 2988.41 391.646   1
  -7  -3  12 2815.12 453.157   1
  -7   3  -6 2399.47 435.525  -2
  -7  -3  12 2399.47 435.525   1
   7   3   5 1927.12 339.246  -2
   7  -3 -11 1927.12 339.246   1
  -7   3  -4 2149.30 358.964  -2
  -7  -3  10 2149.30 358.964   1
  -7   3  -3 2780.49 364.191  -2
  -7  -3   9 2780.49 364.191   1
  -7   3  -2 12662.0 421.357  -2
  -7  -3   8 12662.0 421.357   1
  -7   3  -1 16081.7 456.043  -2
  -7  -3   7 16081.7 456.043   1
  -7   3   0 6323.98 388.832  -2
  -7  -3   6 6323.98 388.832   1
  -7   3   1 37755.8 582.762  -2
  -7  -3   5 37755.8 582.762   1
  -7   3   2 24632.0 518.108  -2
  -7  -3   4 24632.0 518.108   1
  -7   3   3 55618.0 680.824  -2
  -7  -3   3 55618.0 680.824   1
  -7   3   4 23167.0 447.077  -2
  -7  -3   2 23167.0 447.077   1
  -7  -3   1 5940.19 1299.85   1
  -7   3   5 35356.7 499.079  -2
  -7  -3   1 35356.7 499.079   1
  -7   3   6 5091.49 322.118  -2
  -7  -3   0 5091.49 322.118   1
  -7   3   7 12887.2 364.677  -2
  -7  -3  -1 12887.2 364.677   1
  -7   3   8 11892.6 346.874  -2
  -7  -3  -2 11892.6 346.874   1
  -7  -3  -3 1624.54 620.896   1
  -7   3   9 2157.16 349.742  -2
  -7  -3  -3 2157.16 349.742   1
  -7  -3  -4 978.022 611.929   1
  -7   3  10 1872.39 435.426  -2
  -7  -3  -4 1872.39 435.426   1
  -7  -3  -5 1229.73 531.527   1
  -7   3  11 1260.25 613.953  -2
  -7  -3  -5 1260.25 613.953   1
  -7  -3  -6 252.870 407.353   1
  -7   3  12 2620.67 777.707  -2
  -7  -3  -6 2620.67 777.707   1
  -7  -3  -7 481.170 562.003   1
  -7   3  13 2713.97 707.810  -2
  -7  -3  -7 2713.97 707.810   1
  -7  -2  14 5072.05 661.621   1
  -7   2  -8 8322.58 724.997  -2
  -7  -2  14 8322.58 724.997   1
  -7  -2  13 7506.24 466.631   1
  -7   2  -7 13156.8 814.667  -2
  -7  -2  13 13156.8 814.667   1
  -7  -2  12 638.174 397.960   1
  -7   2  -6 3037.50 512.043  -2
  -7  -2  12 3037.50 512.043   1
  -7  -2  11 8148.83 636.528   1
  -7   2  -5 7807.74 422.255  -2
  -7  -2  11 7807.74 422.255   1
  -7   2  -4 27690.9 514.897  -2
  -7  -2  10 27690.9 514.897   1
  -7  -2   9 9244.10 1134.14   1
  -7   2  -3 19593.8 452.407  -2
  -7  -2   9 19593.8 452.407   1
  -7   2  -2 20663.8 439.886  -2
  -7  -2   8 20663.8 439.886   1
  -7   2  -1 3887.70 338.551  -2
  -7  -2   7 3887.70 338.551   1
  -7   2   0 17967.8 421.709  -2
  -7  -2   6 17967.8 421.709   1
  -7   2   1 10868.6 376.874  -2
  -7  -2   5 10868.6 376.874   1
  -7   2   2 36809.4 553.467  -2
  -7  -2   4 36809.4 553.467   1
  -7   2   3 10065.3 396.167  -2
  -7  -2   3 10065.3 396.167   1
  -7  -2   2 4608.81 1196.33   1
  -7   2   4 36445.8 533.096  -2
  -7  -2   2 36445.8 533.096   1
  -7  -2   1 2988.09 1109.18   1
  -7   2   5 9955.53 365.718  -2
  -7  -2   1 9955.53 365.718   1
  -7   2   6 15055.1 375.015  -2
  -7  -2   0 15055.1 375.015   1
  -7   2   7 3525.03 313.936  -2
  -7  -2  -1 3525.03 313.936   1
  -7   2   8 17071.2 386.595  -2
  -7  -2  -2 17071.2 386.595   1
  -7   2   9 16322.9 411.618  -2
  -7  -2  -3 16322.9 411.618   1
  -7  -2  -4 17006.8 829.739   1
  -7   2  10 24735.3 621.099  -2
  -7  -2  -4 24735.3 621.099   1
  -7  -2  -5 1552.55 470.777   1
  -7   2  11 7713.02 991.535  -2
  -7  -2  -5 7713.02 991.535   1
  -7  -2  -6 2692.67 361.495   1
  -7   2  12 2288.64 879.130  -2
  -7  -2  -6 2288.64 879.130   1
  -7  -2  -7 3952.30 337.862   1
  -7   2  13 9467.74 854.512  -2
  -7  -2  -7 9467.74 854.512   1
  -7  -2  -8 821.514 363.886   1
  -7   2  14 6182.70 741.419  -2
  -7  -2  -8 6182.70 741.419   1
  -7  -1  15 429.339 412.549   1
  -7  -1  14 833.356 399.403   1
  -7   1  -8 6822.00 766.994  -2
  -7  -1  14 6822.00 766.994   1
  -7  -1  13 597.197 390.979   1
  -7   1  -7 5319.58 801.175  -2
  -7  -1  13 5319.58 801.175   1
  -7  -1  12 2479.66 426.311   1
  -7  -1  11 12208.1 680.464   1
  -7   1  -5 13554.3 1072.12  -2
  -7  -1  11 13554.3 1072.12   1
  -7   1  -4 16655.6 669.684  -2
  -7  -1  10 16655.6 669.684   1
  -7   1  -3 3687.12 546.621  -2
  -7  -1   9 3687.12 546.621   1
  -7   1  -2 11866.0 509.126  -2
  -7  -1   8 11866.0 509.126   1
  -7   1  -1 20276.4 552.310  -2
  -7  -1   7 20276.4 552.310   1
  -7   1   0 10389.9 481.883  -2
  -7  -1   6 10389.9 481.883   1
  -7   1   1 17877.1 527.588  -2
  -7  -1   5 17877.1 527.588   1
  -7   1   2 5708.06 429.392  -2
  -7  -1   4 5708.06 429.392   1
  -7   1   3 13426.9 483.057  -2
  -7  -1   3 13426.9 483.057   1
  -7  -1   2 655.224 846.941   1
  -7   1   4 5206.64 434.760  -2
  -7  -1   2 5206.64 434.760   1
  -7  -1   1 7634.22 963.994   1
  -7   1   5 17644.4 484.516  -2
  -7  -1   1 17644.4 484.516   1
  -7  -1   0 5083.09 899.692   1
  -7   1   6 10501.7 452.470  -2
  -7  -1   0 10501.7 452.470   1
  -7   1   7 19308.7 574.163  -2
  -7  -1  -1 19308.7 574.163   1
  -7   1   8 10457.0 474.014  -2
  -7  -1  -2 10457.0 474.014   1
  -7   1   9 2766.69 523.666  -2
  -7  -1  -3 2766.69 523.666   1
  -7  -1  -4 3129.74 782.942   1
  -7   1  10 14124.9 686.067  -2
  -7  -1  -4 14124.9 686.067   1
  -7  -1  -5 4745.35 410.895   1
  -7   1  11 10932.4 1030.57  -2
  -7  -1  -5 10932.4 1030.57   1
  -7  -1  -6 2735.97 359.967   1
  -7   1  12 3345.40 911.647  -2
  -7  -1  -6 3345.40 911.647   1
  -7  -1  -7 4456.22 294.662   1
  -7   1  13 4033.02 854.816  -2
  -7  -1  -7 4033.02 854.816   1
  -7  -1  -8 5423.54 339.846   1
  -7   1  14 4941.91 776.042  -2
  -7  -1  -8 4941.91 776.042   1
   7  -1   9 173.828 331.740   1
  -7   0  15 6365.29 435.057   1
  -7   0  14 5122.48 340.024   1
  -7   0  13 903.460 321.267   1
  -7   0  12 56006.1 906.648   1
  -7   0  -6 88190.6 1348.34  -2
  -7   0  12 88190.6 1348.34   1
  -7   0  11 37458.2 794.542   1
  -7   0  -5 49714.6 1118.83  -2
  -7   0  11 49714.6 1118.83   1
  -7   0  10 4397.05 544.338   1
  -7   0  -4 14458.6 638.190  -2
  -7   0  10 14458.6 638.190   1
  -7   0  -3 1454.17 401.175  -2
  -7   0   9 1454.17 401.175   1
  -7   0  -2 21582.6 648.079  -2
  -7   0   8 21582.6 648.079   1
  -7   0  -1 1722.25 476.914  -2
  -7   0   7 1722.25 476.914   1
  -7   0   0 18290.0 585.435  -2
  -7   0   6 18290.0 585.435   1
  -7   0   1 15395.8 543.204  -2
  -7   0   5 15395.8 543.204   1
  -7   0   2 6673.95 491.130  -2
  -7   0   4 6673.95 491.130   1
  -7   0   3 2767.18 1050.37   1
  -7   0   3 9809.15 487.149  -2
  -7   0   3 9809.15 487.149   1
  -7   0   2 1983.69 555.597   1
  -7   0   4 6133.00 651.857  -2
  -7   0   2 6133.00 651.857   1
  -7   0   1 10.0263 675.266   1
  -7   0   5 14228.2 604.378  -2
  -7   0   1 14228.2 604.378   1
  -7   0   0 8855.33 803.364   1
  -7   0   6 16610.7 609.490  -2
  -7   0   0 16610.7 609.490   1
  -7   0   7 1885.67 441.734  -2
  -7   0  -1 1885.67 441.734   1
  -7   0   8 20936.7 702.818  -2
  -7   0  -2 20936.7 702.818   1
  -7   0  -3 702.756 844.664   1
  -7   0   9 1018.36 537.799  -2
  -7   0  -3 1018.36 537.799   1
  -7   0  -4 9111.50 365.128   1
  -7   0  10 12251.9 1039.35  -2
  -7   0  -4 12251.9 1039.35   1
  -7   0  -5 10480.8 369.142   1
  -7   0  11 37752.4 1230.24  -2
  -7   0  -5 37752.4 1230.24   1
  -7   0  -6 23720.1 438.360   1
  -7   0  -7 2288.30 325.300   1
  -7   0  -8 16.3069 293.456   1
  -7   0  -9 92.5361 268.503   1
  -7   1  15 1143.99 429.122   1
  -7   1  14 665.236 316.413   1
  -7   1  13 810.805 341.827   1
  -7   1  12 2772.20 418.682   1
  -7  -1  -6 5756.78 804.877  -2
  -7   1  12 5756.78 804.877   1
  -7   1  11 10616.0 503.286   1
  -7  -1  -5 16964.1 865.404  -2
  -7   1  11 16964.1 865.404   1
  -7   1  10 12279.0 681.612   1
  -7  -1  -4 16146.8 660.556  -2
  -7   1  10 16146.8 660.556   1
  -7  -1  -3 3453.87 493.158  -2
  -7   1   9 3453.87 493.158   1
  -7  -1  -2 11223.2 829.642  -2
  -7   1   8 11223.2 829.642   1
  -7  -1  -1 18061.9 896.545  -2
  -7   1   7 18061.9 896.545   1
  -7  -1   0 9158.66 805.509  -2
  -7   1   6 9158.66 805.509   1
  -7  -1   1 16609.0 593.930  -2
  -7   1   5 16609.0 593.930   1
  -7   1   4 4764.51 506.083   1
  -7  -1   2 4503.55 800.951  -2
  -7   1   4 4503.55 800.951   1
  -7   1   3 7548.54 674.310   1
  -7  -1   3 7179.24 1903.76  -2
  -7   1   3 7179.24 1903.76   1
  -7   1   2 1296.19 567.221   1
  -7  -1   4 1921.30 1970.20  -2
  -7   1   2 1921.30 1970.20   1
  -7   1   1 8652.94 478.996   1
  -7   1   0 7449.46 474.525   1
  -7   1  -1 5104.42 536.374   1
  -7  -1   7 21827.7 1224.47  -2
  -7   1  -1 21827.7 1224.47   1
  -7   1  -2 7978.11 555.201   1
  -7  -1   8 11443.4 1126.79  -2
  -7   1  -2 11443.4 1126.79   1
  -7   1  -3 2928.29 504.166   1
  -7  -1   9 2936.58 495.397  -2
  -7   1  -3 2936.58 495.397   1
  -7   1  -4 3829.68 503.591   1
  -7  -1  10 13806.2 551.217  -2
  -7   1  -4 13806.2 551.217   1
  -7   1  -5 5804.44 315.143   1
  -7   1  -6 2930.85 327.806   1
   7  -1 -12 1127.05 1879.56  -2
   7   1   6 1127.05 1879.56   1
  -7   1  -7 4812.12 326.469   1
  -7   1  -8 5899.25 318.760   1
  -7   1  -9 229.842 448.256   1
  -7   2  14 8223.33 518.990   1
  -7   2  13 9293.58 496.471   1
  -7   2  12 743.847 423.130   1
  -7   2  11 12112.2 1247.20   1
  -7  -2  -4 35504.5 1972.78  -2
  -7   2  10 35504.5 1972.78   1
  -7  -2  -3 20753.5 886.974  -2
  -7   2   9 20753.5 886.974   1
  -7  -2  -2 19701.2 930.075  -2
  -7   2   8 19701.2 930.075   1
  -7  -2  -1 3379.90 745.562  -2
  -7   2   7 3379.90 745.562   1
  -7  -2   0 14492.8 919.436  -2
  -7   2   6 14492.8 919.436   1
  -7  -2   1 8467.54 838.517  -2
  -7   2   5 8467.54 838.517   1
  -7   2   4 34712.5 950.525   1
  -7  -2   2 32017.2 1113.04  -2
  -7   2   4 32017.2 1113.04   1
  -7   2   3 5675.93 655.007   1
  -7  -2   3 6330.82 2028.40  -2
  -7   2   3 6330.82 2028.40   1
  -7   2   2 10800.2 703.464   1
  -7  -2   4 19454.1 2181.05  -2
  -7   2   2 19454.1 2181.05   1
  -7   2   1 7602.48 667.398   1
  -7  -2   5 5921.29 2100.26  -2
  -7   2   1 5921.29 2100.26   1
  -7  -2   6 17614.8 826.403  -2
  -7   2   0 17614.8 826.403   1
  -7   2  -1 1541.27 554.079   1
  -7   2  -2 20356.2 591.391   1
  -7  -2   8 21126.0 937.454  -2
  -7   2  -2 21126.0 937.454   1
  -7   2  -3 6611.35 657.116   1
  -7  -2   9 18721.2 653.122  -2
  -7   2  -3 18721.2 653.122   1
  -7   2  -4 19188.7 833.562   1
  -7  -2  10 26685.2 677.268  -2
  -7   2  -4 26685.2 677.268   1
  -7   2  -5 1756.00 387.691   1
  -7  -2  11 9898.55 821.719  -2
  -7   2  -5 9898.55 821.719   1
  -7   2  -6 2978.57 306.750   1
   7  -2 -12 1676.14 1606.69  -2
   7   2   6 1676.14 1606.69   1
  -7   2  -7 4913.24 308.458   1
   7  -2 -13 4426.66 1509.08  -2
   7   2   7 4426.66 1509.08   1
  -7   2  -8 1423.77 264.627   1
  -7   3  13 2256.98 425.153   1
   7   3 -12 2497.80 485.517   1
   7   3 -11 523.267 488.010   1
   7   3 -10 736.810 595.909   1
  -7  -3  -4 2379.42 1445.68  -2
  -7   3  10 2379.42 1445.68   1
   7   3  -9 903.793 652.116   1
  -7  -3  -3 3179.33 680.722  -2
  -7   3   9 3179.33 680.722   1
  -7  -3  -2 12284.0 804.793  -2
  -7   3   8 12284.0 804.793   1
  -7  -3  -1 15985.2 667.229  -2
  -7   3   7 15985.2 667.229   1
  -7  -3   0 5848.05 584.983  -2
  -7   3   6 5848.05 584.983   1
  -7  -3   1 32838.6 797.426  -2
  -7   3   5 32838.6 797.426   1
  -7  -3   2 24385.3 737.307  -2
  -7   3   4 24385.3 737.307   1
  -7  -3   3 45511.1 1334.93  -2
  -7   3   3 45511.1 1334.93   1
  -7   3   2 24314.6 902.727   1
  -7  -3   4 19268.1 1017.48  -2
  -7   3   2 19268.1 1017.48   1
  -7   3   1 21703.9 863.557   1
   7  -3  -5 28574.3 1178.54  -2
   7   3  -1 28574.3 1178.54   1
  -7  -3   6 6126.74 691.148  -2
  -7   3   0 6126.74 691.148   1
  -7  -3   7 15988.8 795.283  -2
  -7   3  -1 15988.8 795.283   1
  -7   3  -2 1058.75 527.333   1
  -7  -3   8 12397.3 591.171  -2
  -7   3  -2 12397.3 591.171   1
  -7   3  -3 1766.27 522.276   1
  -7  -3   9 2906.63 525.611  -2
  -7   3  -3 2906.63 525.611   1
  -7   3  -4 1002.66 492.569   1
  -7  -3  10 1988.74 511.787  -2
  -7   3  -4 1988.74 511.787   1
  -7   3  -5 1383.26 296.306   1
   7  -3 -11 584.158 1432.47  -2
   7   3   5 584.158 1432.47   1
  -7   3  -6 334.557 274.833   1
   7  -3 -12 312.055 1374.70  -2
   7   3   6 312.055 1374.70   1
   7  -3 -13 754.024 1219.12  -2
   7   3   7 754.024 1219.12   1
   7   4 -10-190.943 679.415   1
  -7  -4  -4 2210.39 1299.84  -2
  -7   4  10 2210.39 1299.84   1
  -7  -4  -3 508.682 1301.30  -2
  -7   4   9 508.682 1301.30   1
  -7  -4  -2 2460.22 481.278  -2
  -7   4   8 2460.22 481.278   1
  -7  -4  -1 2913.82 499.506  -2
  -7   4   7 2913.82 499.506   1
   7   4  -6 1253.03 719.233   1
  -7  -4   0 4002.56 534.464  -2
  -7   4   6 4002.56 534.464   1
   7   4  -5 11.7619 728.702   1
  -7  -4   1 885.804 515.086  -2
  -7   4   5 885.804 515.086   1
  -7  -4   2 3212.30 492.840  -2
  -7   4   4 3212.30 492.840   1
  -7  -4   3 1287.57 479.167  -2
  -7   4   3 1287.57 479.167   1
  -7  -4   4 3746.33 511.874  -2
  -7   4   2 3746.33 511.874   1
  -7  -4   5 836.235 482.122  -2
  -7   4   1 836.235 482.122   1
  -7  -4   6 3412.08 575.000  -2
  -7   4   0 3412.08 575.000   1
  -7  -4   7 2212.60 550.836  -2
  -7   4  -1 2212.60 550.836   1
  -7  -4   8 1751.90 674.306  -2
  -7   4  -2 1751.90 674.306   1
  -7  -4   9 485.941 484.183  -2
  -7   4  -3 485.941 484.183   1
  -7  -4  10 1450.98 588.808  -2
  -7   4  -4 1450.98 588.808   1
   7  -5  -1 530.119 715.302  -2
   7   5  -5 530.119 715.302   1
  -7  -5   2 4083.26 492.921  -2
  -7   5   4 4083.26 492.921   1
  -7  -5   3 1506.80 556.485  -2
  -7   5   3 1506.80 556.485   1
  -7  -5   4 5874.90 603.712  -2
  -7   5   2 5874.90 603.712   1
  -7  -5   5 112.412 1438.67  -2
  -7   5   1 112.412 1438.67   1
  -8   4  -1 1437.40 469.925  -2
  -8  -4   8 1437.40 469.925   1
  -8   4   0 6968.35 380.309  -2
  -8  -4   7 6968.35 380.309   1
  -8   4   1 3063.66 350.186  -2
  -8  -4   6 3063.66 350.186   1
  -8   4   2 3492.67 354.049  -2
  -8  -4   5 3492.67 354.049   1
  -8   4   3 4213.36 353.996  -2
  -8  -4   4 4213.36 353.996   1
  -8   4   4 5101.05 360.930  -2
  -8  -4   3 5101.05 360.930   1
  -8   4   5 3365.34 346.348  -2
  -8  -4   2 3365.34 346.348   1
  -8   4   6 2577.65 402.974  -2
  -8  -4   1 2577.65 402.974   1
  -8   4   7 4868.76 415.604  -2
  -8  -4   0 4868.76 415.604   1
  -8   4   8 1761.99 649.134  -2
  -8  -4  -1 1761.99 649.134   1
  -8   3  -5 6566.61 664.314  -2
  -8  -3  12 6566.61 664.314   1
  -8   3  -4 3633.62 432.703  -2
  -8  -3  11 3633.62 432.703   1
  -8   3  -3 6756.06 424.162  -2
  -8  -3  10 6756.06 424.162   1
  -8   3  -2 4530.34 381.160  -2
  -8  -3   9 4530.34 381.160   1
  -8   3  -1 3160.74 367.672  -2
  -8  -3   8 3160.74 367.672   1
  -8   3   0 4946.13 380.244  -2
  -8  -3   7 4946.13 380.244   1
  -8   3   1 7190.52 445.284  -2
  -8  -3   6 7190.52 445.284   1
  -8   3   2 1563.65 376.551  -2
  -8  -3   5 1563.65 376.551   1
  -8   3   3 2984.90 404.187  -2
  -8  -3   4 2984.90 404.187   1
  -8   3   4 2938.70 395.570  -2
  -8  -3   3 2938.70 395.570   1
  -8   3   5 1073.81 332.242  -2
  -8  -3   2 1073.81 332.242   1
  -8   3   6 7427.95 371.526  -2
  -8  -3   1 7427.95 371.526   1
  -8   3   7 4835.36 332.776  -2
  -8  -3   0 4835.36 332.776   1
  -8   3   8 2181.14 328.018  -2
  -8  -3  -1 2181.14 328.018   1
  -8   3   9 2791.90 376.912  -2
  -8  -3  -2 2791.90 376.912   1
  -8   3  10 5788.46 491.078  -2
  -8  -3  -3 5788.46 491.078   1
  -8   3  11 3197.07 435.896  -2
  -8  -3  -4 3197.07 435.896   1
  -8   3  12 3104.34 709.834  -2
  -8  -3  -5 3104.34 709.834   1
  -8   2  -6 1286.87 392.019  -2
  -8  -2  13 1286.87 392.019   1
  -8   2  -5 3054.99 427.818  -2
  -8  -2  12 3054.99 427.818   1
  -8   2  -4 2984.70 444.876  -2
  -8  -2  11 2984.70 444.876   1
  -8   2  -3 1128.00 428.177  -2
  -8  -2  10 1128.00 428.177   1
  -8   2  -2 9904.00 538.223  -2
  -8  -2   9 9904.00 538.223   1
  -8   2  -1 14410.1 518.205  -2
  -8  -2   8 14410.1 518.205   1
  -8   2   0 12848.3 570.456  -2
  -8  -2   7 12848.3 570.456   1
  -8   2   1 2062.73 435.468  -2
  -8  -2   6 2062.73 435.468   1
  -8   2   2 24316.3 662.458  -2
  -8  -2   5 24316.3 662.458   1
  -8   2   3 8853.45 642.457  -2
  -8  -2   4 8853.45 642.457   1
  -8   2   4 8891.89 639.681  -2
  -8  -2   3 8891.89 639.681   1
  -8   2   5 28084.7 822.083  -2
  -8  -2   2 28084.7 822.083   1
  -8   2   6 1647.36 470.976  -2
  -8  -2   1 1647.36 470.976   1
  -8   2   7 14829.6 597.201  -2
  -8  -2   0 14829.6 597.201   1
  -8   2   8 12394.9 560.890  -2
  -8  -2  -1 12394.9 560.890   1
  -8   2   9 8238.59 580.973  -2
  -8  -2  -2 8238.59 580.973   1
  -8   2  10 733.568 472.956  -2
  -8  -2  -3 733.568 472.956   1
  -8   2  11 2120.95 460.294  -2
  -8  -2  -4 2120.95 460.294   1
  -8   2  12 2220.44 377.751  -2
  -8  -2  -5 2220.44 377.751   1
  -8   2  13 776.872 370.595  -2
  -8  -2  -6 776.872 370.595   1
  -8   1  -7 7018.88 509.285  -2
  -8  -1  14 7018.88 509.285   1
  -8   1  -6 19970.0 565.956  -2
  -8  -1  13 19970.0 565.956   1
  -8   1  -5 25756.4 637.673  -2
  -8  -1  12 25756.4 637.673   1
  -8   1  -4 9031.05 526.378  -2
  -8  -1  11 9031.05 526.378   1
  -8   1  -3 19452.2 792.857  -2
  -8  -1  10 19452.2 792.857   1
  -8   1  -2 11407.0 674.780  -2
  -8  -1   9 11407.0 674.780   1
  -8   1  -1 3494.77 553.519  -2
  -8  -1   8 3494.77 553.519   1
  -8   1   0 9541.65 646.506  -2
  -8  -1   7 9541.65 646.506   1
  -8   1   1 11966.3 576.559  -2
  -8  -1   6 11966.3 576.559   1
  -8   1   2 3789.48 468.646  -2
  -8  -1   5 3789.48 468.646   1
  -8   1   3 11731.8 534.720  -2
  -8  -1   4 11731.8 534.720   1
  -8   1   4 11607.4 533.103  -2
  -8  -1   3 11607.4 533.103   1
  -8   1   5 3981.03 567.620  -2
  -8  -1   2 3981.03 567.620   1
  -8   1   6 11661.8 548.296  -2
  -8  -1   1 11661.8 548.296   1
  -8   1   7 8901.66 536.180  -2
  -8  -1   0 8901.66 536.180   1
  -8   1   8 3098.64 457.595  -2
  -8  -1  -1 3098.64 457.595   1
  -8   1   9 10900.3 706.696  -2
  -8  -1  -2 10900.3 706.696   1
  -8   1  10 18996.1 785.851  -2
  -8  -1  -3 18996.1 785.851   1
  -8   1  11 7237.92 525.473  -2
  -8  -1  -4 7237.92 525.473   1
  -8   1  12 24313.5 621.578  -2
  -8  -1  -5 24313.5 621.578   1
  -8   1  13 17911.6 606.173  -2
  -8  -1  -6 17911.6 606.173   1
   8   1 -14 4988.16 473.558  -2
   8  -1   7 4988.16 473.558   1
  -8   0  -7 8426.35 533.480  -2
  -8   0  14 8426.35 533.480   1
  -8   0  -6 25030.2 718.874  -2
  -8   0  13 25030.2 718.874   1
  -8   0  -5 3502.45 544.636  -2
  -8   0  12 3502.45 544.636   1
  -8   0  -4 5725.63 598.755  -2
  -8   0  11 5725.63 598.755   1
  -8   0  -3 3253.67 577.090  -2
  -8   0  10 3253.67 577.090   1
  -8   0  -2 3129.68 535.676  -2
  -8   0   9 3129.68 535.676   1
  -8   0  -1 13055.0 646.137  -2
  -8   0   8 13055.0 646.137   1
  -8   0   0 8018.34 575.671  -2
  -8   0   7 8018.34 575.671   1
  -8   0   1 38358.9 831.108  -2
  -8   0   6 38358.9 831.108   1
  -8   0   2 22936.2 751.879  -2
  -8   0   5 22936.2 751.879   1
  -8   0   3 5104.82 552.619  -2
  -8   0   4 5104.82 552.619   1
  -8   0   4 5062.88 613.052  -2
  -8   0   3 5062.88 613.052   1
  -8   0   5 23537.6 624.495  -2
  -8   0   2 23537.6 624.495   1
  -8   0   6 35116.1 699.202  -2
  -8   0   1 35116.1 699.202   1
  -8   0   7 7150.34 509.386  -2
  -8   0   0 7150.34 509.386   1
  -8   0   8 13235.9 690.827  -2
  -8   0  -1 13235.9 690.827   1
  -8   0   9 2590.20 553.335  -2
  -8   0  -2 2590.20 553.335   1
  -8   0  10 2840.99 530.382  -2
  -8   0  -3 2840.99 530.382   1
  -8   0  11 5189.19 563.531  -2
  -8   0  -4 5189.19 563.531   1
  -8   0  12 3007.38 496.874  -2
  -8   0  -5 3007.38 496.874   1
  -8   0  13 24786.4 1022.23  -2
  -8   0  -6 24786.4 1022.23   1
  -8   0  14 6873.30 678.239  -2
  -8   0  -7 6873.30 678.239   1
  -8  -1  -7 7189.21 615.925  -2
  -8   1  14 7189.21 615.925   1
  -8  -1  -6 20720.2 866.939  -2
  -8   1  13 20720.2 866.939   1
  -8  -1  -5 29756.4 1038.67  -2
  -8   1  12 29756.4 1038.67   1
  -8  -1  -4 9760.98 726.820  -2
  -8   1  11 9760.98 726.820   1
  -8  -1  -3 21570.6 916.671  -2
  -8   1  10 21570.6 916.671   1
  -8  -1  -2 13000.9 810.387  -2
  -8   1   9 13000.9 810.387   1
  -8  -1  -1 3836.77 662.909  -2
  -8   1   8 3836.77 662.909   1
  -8  -1   0 9601.99 759.751  -2
  -8   1   7 9601.99 759.751   1
  -8  -1   1 11287.3 632.504  -2
  -8   1   6 11287.3 632.504   1
  -8  -1   2 3992.86 552.495  -2
  -8   1   5 3992.86 552.495   1
  -8  -1   3 10980.0 938.638  -2
  -8   1   4 10980.0 938.638   1
  -8  -1   4 11656.9 699.846  -2
  -8   1   3 11656.9 699.846   1
  -8  -1   5 3765.56 789.141  -2
  -8   1   2 3765.56 789.141   1
  -8  -1   6 12960.7 669.327  -2
  -8   1   1 12960.7 669.327   1
  -8  -1   7 9872.24 619.877  -2
  -8   1   0 9872.24 619.877   1
  -8  -1   8 3321.15 545.539  -2
  -8   1  -1 3321.15 545.539   1
  -8  -1   9 11155.2 622.205  -2
  -8   1  -2 11155.2 622.205   1
  -8  -1  10 17534.3 679.143  -2
  -8   1  -3 17534.3 679.143   1
  -8  -1  11 7927.23 822.449  -2
  -8   1  -4 7927.23 822.449   1
  -8  -1  12 23598.9 1034.82  -2
  -8   1  -5 23598.9 1034.82   1
  -8  -1  13 18489.0 856.767  -2
  -8   1  -6 18489.0 856.767   1
  -8  -1  14 5682.85 611.591  -2
  -8   1  -7 5682.85 611.591   1
  -8  -2  -6 1032.21 523.573  -2
  -8   2  13 1032.21 523.573   1
  -8  -2  -5 3249.47 546.823  -2
  -8   2  12 3249.47 546.823   1
  -8  -2  -4 3042.61 584.032  -2
  -8   2  11 3042.61 584.032   1
  -8  -2  -3 936.767 580.735  -2
  -8   2  10 936.767 580.735   1
  -8  -2  -2 8682.59 573.683  -2
  -8   2   9 8682.59 573.683   1
  -8  -2  -1 12290.8 623.710  -2
  -8   2   8 12290.8 623.710   1
  -8  -2   0 13956.0 628.655  -2
  -8   2   7 13956.0 628.655   1
  -8  -2   1 1495.18 523.256  -2
  -8   2   6 1495.18 523.256   1
  -8  -2   2 24920.6 1073.67  -2
  -8   2   5 24920.6 1073.67   1
  -8  -2   3 7404.17 881.159  -2
  -8   2   4 7404.17 881.159   1
  -8  -2   4 9627.59 635.004  -2
  -8   2   3 9627.59 635.004   1
  -8  -2   5 23315.4 1018.01  -2
  -8   2   2 23315.4 1018.01   1
  -8  -2   6 1873.36 727.834  -2
  -8   2   1 1873.36 727.834   1
  -8  -2   7 13935.3 941.679  -2
  -8   2   0 13935.3 941.679   1
  -8  -2   8 15501.5 940.589  -2
  -8   2  -1 15501.5 940.589   1
  -8  -2   9 9514.24 832.199  -2
  -8   2  -2 9514.24 832.199   1
  -8  -2  10 1114.88 645.885  -2
  -8   2  -3 1114.88 645.885   1
  -8  -2  11 2659.80 637.714  -2
  -8   2  -4 2659.80 637.714   1
   8  -2 -12 2731.07 572.272  -2
   8   2   5 2731.07 572.272   1
  -8  -2  13 968.615 543.753  -2
  -8   2  -6 968.615 543.753   1
  -8  -3  -5 9098.81 1225.88  -2
  -8   3  12 9098.81 1225.88   1
  -8  -3  -4 4183.83 533.750  -2
  -8   3  11 4183.83 533.750   1
  -8  -3  -3 7298.92 601.944  -2
  -8   3  10 7298.92 601.944   1
  -8  -3  -2 3709.83 475.024  -2
  -8   3   9 3709.83 475.024   1
  -8  -3  -1 2869.00 485.678  -2
  -8   3   8 2869.00 485.678   1
  -8  -3   0 4831.00 531.232  -2
  -8   3   7 4831.00 531.232   1
  -8  -3   1 6773.04 792.080  -2
  -8   3   6 6773.04 792.080   1
  -8  -3   2 894.142 709.383  -2
  -8   3   5 894.142 709.383   1
  -8  -3   3 2636.35 749.465  -2
  -8   3   4 2636.35 749.465   1
   8   3  -3 2192.92 886.424   1
  -8  -3   4 2766.58 746.784  -2
  -8   3   3 2766.58 746.784   1
  -8  -3   5 1168.80 735.767  -2
  -8   3   2 1168.80 735.767   1
  -8  -3   6 6821.08 569.913  -2
  -8   3   1 6821.08 569.913   1
  -8  -3   7 5059.42 692.306  -2
  -8   3   0 5059.42 692.306   1
  -8  -3   8 3266.23 667.820  -2
  -8   3  -1 3266.23 667.820   1
  -8  -3   9 4645.17 658.332  -2
  -8   3  -2 4645.17 658.332   1
  -8  -3  10 6442.49 660.154  -2
  -8   3  -3 6442.49 660.154   1
   8  -3 -11 3441.25 535.801  -2
   8   3   4 3441.25 535.801   1
  -8  -3  12 6379.34 564.713  -2
  -8   3  -5 6379.34 564.713   1
   8  -4   2 419.196 686.117  -2
   8   4  -9 419.196 686.117   1
   8  -4   1 600.369 720.883  -2
   8   4  -8 600.369 720.883   1
  -8  -4   0 4224.03 519.417  -2
  -8   4   7 4224.03 519.417   1
  -8  -4   1 2319.10 509.439  -2
  -8   4   6 2319.10 509.439   1
  -8  -4   2 3061.16 523.541  -2
  -8   4   5 3061.16 523.541   1
  -8  -4   3 4069.41 549.936  -2
  -8   4   4 4069.41 549.936   1
  -8  -4   4 3577.55 641.225  -2
  -8   4   3 3577.55 641.225   1
  -8  -4   5 2125.47 630.152  -2
  -8   4   2 2125.47 630.152   1
  -8  -4   6 2251.13 626.015  -2
  -8   4   1 2251.13 626.015   1
  -8  -4   7 5318.41 663.128  -2
  -8   4   0 5318.41 663.128   1
  -8  -4   8 1684.85 644.820  -2
  -8   4  -1 1684.85 644.820   1
  -8  -4   9 497.735 598.360  -2
  -8   4  -2 497.735 598.360   1
  -9   3  -2 3734.87 592.303  -2
  -9  -3  10 3734.87 592.303   1
  -9   3  -1 2043.86 600.631  -2
  -9  -3   9 2043.86 600.631   1
  -9   3   0 3624.62 511.402  -2
  -9  -3   8 3624.62 511.402   1
  -9   3   1 7325.81 545.837  -2
  -9  -3   7 7325.81 545.837   1
  -9   3   2 10541.1 579.773  -2
  -9  -3   6 10541.1 579.773   1
  -9   3   3 12748.5 605.333  -2
  -9  -3   5 12748.5 605.333   1
  -9   3   4 6470.86 528.948  -2
  -9  -3   4 6470.86 528.948   1
  -9   3   5 15267.6 610.388  -2
  -9  -3   3 15267.6 610.388   1
  -9   3   6 11440.4 549.905  -2
  -9  -3   2 11440.4 549.905   1
  -9   3   7 7629.02 493.483  -2
  -9  -3   1 7629.02 493.483   1
  -9   3   8 2733.83 664.423  -2
  -9  -3   0 2733.83 664.423   1
  -9   3   9 1485.24 612.897  -2
  -9  -3  -1 1485.24 612.897   1
  -9   3  10 2561.87 572.560  -2
  -9  -3  -2 2561.87 572.560   1
  -9   2  -4 3821.93 655.643  -2
  -9  -2  12 3821.93 655.643   1
  -9   2  -3 1306.44 434.051  -2
  -9  -2  11 1306.44 434.051   1
  -9   2  -2 3759.29 480.971  -2
  -9  -2  10 3759.29 480.971   1
  -9   2  -1 4687.89 492.957  -2
  -9  -2   9 4687.89 492.957   1
  -9   2   0 10848.4 579.146  -2
  -9  -2   8 10848.4 579.146   1
  -9   2   1 3136.13 592.563  -2
  -9  -2   7 3136.13 592.563   1
  -9   2   2 8699.17 648.220  -2
  -9  -2   6 8699.17 648.220   1
  -9   2   3 12669.9 668.200  -2
  -9  -2   5 12669.9 668.200   1
  -9   2   4 24346.6 771.176  -2
  -9  -2   4 24346.6 771.176   1
  -9   2   5 12861.1 649.175  -2
  -9  -2   3 12861.1 649.175   1
  -9   2   6 8268.24 588.504  -2
  -9  -2   2 8268.24 588.504   1
  -9   2   7 3159.40 506.882  -2
  -9  -2   1 3159.40 506.882   1
  -9   2   8 9165.23 486.028  -2
  -9  -2   0 9165.23 486.028   1
  -9   2   9 4105.02 555.734  -2
  -9  -2  -1 4105.02 555.734   1
  -9   2  10 2655.20 504.230  -2
  -9  -2  -2 2655.20 504.230   1
  -9   2  11 872.578 448.479  -2
  -9  -2  -3 872.578 448.479   1
  -9   2  12 3300.04 424.254  -2
  -9  -2  -4 3300.04 424.254   1
  -9   1  -5 11402.9 505.482  -2
  -9  -1  13 11402.9 505.482   1
  -9   1  -4 3838.23 477.427  -2
  -9  -1  12 3838.23 477.427   1
  -9   1  -3 58.7664 452.991  -2
  -9  -1  11 58.7664 452.991   1
  -9   1  -2 7452.85 554.853  -2
  -9  -1  10 7452.85 554.853   1
  -9   1  -1 10070.1 585.781  -2
  -9  -1   9 10070.1 585.781   1
  -9   1   0 9662.33 587.318  -2
  -9  -1   8 9662.33 587.318   1
  -9   1   1 20633.9 713.115  -2
  -9  -1   7 20633.9 713.115   1
  -9   1   2 1863.69 508.250  -2
  -9  -1   6 1863.69 508.250   1
  -9   1   3 709.788 444.148  -2
  -9  -1   5 709.788 444.148   1
  -9   1   4 19989.1 745.959  -2
  -9  -1   4 19989.1 745.959   1
  -9   1   5 793.905 534.021  -2
  -9  -1   3 793.905 534.021   1
  -9   1   6 1753.66 536.175  -2
  -9  -1   2 1753.66 536.175   1
  -9   1   7 18440.6 573.348  -2
  -9  -1   1 18440.6 573.348   1
  -9   1   8 8569.86 488.842  -2
  -9  -1   0 8569.86 488.842   1
  -9   1   9 8481.77 603.751  -2
  -9  -1  -1 8481.77 603.751   1
  -9   1  10 5880.26 532.371  -2
  -9  -1  -2 5880.26 532.371   1
  -9   1  11 33.6528 444.317  -2
  -9  -1  -3 33.6528 444.317   1
  -9   1  12 3402.78 443.468  -2
  -9  -1  -4 3402.78 443.468   1
  -9   1  13 9065.24 439.156  -2
  -9  -1  -5 9065.24 439.156   1
  -9   0  -5 209.526 529.152  -2
  -9   0  13 209.526 529.152   1
  -9   0  -4 27318.6 686.498  -2
  -9   0  12 27318.6 686.498   1
  -9   0  -3 12312.8 598.354  -2
  -9   0  11 12312.8 598.354   1
  -9   0  -2 17263.8 668.334  -2
  -9   0  10 17263.8 668.334   1
  -9   0  -1 2182.57 517.093  -2
  -9   0   9 2182.57 517.093   1
  -9   0   0 6344.42 560.165  -2
  -9   0   8 6344.42 560.165   1
  -9   0   1 4359.39 553.072  -2
  -9   0   7 4359.39 553.072   1
  -9   0   2 30024.4 754.634  -2
  -9   0   6 30024.4 754.634   1
  -9   0   5 5111.42 925.124  -2
  -9   0   3 5111.42 925.124   1
  -9   0   6 27192.6 1083.86  -2
  -9   0   2 27192.6 1083.86   1
  -9   0   7 3793.21 593.698  -2
  -9   0   1 3793.21 593.698   1
  -9   0   8 5423.31 573.284  -2
  -9   0   0 5423.31 573.284   1
  -9   0   9 1734.00 509.898  -2
  -9   0  -1 1734.00 509.898   1
  -9   0  10 14775.3 589.366  -2
  -9   0  -2 14775.3 589.366   1
  -9   0  11 10890.6 530.401  -2
  -9   0  -3 10890.6 530.401   1
  -9   0  12 24036.0 840.274  -2
  -9   0  -4 24036.0 840.274   1
  -9   0  13 379.400 540.929  -2
  -9   0  -5 379.400 540.929   1
  -9  -1  -5 12791.6 646.816  -2
  -9   1  13 12791.6 646.816   1
  -9  -1  -4 4181.12 594.427  -2
  -9   1  12 4181.12 594.427   1
  -9  -1  -3 229.352 515.840  -2
  -9   1  11 229.352 515.840   1
  -9  -1  -2 8001.89 648.193  -2
  -9   1  10 8001.89 648.193   1
  -9  -1  -1 10960.9 697.227  -2
  -9   1   9 10960.9 697.227   1
  -9  -1   0 9977.83 715.216  -2
  -9   1   8 9977.83 715.216   1
  -9  -1   1 22002.6 832.904  -2
  -9   1   7 22002.6 832.904   1
  -9  -1   2 2529.23 1770.96  -2
  -9   1   6 2529.23 1770.96   1
  -9  -1   6 1855.02 792.234  -2
  -9   1   2 1855.02 792.234   1
  -9  -1   7 18721.1 939.277  -2
  -9   1   1 18721.1 939.277   1
  -9  -1   8 7703.27 579.769  -2
  -9   1   0 7703.27 579.769   1
  -9  -1   9 9986.11 809.097  -2
  -9   1  -1 9986.11 809.097   1
  -9  -1  10 6250.34 714.516  -2
  -9   1  -2 6250.34 714.516   1
  -9  -1  11 238.554 587.774  -2
  -9   1  -3 238.554 587.774   1
  -9  -1  12 3332.43 588.483  -2
  -9   1  -4 3332.43 588.483   1
  -9  -1  13 9780.99 604.679  -2
  -9   1  -5 9780.99 604.679   1
  -9  -2  -4 4035.77 567.356  -2
  -9   2  12 4035.77 567.356   1
  -9  -2  -3 1570.75 518.662  -2
  -9   2  11 1570.75 518.662   1
  -9  -2  -2 3568.58 572.537  -2
  -9   2  10 3568.58 572.537   1
  -9  -2  -1 5191.06 600.524  -2
  -9   2   9 5191.06 600.524   1
  -9  -2   0 10467.0 556.432  -2
  -9   2   8 10467.0 556.432   1
  -9  -2   1 3190.55 784.527  -2
  -9   2   7 3190.55 784.527   1
  -9  -2   2 8154.04 846.112  -2
  -9   2   6 8154.04 846.112   1
  -9  -2   3 12579.1 892.556  -2
  -9   2   5 12579.1 892.556   1
  -9  -2   4 24085.3 1015.22  -2
  -9   2   4 24085.3 1015.22   1
  -9  -2   5 12816.4 1005.25  -2
  -9   2   3 12816.4 1005.25   1
  -9  -2   6 9288.37 621.294  -2
  -9   2   2 9288.37 621.294   1
  -9  -2   7 3083.48 557.635  -2
  -9   2   1 3083.48 557.635   1
  -9  -2   8 10388.7 788.924  -2
  -9   2   0 10388.7 788.924   1
  -9  -2   9 5021.70 683.286  -2
  -9   2  -1 5021.70 683.286   1
  -9  -2  10 3173.18 622.415  -2
  -9   2  -2 3173.18 622.415   1
   9  -2 -11 1003.77 523.950  -2
   9   2   3 1003.77 523.950   1
  -9  -2  12 3495.32 544.738  -2
  -9   2  -4 3495.32 544.738   1
  -9  -3  -2 3867.71 1184.85  -2
  -9   3  10 3867.71 1184.85   1
  -9  -3  -1 1860.55 1222.45  -2
  -9   3   9 1860.55 1222.45   1
  -9  -3   0 4464.87 639.492  -2
  -9   3   8 4464.87 639.492   1
  -9  -3   1 8622.31 698.815  -2
  -9   3   7 8622.31 698.815   1
  -9  -3   2 11562.9 763.706  -2
  -9   3   6 11562.9 763.706   1
   9   3  -5 4368.28 880.455   1
  -9  -3   3 14179.9 811.130  -2
  -9   3   5 14179.9 811.130   1
  -9  -3   4 6650.69 734.175  -2
  -9   3   4 6650.69 734.175   1
  -9  -3   5 11662.1 795.073  -2
  -9   3   3 11662.1 795.073   1
  -9  -3   6 10064.4 857.750  -2
  -9   3   2 10064.4 857.750   1
  -9  -3   7 7308.33 779.522  -2
  -9   3   1 7308.33 779.522   1
  -9  -3   8 3165.30 725.781  -2
  -9   3   0 3165.30 725.781   1
  -9  -3   9 1284.96 671.015  -2
  -9   3  -1 1284.96 671.015   1
  -9  -3  10 2074.64 649.403  -2
  -9   3  -2 2074.64 649.403   1
 -10   3   3 4866.90 546.799  -2
 -10  -3   6 4866.90 546.799   1
 -10   3   4 9068.96 583.264  -2
 -10  -3   5 9068.96 583.264   1
 -10   3   5 8094.77 565.963  -2
 -10  -3   4 8094.77 565.963   1
 -10   2   0 1909.17 591.025  -2
 -10  -2   9 1909.17 591.025   1
 -10   2   1 1796.82 587.988  -2
 -10  -2   8 1796.82 587.988   1
 -10   2   2 3281.11 608.967  -2
 -10  -2   7 3281.11 608.967   1
 -10   2   3 5550.42 651.834  -2
 -10  -2   6 5550.42 651.834   1
 -10   2   4 13345.2 572.409  -2
 -10  -2   5 13345.2 572.409   1
 -10   2   5 14398.5 555.612  -2
 -10  -2   4 14398.5 555.612   1
 -10   2   6 6100.87 487.314  -2
 -10  -2   3 6100.87 487.314   1
 -10   2   7 3015.98 448.898  -2
 -10  -2   2 3015.98 448.898   1
 -10   2   8 1436.83 627.614  -2
 -10  -2   1 1436.83 627.614   1
 -10   2   9 1147.97 592.458  -2
 -10  -2   0 1147.97 592.458   1
 -10   2  10 1446.48 538.082  -2
 -10  -2  -1 1446.48 538.082   1
 -10  -1  11 2492.82 446.239   1
 -10  -1  10 2679.39 476.607   1
 -10   1  -1 2586.27 690.548  -2
 -10  -1  10 2586.27 690.548   1
 -10  -1   9 3013.09 486.583   1
 -10   1   0 7182.11 717.939  -2
 -10  -1   9 7182.11 717.939   1
 -10  -1   8 2904.91 514.257   1
 -10   1   1 11368.1 766.667  -2
 -10  -1   8 11368.1 766.667   1
 -10  -1   7 462.632 520.553   1
 -10   1   2 2167.24 705.130  -2
 -10  -1   7 2167.24 705.130   1
 -10   1   3 4179.87 701.133  -2
 -10  -1   6 4179.87 701.133   1
 -10   1   4 3494.89 703.702  -2
 -10  -1   5 3494.89 703.702   1
 -10   1   5 3102.93 696.732  -2
 -10  -1   4 3102.93 696.732   1
 -10   1   6 3352.28 525.773  -2
 -10  -1   3 3352.28 525.773   1
 -10   1   7 1759.18 505.176  -2
 -10  -1   2 1759.18 505.176   1
 -10   1   8 10507.6 760.891  -2
 -10  -1   1 10507.6 760.891   1
 -10   1   9 6374.87 670.131  -2
 -10  -1   0 6374.87 670.131   1
 -10  -1  -1 412.049 664.028   1
 -10   1  10 2508.83 841.021  -2
 -10  -1  -1 2508.83 841.021   1
 -10  -1  -2 610.053 436.962   1
 -10   0  11 42.2791 423.357   1
 -10   0  10 25.3117 446.226   1
 -10   0   9 2336.72 479.945   1
 -10   0   8 3314.20 537.421   1
 -10   0   1 7231.10 931.526   1
 -10   0   8 11042.4 1146.74  -2
 -10   0   1 11042.4 1146.74   1
 -10   0   0 53.0131 472.866   1
 -10   0   9 1801.01 984.807  -2
 -10   0   0 1801.01 984.807   1
 -10   0  -1 4329.49 387.277   1
 -10   0  -2 4679.74 541.218   1
 -10   1  10 2529.65 480.867   1
 -10   1   9 3423.14 507.986   1
 -10   1   0 4019.39 571.966   1
 -10   1  -1 398.818 504.480   1
 -10   1  -2 481.587 461.827   1
 -10  -2   0 1839.01 1396.45  -2
 -10   2   9 1839.01 1396.45   1
 -10  -2   1 2484.93 1468.65  -2
 -10   2   8 2484.93 1468.65   1
 -10  -2   2 3994.59 1588.99  -2
 -10   2   7 3994.59 1588.99   1
  -1  -4  13 345.926 357.495   2
   1  -4 -12 3.21849 251.003   2
   1  -4 -11 3756.79 485.649   2
   1  -4   9 1144.72 705.120   2
   1  -4  10 368.364 716.753   2
   1  -4  11 281.216 515.210   2
   1  -3 -14 4729.82 387.754   2
   1  -3 -13 1458.86 270.373   2
  -1  -3  12 18283.5 416.119   2
  -1  -3  11 10096.5 716.686   2
   1  -3  10 3671.56 729.762   2
   1  -3  11 14450.4 857.768   2
   1  -3  12 227.155 504.093   2
   1  -3  13 511.825 640.776   2
   1  -2 -15 1832.87 356.694   2
   1  -2 -14 4965.72 305.094   2
  -1  -2  13 466.284 276.865   2
  -1  -2  12 13486.6 407.637   2
  -1  -2  11 37207.1 692.979   2
  -1  -2  10 37233.2 723.535   2
  -1  -2   8 3176.77 1541.81   2
  -1  -2   0 474.260 170.851   2
  -1  -2 -11 11105.6 1123.01   2
  -1  -2 -12 13526.9 1045.77   2
  -1  -2 -13 3184.27 749.461   2
  -1  -2 -14 1963.35 351.459   2
   1  -1 -16 2543.56 362.827   2
   1  -1 -15 806.561 257.006   2
   1  -1 -14 1224.32 275.785   2
  -1  -1  13 1709.54 240.511   2
  -1  -1  12 14827.5 345.933   2
  -1  -1  11 16518.4 480.642   2
   1  -1 -10 10603.2 603.348   2
   1  -1  -9 8050.29 459.024   2
   1  -1  -8 32287.4 842.723   2
   1  -1  -7 6369.33 555.325   2
  -1  -1   6 55177.5 1431.90   2
  -1  -1   3 93450.2 1339.27   2
  -1  -1   2 69.6733 155.974   2
   1  -1  -1 4114.11 142.619   2
   1  -1   0 387348. 1153.83   2
   1  -1   1 289513. 1159.20   2
   1  -1  11 14522.3 612.548   2
   1  -1  12 2602.31 469.819   2
  -1  -1 -13 3582.47 416.705   2
  -1  -1 -14 2261.01 357.901   2
  -1  -1 -15 195.439 304.190   2
  -1   0  16 35.4331 400.716   2
  -1   0  15 145.650 205.176   2
   1   0 -14 16001.5 334.968   2
  -1   0  13 420.643 226.028   2
   1   0 -12 4357.15 1114.71   2
   1   0 -11 12038.6 493.962   2
  -1   0  10 471.921 246.020   2
  -1   0   9 10505.7 435.243   2
  -1   0   8 8021.50 304.788   2
  -1   0   7 261075. 1359.74   2
   1   0  -6 55324.0 1110.14   2
  -1   0   4 3810.56 279.715   2
  -1   0   3 17026.0 513.368   2
  -1   0   1 2425.98 60.8784   2
  -1   0   0 25158.4 211.926   2
   1   0   2 32484.2 603.610   2
   1   0   3 4692.28 494.962   2
   1   0   7 1867.40 575.750   2
   1   0   8 21400.4 534.675   2
  -1   0  -9 18529.3 725.143   2
  -1   0 -10 33874.5 902.615   2
   1   0  11 41437.8 627.771   2
   1   0  12 199.836 423.147   2
   1   0  13 540.091 307.605   2
   1   0  14 69.9758 285.817   2
  -1   0 -15 464.728 308.788   2
  -1   1  16 3136.75 359.046   2
  -1   1  15 914.620 224.317   2
  -1   1  14 1217.04 254.996   2
  -1   1  13 1501.08 318.072   2
  -1   1  12 14882.6 604.510   2
   1   1 -11 16645.3 533.144   2
   1   1 -10 10595.7 1040.56   2
   1   1  -9 7606.27 700.665   2
   1   1  -1 3994.93 224.700   2
  -1   1   0 390140. 888.406   2
  -1   1  -1 240221. 1476.56   2
  -1   1  -8 1765.24 388.280   2
   1   1   9 1320.45 431.284   2
  -1   1 -10 8040.70 656.229   2
   1   1  11 13700.4 384.404   2
   1   1  12 2473.89 290.986   2
   1   1  13 3431.01 365.761   2
   1   1  14 2019.43 393.767   2
   1   1  15 93.9164 355.781   2
  -1   2  15 1255.18 240.039   2
  -1   2  14 4718.80 329.845   2
  -1   2  13 396.364 303.163   2
  -1   2  10 18042.3 1260.50   2
   1   2  -5 121.230 489.476   2
   1   2  -4 2476.70 364.344   2
   1   2  -3 14822.6 255.399   2
   1   2   5 20437.8 502.056   2
  -1   2  -8 17324.6 2094.65   2
   1   2  10 15748.4 739.511   2
   1   2  11 13188.4 691.761   2
   1   2  12 14644.3 376.890   2
   1   2  13 3784.12 279.000   2
   1   2  14 1769.51 294.635   2
  -1   3  14 4945.82 285.192   2
  -1   3  13 1199.64 272.692   2
   1   3 -12 18184.8 828.274   2
  -1   3  11 3195.56 1059.44   2
   1   3   4 14066.6 512.104   2
   1   3   5 10733.9 479.952   2
   1   3   6 373.024 521.613   2
   1   3  10 3731.79 516.862   2
   1   3  11 13804.0 659.939   2
   1   3  12 26.1738 224.304   2
   1   3  13 946.739 211.406   2
  -1   4  13 298.434 227.291   2
   1   4 -12-21.4485 466.965   2
  -1   4  11 712.572 895.627   2
   1   4   6 5327.57 581.686   2
   1   4   7 12396.7 676.712   2
   1   4  11 431.315 235.400   2
   1   4  12 3702.15 214.592   2
   1   5   6 864.037 493.173   2
  -1   5  -9 296.322 370.227   2
  -2  -6   1 732.520 1491.10   2
   2  -6   3 98.0009 447.393   2
  -2  -6  -4 3444.27 383.139   2
  -2  -5  10 799.474 344.324   2
  -2  -5   9 4676.19 307.502   2
  -2  -5   8 1920.93 412.098   2
  -2  -5   7 3662.11 398.269   2
   2  -5  -6 990.613 767.486   2
  -2  -5  -1 613.724 1605.50   2
  -2  -5  -2 1553.98 1627.12   2
  -2  -5  -3 1546.27 771.778   2
  -2  -5  -4 3743.68 569.088   2
   2  -5   5 897.274 556.673   2
  -2  -5  -6 1537.58 293.194   2
  -2  -5  -7 1340.96 283.237   2
  -2  -5  -8 4391.39 469.025   2
  -2  -4  13 4343.96 342.007   2
   2  -4 -12 3703.67 247.762   2
   2  -4 -11 4200.74 271.818   2
   2  -4 -10 8722.57 320.499   2
   2  -4  -9 6895.33 312.487   2
   2  -4  -8 1813.83 241.476   2
   2  -4  -7 6717.18 318.872   2
  -2  -4   6 5705.55 387.817   2
  -2  -4  -1 23545.4 1859.45   2
  -2  -4  -2 1081.51 1511.17   2
  -2  -4  -3 2232.86 678.009   2
   2  -4   4 2830.80 451.070   2
  -2  -4  -5 983.545 311.463   2
   2  -4   6 3982.09 373.218   2
  -2  -4  -7 6673.78 361.647   2
  -2  -4  -8 368.942 356.629   2
   2  -4   9 3698.65 368.007   2
   2  -4  10 4706.75 424.638   2
   2  -4  11 229.174 364.225   2
  -2  -3  15 1394.29 545.830   2
   2  -3 -14 1790.25 231.591   2
   2  -3 -13 221.308 240.046   2
   2  -3 -12 3588.14 280.191   2
  -2  -3  11 30307.0 471.751   2
  -2  -3  10 56586.3 606.251   2
   2  -3  -9 717.216 224.350   2
  -2  -3   8 2048.11 223.145   2
  -2  -3   7 4070.17 213.841   2
   2  -3  -6 2385.16 199.579   2
  -2  -3   5 6879.78 286.199   2
   2  -3  -4 54701.6 888.184   2
  -2  -3   3 3315.79 413.074   2
  -2  -3   2 3454.72 382.171   2
  -2  -3   1 2143.12 220.852   2
  -2  -3  -2 7219.94 436.552   2
   2  -3   3 4720.23 263.264   2
  -2  -3  -4 6747.97 218.742   2
  -2  -3  -5 4448.20 260.822   2
  -2  -3  -6 222.833 257.778   2
  -2  -3  -7 3952.26 304.271   2
  -2  -3  -8 9654.37 360.474   2
  -2  -3  -9 891.019 339.567   2
   2  -3  10 6886.60 378.036   2
  -2  -3 -11 2952.66 372.363   2
  -2  -3 -12 159.097 288.441   2
   2  -3  13 2371.49 424.017   2
  -2  -2  16 185.455 523.453   2
   2  -2 -15 234.889 222.112   2
   2  -2 -14 3530.60 296.568   2
  -2  -2  13 1863.08 297.327   2
  -2  -2  12 2779.44 299.038   2
  -2  -2  11 3682.45 311.302   2
  -2  -2  10 25749.6 477.007   2
  -2  -2   9 5546.52 262.228   2
  -2  -2   8 3959.97 231.998   2
   2  -2  -7 7831.83 245.603   2
   2  -2  -6 25893.1 310.507   2
   2  -2  -5 55281.7 376.332   2
  -2  -2   4 4741.11 345.257   2
  -2  -2   3 97073.1 753.456   2
   2  -2  -2 132802. 1309.52   2
   2  -2  -1 11648.3 401.091   2
  -2  -2  -1 36016.4 684.852   2
  -2  -2  -2 18918.1 606.579   2
  -2  -2  -3 11167.9 265.555   2
  -2  -2  -4 5514.07 228.265   2
  -2  -2  -5 2023.78 218.701   2
  -2  -2  -6 9072.42 278.406   2
  -2  -2  -7 20345.0 398.346   2
  -2  -2  -8 1518.97 332.489   2
  -2  -2  -9 35500.2 634.837   2
  -2  -2 -10 18801.0 639.443   2
  -2  -2 -11 11448.9 538.909   2
  -2  -2 -12 3242.97 421.426   2
  -2  -2 -13 65.4098 334.481   2
  -2  -2 -14 1814.23 328.878   2
   2  -1 -16 960.029 247.569   2
   2  -1 -15 57.7129 258.294   2
   2  -1 -14 1820.64 282.311   2
  -2  -1  13 6400.86 265.221   2
  -2  -1  12 4757.15 265.500   2
  -2  -1  11 835.439 243.357   2
  -2  -1  10 15294.6 317.240   2
  -2  -1   9 6435.39 217.726   2
  -2  -1   8 4142.87 188.278   2
  -2  -1   7 45953.9 325.939   2
   2  -1  -6 1703.36 347.258   2
   2  -1  -5 49275.1 682.914   2
   2  -1  -4 93369.8 597.106   2
  -2  -1   3 125480. 560.809   2
   2  -1  -2 70997.3 392.771   2
   2  -1  -1 627245. 1281.63   2
   2  -1   0 21553.2 258.006   2
  -2  -1  -1 71684.0 681.164   2
  -2  -1  -2 6943.12 344.946   2
  -2  -1  -3 3145.41 380.050   2
  -2  -1  -4 111.903 367.657   2
  -2  -1  -5 25326.1 339.956   2
  -2  -1  -6 63845.9 547.713   2
  -2  -1  -7 5957.80 422.289   2
  -2  -1  -8 61634.4 545.546   2
   2  -1   9 3067.52 416.124   2
   2  -1  10 6575.76 358.066   2
  -2  -1 -11 21784.5 661.761   2
  -2  -1 -12 9824.17 501.276   2
  -2  -1 -13 6738.76 435.085   2
  -2  -1 -14 1282.28 331.999   2
  -2   0  16 26.6320 305.871   2
   2   0 -15 1531.76 211.300   2
   2   0 -14 11812.5 313.133   2
  -2   0  13 1882.63 248.163   2
  -2   0  12 9669.67 336.002   2
  -2   0  11 789.292 282.248   2
  -2   0  10 3337.72 246.716   2
  -2   0   9 8964.11 262.549   2
  -2   0   8 34441.0 286.326   2
  -2   0   7 140914. 628.165   2
  -2   0   6 33294.2 719.576   2
   2   0  -5 102.696 266.912   2
  -2   0   4 4947.99 229.565   2
  -2   0   3 158152. 566.459   2
  -2   0   2 10291.0 137.320   2
   2   0  -1 24526.1 216.512   2
  -2   0   0 611489. 822.264   2
   2   0   1 75037.3 427.138   2
   2   0   2 32584.1 425.117   2
   2   0   3 30631.6 576.042   2
  -2   0  -4 31834.7 804.504   2
  -2   0  -5 14343.9 688.791   2
  -2   0  -6 69764.1 836.239   2
  -2   0  -7 789.974 242.133   2
   2   0   8 3053.69 282.805   2
  -2   0  -9 12691.9 373.926   2
  -2   0 -10 2122.16 312.401   2
   2   0  11 475.457 380.393   2
  -2   0 -12 320.146 378.568   2
  -2   0 -13 9389.04 452.881   2
  -2   0 -14 25.0649 310.313   2
   2   0  15 1187.44 356.848   2
  -2   1  16 908.687 206.751   2
  -2   1  15 104.595 236.065   2
  -2   1  14 1717.44 244.040   2
  -2   1  13 5395.32 342.578   2
  -2   1  12 5043.73 335.651   2
  -2   1  11 881.190 228.639   2
  -2   1  10 16051.2 281.712   2
  -2   1   9 6475.29 215.141   2
  -2   1   8 4035.20 174.178   2
  -2   1   7 49295.5 339.104   2
  -2   1   5 46895.1 1010.74   2
  -2   1   3 125760. 1531.39   2
   2   1  -2 61028.9 354.784   2
   2   1  -1 612038. 1573.58   2
  -2   1   0 23700.8 292.332   2
  -2   1  -1 77596.1 564.509   2
  -2   1  -2 7385.93 419.248   2
  -2   1  -3 3230.45 571.993   2
  -2   1  -4 60.4908 615.131   2
  -2   1  -5 27920.8 779.425   2
  -2   1  -6 59089.3 542.132   2
  -2   1  -7 6094.80 231.358   2
  -2   1  -8 65539.3 535.902   2
  -2   1  -9 3363.57 263.230   2
  -2   1 -10 6480.08 299.750   2
  -2   1 -11 20284.3 379.830   2
  -2   1 -12 8588.09 314.293   2
  -2   1 -13 6695.35 406.834   2
  -2   1 -14 998.036 317.867   2
  -2   2  16 1208.72 302.811   2
  -2   2  15 178.009 265.235   2
  -2   2  14 3102.37 293.264   2
  -2   2  13 1571.19 289.164   2
  -2   2  12 2220.69 243.647   2
  -2   2  11 3502.56 235.027   2
  -2   2  10 26198.9 353.520   2
  -2   2   9 5372.71 210.014   2
  -2   2   8 4109.13 180.136   2
  -2   2   7 7708.75 189.178   2
  -2   2   6 27394.0 271.266   2
  -2   2   5 64568.5 360.226   2
  -2   2   2 132751. 1152.91   2
  -2   2  -1 42241.3 1201.81   2
  -2   2  -2 22158.4 721.516   2
  -2   2  -3 12602.3 433.539   2
  -2   2  -4 5499.91 262.940   2
  -2   2  -5 2058.72 253.960   2
  -2   2  -6 9206.97 333.489   2
  -2   2  -7 24029.8 450.679   2
  -2   2  -8 1300.37 299.683   2
   2   2   9 39603.9 479.653   2
   2   2  10 18479.6 375.090   2
   2   2  11 10957.7 323.065   2
   2   2  12 3055.10 255.104   2
   2   2  13 31.3351 219.811   2
  -2   3  14 1666.31 241.609   2
  -2   3  13 290.566 244.733   2
  -2   3  12 3017.12 245.363   2
  -2   3  11 27152.0 359.604   2
  -2   3  10 55865.5 494.460   2
  -2   3   9 501.763 157.620   2
  -2   3   8 2019.88 178.984   2
  -2   3   7 4043.47 209.365   2
  -2   3   6 2433.41 192.492   2
  -2   3   5 6147.54 263.462   2
  -2   3   4 47826.2 576.673   2
  -2   3   3 3034.87 419.518   2
  -2   3   2 4386.22 578.156   2
   2   3   2 7303.30 372.193   2
   2   3   3 4189.68 251.005   2
   2   3   4 5964.26 391.452   2
  -2   3  -5 4701.50 379.652   2
  -2   3  -6 297.506 351.107   2
   2   3   7 4153.61 327.691   2
   2   3   8 9391.78 383.042   2
   2   3   9 846.517 244.690   2
   2   3  10 7043.08 288.780   2
   2   3  11 2640.88 235.541   2
   2   3  12 151.380 219.425   2
   2   3  13 815.212 252.191   2
  -2   4  13 3814.40 262.873   2
  -2   4  12 2652.34 246.818   2
  -2   4  11 3127.16 266.400   2
  -2   4  10 5556.58 233.511   2
  -2   4   9 5515.82 211.379   2
  -2   4   8 1755.49 229.174   2
  -2   4   7 7152.37 268.431   2
  -2   4   6 6113.59 422.586   2
  -2   4   2 2054.99 457.984   2
   2   4  -1 8888.01 567.688   2
   2   4   0 6547.93 541.191   2
   2   4   1 37580.4 893.831   2
   2   4   2 2782.69 377.491   2
   2   4   3 2916.25 397.053   2
   2   4   4 3036.47 247.138   2
   2   4   5 1429.45 385.963   2
   2   4   6 4378.15 279.541   2
   2   4   7 6205.00 296.078   2
   2   4   8 237.897 245.098   2
   2   4   9 3062.86 213.873   2
   2   4  10 2857.45 195.748   2
  -2   4 -11 103.616 159.977   2
  -2   5  10 301.705 281.280   2
  -2   5   9 2607.56 253.375   2
  -2   5   8 1436.59 178.857   2
  -2   5   7 2847.72 244.391   2
   2   5  -6 1184.26 358.961   2
   2   5  -5 337.679 498.170   2
   2   5  -4 572.392 538.946   2
   2   5  -3 797.113 527.280   2
   2   5  -2 8958.61 644.378   2
  -2   5   1 5816.35 420.467   2
   2   5   0 5780.15 591.393   2
   2   5   1 1329.62 517.187   2
  -2   5  -2 4739.48 368.018   2
   2   5   3 2536.31 246.861   2
  -2   5  -4 9121.61 409.104   2
  -2   5  -5 1376.30 247.719   2
  -2   5  -6 1291.11 315.350   2
  -2   5  -7 1180.86 254.888   2
   2   5   8 3884.57 181.347   2
  -2   6   6 1569.89 376.759   2
   2   6  -5 151.895 448.883   2
   2   6  -4 1797.27 428.455   2
   2   6  -3 3141.64 479.532   2
   2   6  -2 1266.26 427.727   2
   2   6  -1 3664.96 446.275   2
   2   6   0 1645.23 423.904   2
   2   6   1 2322.20 450.167   2
   2   6   2 1152.96 414.894   2
   2   6   3 141.948 414.499   2
  -2   6  -4 5727.61 319.808   2
   3  -6  -5 514.106 571.628   2
   3  -6  -4 325.088 568.273   2
   3  -6  -3 751.822 589.217   2
  -3  -6   2-16.9248 1313.66   2
  -3  -6   1 860.723 642.600   2
  -3  -6   0-114.512 676.999   2
   3  -6   1 74.0247 458.158   2
   3  -6   2 207.594 432.370   2
  -3  -6  -3 649.302 533.637   2
  -3  -5  10 190.458 317.705   2
  -3  -5   9 485.296 332.969   2
  -3  -5   8 1651.79 366.032   2
  -3  -5   7 407.649 322.205   2
  -3  -5   6 780.468 334.743   2
  -3  -5   5 2319.32 443.272   2
   3  -5  -4-23.2252 661.526   2
  -3  -5   3 4584.15 575.641   2
  -3  -5   2 310.922 714.527   2
  -3  -5   1 6023.17 763.463   2
  -3  -5   0 1730.35 707.680   2
  -3  -5  -1 3969.56 556.408   2
   3  -5   2 978.261 498.500   2
  -3  -5  -3 4495.32 364.701   2
  -3  -5  -4 309.451 326.697   2
  -3  -5  -5 278.335 310.143   2
  -3  -5  -6 143.411 302.406   2
  -3  -5  -7 1354.32 424.975   2
   3  -4 -13 6573.63 242.157   2
   3  -4 -12 1929.14 227.520   2
   3  -4 -11 409.506 230.060   2
   3  -4 -10 9253.23 324.751   2
   3  -4  -9 1137.22 248.419   2
  -3  -4   8 5057.83 283.620   2
  -3  -4   7 2272.25 256.357   2
  -3  -4   6 238.765 232.334   2
  -3  -4   5 2483.11 265.308   2
  -3  -4   4 2853.59 334.197   2
  -3  -4   3 3700.76 391.921   2
  -3  -4   2 7707.85 509.820   2
  -3  -4   1 17594.3 575.799   2
  -3  -4   0 25616.7 529.054   2
  -3  -4  -1 4434.03 474.351   2
  -3  -4  -2 2114.03 324.398   2
  -3  -4  -3 5415.91 353.101   2
  -3  -4  -4 2939.49 287.399   2
  -3  -4  -5 11005.1 383.867   2
  -3  -4  -6 3701.73 329.171   2
  -3  -4  -7 4238.71 317.457   2
  -3  -4  -8 10043.2 419.018   2
   3  -4   9 1584.59 331.255   2
   3  -4  10 443.437 696.629   2
  -3  -3  15 561.668 514.158   2
   3  -3 -14 436.326 217.606   2
   3  -3 -13 795.492 237.842   2
   3  -3 -12 10250.0 330.686   2
   3  -3 -11 5759.39 271.602   2
   3  -3 -10 750.749 226.729   2
  -3  -3   9 3222.01 245.868   2
  -3  -3   8 13773.8 318.754   2
  -3  -3   7 709.106 199.353   2
  -3  -3   6 10988.6 262.500   2
  -3  -3   5 139.240 169.465   2
  -3  -3   4 7914.66 224.764   2
  -3  -3   3 12808.8 262.783   2
  -3  -3   2 8032.69 216.687   2
  -3  -3   1 11623.8 339.011   2
  -3  -3   0 19091.7 313.901   2
  -3  -3  -1 37083.2 446.118   2
  -3  -3  -2 2557.34 312.489   2
  -3  -3  -3 1140.13 258.007   2
  -3  -3  -4 1698.61 272.771   2
  -3  -3  -5 5071.01 309.391   2
  -3  -3  -6 21576.0 453.936   2
  -3  -3  -7 5820.53 338.302   2
  -3  -3  -8 7957.17 432.260   2
  -3  -3  -9 7408.39 420.138   2
  -3  -3 -10 11156.3 514.649   2
  -3  -3 -11 4076.03 414.893   2
   3  -3  12 420.596 689.433   2
  -3  -2  16 792.696 548.623   2
   3  -2 -15 162.598 222.596   2
   3  -2 -14 2634.70 263.248   2
   3  -2 -13 4054.56 312.140   2
   3  -2 -12 5035.45 329.862   2
  -3  -2  11 10943.8 337.574   2
  -3  -2  10 45484.3 516.766   2
  -3  -2   9 24186.8 401.536   2
  -3  -2   8 964.310 204.785   2
   3  -2  -7 4013.10 218.258   2
   3  -2  -6 8354.23 214.668   2
   3  -2  -5 8539.12 196.958   2
  -3  -2   4 7758.67 183.650   2
  -3  -2   3 9778.82 292.245   2
   3  -2  -2 17933.9 448.308   2
  -3  -2   1 42758.0 729.385   2
  -3  -2   0 59394.0 750.128   2
  -3  -2  -1 59837.4 408.495   2
  -3  -2  -2 39080.1 419.973   2
  -3  -2  -3 7372.16 249.542   2
   3  -2   4 5146.66 240.252   2
  -3  -2  -5 9388.16 273.458   2
  -3  -2  -6 3545.83 254.305   2
  -3  -2  -7 4198.95 309.977   2
  -3  -2  -8 29388.5 529.612   2
  -3  -2  -9 5065.16 380.437   2
  -3  -2 -10 4518.57 457.781   2
  -3  -2 -11 2217.79 414.096   2
  -3  -2 -12 1558.12 368.771   2
  -3  -2 -13 307.015 327.753   2
   3  -1 -16 37.5985 281.449   2
   3  -1 -15 2649.70 285.698   2
   3  -1 -14 8019.61 351.292   2
  -3  -1  13 8541.94 299.196   2
  -3  -1  12 606.312 210.928   2
  -3  -1  11 14568.8 325.601   2
  -3  -1  10 2819.45 214.413   2
  -3  -1   9 10808.4 226.661   2
  -3  -1   8 79698.0 415.218   2
  -3  -1   7 302.423 155.419   2
  -3  -1   6 17453.9 288.883   2
   3  -1  -5 33731.6 563.719   2
   3  -1  -4 7583.12 240.495   2
   3  -1  -3 280040. 690.344   2
  -3  -1   2 97402.9 385.404   2
  -3  -1   1 53461.2 389.643   2
  -3  -1   0 561.381 172.076   2
  -3  -1  -1 127910. 549.009   2
  -3  -1  -2 3345.57 337.624   2
  -3  -1  -3 98849.8 1091.86   2
  -3  -1  -4 8555.62 256.681   2
  -3  -1  -5 11477.2 298.721   2
  -3  -1  -6 5541.06 390.851   2
   3  -1   7 1944.86 395.156   2
  -3  -1  -8 21144.1 811.375   2
  -3  -1  -9 16578.9 994.189   2
  -3  -1 -10 11496.0 536.984   2
  -3  -1 -11 4890.45 451.409   2
  -3  -1 -12 3030.86 387.123   2
  -3  -1 -13 1948.92 345.604   2
  -3  -1 -14 52.5241 464.982   2
  -3   0  16 233.576 265.492   2
  -3   0  15 222.210 226.944   2
  -3   0  14 8162.79 337.977   2
  -3   0  13 527.493 237.114   2
  -3   0  12 12181.1 337.910   2
  -3   0  11 3388.70 237.809   2
  -3   0  10 9674.24 255.104   2
  -3   0   9 30105.7 320.233   2
  -3   0   8 1753.29 181.123   2
  -3   0   7 69789.4 393.029   2
  -3   0   6 1476.52 273.666   2
  -3   0   5 18089.6 417.234   2
  -3   0   4 33145.1 401.981   2
   3   0  -3 13096.7 270.106   2
   3   0  -2 525.359 306.730   2
   3   0  -1 211419. 800.429   2
  -3   0   0 1701.12 107.173   2
  -3   0  -1 1194.26 201.165   2
  -3   0  -2 38548.2 527.770   2
   3   0   3 141831. 1301.21   2
  -3   0  -4 3487.80 389.214   2
  -3   0  -5 1807.96 418.720   2
  -3   0  -6 4703.27 371.769   2
  -3   0  -7 3848.54 386.071   2
  -3   0  -8 746.833 412.193   2
  -3   0  -9 48741.1 633.583   2
  -3   0 -10 20842.8 998.137   2
  -3   0 -11 6822.86 765.635   2
  -3   0 -12 15224.7 840.892   2
  -3   0 -13 8519.40 417.075   2
  -3   0 -14 26.0486 287.978   2
  -3   1  16 57.3750 219.801   2
  -3   1  15 2596.84 273.426   2
  -3   1  14 7564.54 346.405   2
  -3   1  13 7985.80 336.016   2
  -3   1  12 513.401 258.856   2
  -3   1  11 15244.0 322.586   2
  -3   1  10 2846.14 229.721   2
  -3   1   9 10647.5 238.766   2
  -3   1   8 78714.2 402.046   2
  -3   1   7 244.408 132.799   2
  -3   1   6 18627.2 252.611   2
   3   1  -4 7251.88 429.676   2
   3   1  -3 256124. 970.218   2
  -3   1   2 89770.5 714.195   2
  -3   1   1 50658.0 418.114   2
  -3   1   0 579.314 211.320   2
  -3   1  -1 143843. 1081.92   2
  -3   1  -2 3495.21 463.142   2
  -3   1  -3 86903.8 1626.07   2
  -3   1  -4 8190.69 270.834   2
  -3   1  -5 10893.8 307.821   2
  -3   1  -6 5360.23 252.497   2
   3   1   7 1849.81 221.498   2
  -3   1  -8 17886.9 319.561   2
  -3   1  -9 16574.9 358.321   2
  -3   1 -10 10891.4 330.380   2
  -3   1 -11 5323.61 437.115   2
  -3   1 -12 2764.29 408.855   2
  -3   1 -13 1735.82 585.577   2
   3   1  14 85.3742 325.525   2
  -3   2  16 5330.94 244.233   2
  -3   2  15 122.835 234.406   2
  -3   2  14 2679.32 288.746   2
  -3   2  13 3479.87 287.027   2
  -3   2  12 4747.54 270.875   2
  -3   2  11 10880.5 314.621   2
  -3   2  10 46515.5 391.652   2
  -3   2   9 23647.6 297.294   2
  -3   2   8 836.717 140.206   2
  -3   2   7 4227.10 147.358   2
  -3   2   6 7837.35 172.833   2
  -3   2   5 8855.41 178.926   2
  -3   2   4 7652.95 175.299   2
  -3   2   3 8570.41 211.927   2
  -3   2   0 59167.3 448.733   2
  -3   2  -1 63503.5 407.730   2
  -3   2  -2 40995.3 366.551   2
  -3   2  -3 8672.89 268.244   2
  -3   2  -4 5339.34 280.951   2
  -3   2  -5 9522.19 311.374   2
  -3   2  -6 3174.22 311.570   2
  -3   2  -7 4113.86 289.636   2
   3   2   8 28132.7 413.943   2
   3   2   9 4434.91 281.134   2
   3   2  10 3980.30 269.732   2
   3   2  11 1701.28 255.230   2
  -3   2 -12 1253.07 266.571   2
  -3   2 -13 432.524 547.101   2
   3   3 -15 2155.61 441.539   2
  -3   3  14 350.751 235.196   2
  -3   3  13 702.291 241.339   2
  -3   3  12 9261.44 287.230   2
  -3   3  11 4711.32 264.861   2
  -3   3  10 730.419 185.147   2
  -3   3   9 2743.52 173.788   2
  -3   3   8 12398.8 223.701   2
  -3   3   7 675.322 168.164   2
  -3   3   6 11020.3 212.279   2
  -3   3   5 130.439 143.835   2
  -3   3   4 8814.86 204.704   2
  -3   3   3 13142.9 248.799   2
  -3   3   2 9162.71 337.991   2
  -3   3   1 13332.8 294.240   2
  -3   3   0 22953.4 365.569   2
  -3   3  -1 41059.7 478.597   2
  -3   3  -2 2760.10 193.114   2
  -3   3  -3 1251.19 207.227   2
  -3   3  -4 2008.82 304.173   2
  -3   3  -5 4974.15 357.943   2
  -3   3  -6 23361.1 498.380   2
  -3   3  -7 5434.42 319.283   2
  -3   3  -8 7631.02 334.360   2
  -3   3  -9 7547.08 273.901   2
   3   3  10 9501.99 286.063   2
   3   3  11 3442.31 212.840   2
   3   3  12 237.404 249.970   2
  -3   4  12 1288.68 235.425   2
  -3   4  11 385.367 210.806   2
  -3   4  10 7620.11 281.479   2
  -3   4   9 897.625 167.634   2
  -3   4   8 4121.64 195.486   2
  -3   4   7 2283.19 210.180   2
  -3   4   6 304.487 188.390   2
  -3   4   5 2228.15 223.350   2
  -3   4   4 3181.75 230.694   2
  -3   4   3 5471.52 266.936   2
  -3   4   2 8621.28 289.741   2
  -3   4   1 20829.6 488.635   2
  -3   4   0 31778.7 472.922   2
  -3   4  -1 6594.72 286.601   2
  -3   4  -2 2330.51 204.256   2
   3   4   3 6231.35 285.666   2
  -3   4  -4 3423.17 299.701   2
  -3   4  -5 12626.6 388.478   2
  -3   4  -6 4166.78 315.069   2
   3   4   7 5036.99 278.828   2
   3   4   8 9469.99 248.615   2
  -3   4  -9 1107.24 171.302   2
  -3   4 -10 680.745 160.045   2
  -3   5  10 39.5373 280.884   2
  -3   5   9 255.953 272.804   2
  -3   5   8 986.090 155.248   2
  -3   5   7 209.264 164.641   2
  -3   5   6 849.879 201.030   2
  -3   5   5 2625.70 221.892   2
  -3   5   4 673.012 205.919   2
  -3   5   3 12288.1 301.769   2
  -3   5   2 626.266 215.312   2
  -3   5   1 11211.8 282.410   2
  -3   5   0 3319.59 199.993   2
  -3   5  -1 11900.1 286.340   2
  -3   5  -2 2435.34 224.315   2
  -3   5  -3 7034.11 299.290   2
  -3   5  -4 490.543 282.033   2
  -3   5  -5 301.733 226.281   2
  -3   5  -6 120.542 228.045   2
  -3   5  -7 984.829 180.043   2
  -3   5  -8 135.358 360.763   2
  -3   6   5 963.841 168.192   2
  -3   6   4 1012.81 172.166   2
  -3   6   3 3883.19 197.210   2
  -3   6   2 382.860 174.970   2
  -3   6   1 2934.58 194.872   2
  -3   6   0 237.380 180.829   2
  -3   6  -1 110.434 220.124   2
  -3   6  -2 317.074 272.723   2
   4  -6  -3 340.343 547.523   2
   4  -6  -2 285.585 614.606   2
   4  -6  -1 20.3020 637.403   2
   4  -6   0 89.7318 625.960   2
  -4  -5  10 85.8616 296.269   2
  -4  -5   9 35.4901 308.360   2
   4  -5  -8 761.229 314.425   2
   4  -5  -7 1785.43 317.983   2
  -4  -5   6 556.963 298.850   2
  -4  -5   5 1057.54 381.145   2
   4  -5  -4 740.933 666.336   2
   4  -5  -3 513.908 676.123   2
   4  -5  -2 363.382 427.954   2
   4  -5  -1 168.245 425.991   2
  -4  -5   0 162.436 337.365   2
  -4  -5  -1 1172.15 290.506   2
  -4  -5  -2 345.779 282.276   2
  -4  -5  -3 539.218 300.142   2
  -4  -5  -4 143.279 296.286   2
  -4  -5  -5 516.845 293.740   2
  -4  -5  -6 599.489 398.993   2
   4  -4 -13 2986.08 251.576   2
   4  -4 -12 5265.43 249.510   2
   4  -4 -11 2868.79 247.565   2
   4  -4 -10 887.415 239.786   2
  -4  -4   9 780.400 243.566   2
  -4  -4   8 7335.42 317.747   2
  -4  -4   7 756.149 238.565   2
  -4  -4   6 8563.95 364.569   2
  -4  -4   5 6095.45 338.843   2
  -4  -4   4 3895.67 347.283   2
  -4  -4   3 6935.92 343.327   2
  -4  -4   2 3145.30 310.232   2
  -4  -4   1 3286.47 347.368   2
  -4  -4   0 984.601 333.644   2
  -4  -4  -1 12235.0 402.406   2
  -4  -4  -2 13984.7 423.924   2
  -4  -4  -3 7043.16 369.690   2
  -4  -4  -4 294.064 303.554   2
  -4  -4  -5 2129.33 377.714   2
  -4  -4  -6 9302.91 427.094   2
  -4  -4  -7 6982.46 459.848   2
   4  -4   8 232.746 433.662   2
   4  -4   9 699.605 683.192   2
   4  -3 -14 4544.68 286.588   2
   4  -3 -13 7319.95 282.637   2
   4  -3 -12 77.0298 226.375   2
   4  -3 -11 14409.7 322.976   2
  -4  -3  10 19728.1 358.889   2
  -4  -3   9 2979.43 242.515   2
  -4  -3   8 18.0942 214.794   2
  -4  -3   7 6997.10 264.885   2
  -4  -3   6 6759.84 243.716   2
  -4  -3   5 6855.12 237.756   2
   4  -3  -4 1647.19 199.105   2
   4  -3  -3 7830.80 246.736   2
  -4  -3   2 22025.9 309.884   2
  -4  -3   1 1925.36 279.654   2
  -4  -3   0 3190.48 302.930   2
  -4  -3  -1 3838.82 350.055   2
  -4  -3  -2 6493.61 375.801   2
  -4  -3  -3 201.080 327.772   2
  -4  -3  -4 2612.35 360.388   2
  -4  -3  -5 23311.1 514.101   2
  -4  -3  -6 3677.06 371.505   2
  -4  -3  -7 3216.13 376.718   2
  -4  -3  -8 468.512 342.703   2
  -4  -3  -9 4370.76 452.638   2
  -4  -3 -10 1696.43 647.099   2
   4  -3  11 299.235 674.003   2
  -4  -2  16 34.4267 268.785   2
   4  -2 -15 2606.51 278.488   2
  -4  -2  14 1509.68 288.067   2
   4  -2 -13 4804.39 264.571   2
   4  -2 -12 8708.51 298.303   2
   4  -2 -11 9237.43 303.988   2
  -4  -2  10 548.402 229.426   2
  -4  -2   9 9998.54 287.528   2
  -4  -2   8 2858.26 224.528   2
   4  -2  -7 989.629 194.585   2
   4  -2  -6 2120.72 196.331   2
   4  -2  -5 29818.6 299.313   2
  -4  -2   4 20562.8 256.932   2
  -4  -2   3 50901.2 356.877   2
  -4  -2   2 159511. 689.238   2
  -4  -2   1 2460.09 241.766   2
  -4  -2   0 12064.2 292.827   2
  -4  -2  -1 48588.3 466.938   2
  -4  -2  -2 9617.19 330.816   2
  -4  -2  -3 22122.3 383.168   2
   4  -2   4 119.330 278.162   2
  -4  -2  -5 5933.84 281.217   2
  -4  -2  -6 8113.75 339.848   2
  -4  -2  -7 4062.08 358.054   2
  -4  -2  -8 6307.12 373.452   2
  -4  -2  -9 1199.48 384.602   2
  -4  -2 -10 14052.0 512.481   2
  -4  -2 -11 443.865 303.968   2
  -4  -2 -12 181.711 345.103   2
  -4  -1  16 1057.24 284.531   2
   4  -1 -15 543.500 272.370   2
   4  -1 -14 1333.88 349.763   2
   4  -1 -13 9856.13 393.935   2
  -4  -1  12 671.512 232.865   2
  -4  -1  11 12042.5 321.542   2
  -4  -1  10 34870.0 364.840   2
  -4  -1   9 28529.9 357.532   2
  -4  -1   8 7171.02 220.542   2
  -4  -1   7 16635.3 250.231   2
  -4  -1   6 24076.0 298.804   2
  -4  -1   5 8930.69 252.790   2
  -4  -1   4 8093.66 316.841   2
   4  -1  -3 60643.5 692.727   2
  -4  -1   2 4090.09 392.873   2
  -4  -1   1 75406.5 512.246   2
  -4  -1   0 15941.9 244.184   2
  -4  -1  -1 49401.5 428.569   2
  -4  -1  -2 26227.6 352.932   2
  -4  -1  -3 21191.2 299.974   2
  -4  -1  -4 28504.5 353.536   2
  -4  -1  -5 13113.5 372.791   2
  -4  -1  -6 5207.69 429.352   2
  -4  -1  -7 3096.21 593.560   2
  -4  -1  -8 42552.3 974.180   2
  -4  -1  -9 19371.5 587.955   2
  -4  -1 -10 1966.42 332.729   2
  -4  -1 -11 4146.70 334.233   2
  -4  -1 -12 2539.23 355.927   2
  -4  -1 -13 954.318 464.474   2
  -4   0  16 283.500 261.806   2
  -4   0  15 1687.33 237.157   2
  -4   0  14 7039.44 340.573   2
  -4   0  13 20979.4 417.201   2
  -4   0  12 116.510 215.368   2
  -4   0  11 28555.4 430.528   2
  -4   0  10 782.727 232.811   2
  -4   0   9 15239.7 315.384   2
  -4   0   8 13151.9 251.339   2
  -4   0   7 22.3529 151.664   2
  -4   0   6 256.464 208.609   2
  -4   0   5 1643.93 354.391   2
  -4   0   4 2948.59 119.326   2
  -4   0   3 8609.78 760.025   2
   4   0  -2 25834.4 484.296   2
  -4   0   1 1900.00 428.589   2
  -4   0   0 578.701 439.629   2
   4   0   1 2472.92 285.012   2
  -4   0  -2 11537.1 356.861   2
  -4   0  -3 5301.56 355.843   2
  -4   0  -4 13618.1 481.756   2
  -4   0  -5 480.133 430.990   2
  -4   0  -6 9895.95 629.758   2
  -4   0  -7 1863.94 536.647   2
  -4   0  -8 107.890 421.832   2
  -4   0  -9 11901.0 555.595   2
  -4   0 -10 10375.0 539.372   2
  -4   0 -11 290.750 599.340   2
  -4   0 -12 1648.96 336.456   2
  -4   0 -13 140.945 293.346   2
  -4   1  16 1357.68 231.056   2
  -4   1  15 561.326 225.390   2
  -4   1  14 1295.92 265.808   2
  -4   1  13 10290.0 384.558   2
  -4   1  12 540.903 261.765   2
  -4   1  11 11785.6 305.538   2
  -4   1  10 33803.6 400.363   2
  -4   1   9 27912.2 315.802   2
  -4   1   8 7336.00 211.455   2
  -4   1   7 17672.9 228.989   2
  -4   1   6 22400.0 259.215   2
  -4   1   5 8983.22 258.607   2
  -4   1   4 9296.23 760.592   2
  -4   1   3 63526.2 775.631   2
  -4   1   2 2251.69 508.032   2
  -4   1   0 18196.3 730.086   2
  -4   1  -1 47643.0 490.855   2
  -4   1  -2 27545.5 335.457   2
  -4   1  -3 21944.3 336.959   2
  -4   1  -4 28053.2 401.918   2
  -4   1  -5 12437.9 350.524   2
  -4   1  -6 4025.29 277.940   2
  -4   1  -7 2696.65 280.317   2
  -4   1  -8 34518.2 472.920   2
  -4   1  -9 18675.4 465.928   2
  -4   1 -10 1871.42 425.743   2
  -4   1 -11 5182.82 650.078   2
  -4   1 -12 2565.57 596.537   2
  -4   1 -13 566.493 253.723   2
  -4   2  16 69.1340 271.504   2
  -4   2  15 2554.75 264.571   2
  -4   2  14 1416.00 251.296   2
  -4   2  13 4901.37 295.994   2
  -4   2  12 8665.79 271.170   2
  -4   2  11 10030.3 276.589   2
  -4   2  10 480.395 192.711   2
  -4   2   9 8780.69 245.298   2
  -4   2   8 2679.97 198.086   2
  -4   2   7 873.648 139.670   2
  -4   2   6 2138.96 154.362   2
  -4   2   5 29647.6 268.294   2
  -4   2   4 21529.8 241.713   2
  -4   2   3 53905.9 302.718   2
  -4   2   2 169965. 533.729   2
  -4   2   1 2987.15 174.118   2
  -4   2   0 14677.0 212.567   2
  -4   2  -1 57066.7 341.651   2
  -4   2  -2 10395.2 263.815   2
  -4   2  -3 23387.7 349.655   2
  -4   2  -4 172.743 245.194   2
  -4   2  -5 5775.97 324.800   2
  -4   2  -6 7780.23 360.599   2
  -4   2  -7 3786.32 256.269   2
  -4   2  -8 5176.97 316.558   2
  -4   2  -9 807.098 328.574   2
  -4   2 -10 12448.6 358.893   2
  -4   2 -11 554.896 301.834   2
  -4   2 -12 228.095 387.981   2
  -4   3  14 3776.58 249.083   2
  -4   3  13 6125.33 281.916   2
  -4   3  12 91.8764 217.776   2
  -4   3  11 13258.5 318.082   2
  -4   3  10 15444.3 300.547   2
  -4   3   9 2725.92 204.913   2
  -4   3   8 38.6339 151.712   2
  -4   3   7 6382.13 184.119   2
  -4   3   6 6956.10 202.096   2
  -4   3   5 7265.97 196.997   2
  -4   3   4 1647.52 163.241   2
  -4   3   3 8393.93 196.110   2
  -4   3   2 22481.0 278.515   2
  -4   3   1 1974.27 158.550   2
  -4   3   0 3783.89 210.069   2
  -4   3  -1 4773.59 214.115   2
  -4   3  -2 7540.16 220.998   2
  -4   3  -3 119.626 202.888   2
  -4   3  -4 2894.59 240.958   2
  -4   3  -5 24284.9 381.492   2
  -4   3  -6 4133.24 365.216   2
  -4   3  -7 3242.26 302.551   2
  -4   3  -8 214.196 201.361   2
  -4   3  -9 3945.20 223.884   2
  -4   3 -10 3036.12 225.991   2
   4   3  11 451.229 232.823   2
  -4   4  12 4455.77 275.394   2
  -4   4  11 2097.80 230.069   2
  -4   4  10 570.175 193.228   2
  -4   4   9 456.159 210.392   2
  -4   4   8 6110.90 242.821   2
  -4   4   7 710.045 183.454   2
  -4   4   6 8660.78 245.827   2
  -4   4   5 6809.95 219.588   2
  -4   4   4 4641.75 211.346   2
  -4   4   3 9805.99 278.687   2
  -4   4   2 4566.34 264.660   2
  -4   4   1 4044.35 262.974   2
  -4   4   0 1196.73 168.537   2
  -4   4  -1 13552.1 273.577   2
  -4   4  -2 16618.2 319.572   2
  -4   4  -3 8936.31 297.418   2
  -4   4  -4 263.267 229.693   2
  -4   4  -5 3250.83 260.272   2
  -4   4  -6 12335.6 284.569   2
   4   4   7 10637.1 229.127   2
  -4   4  -8 330.877 168.023   2
  -4   4  -9 732.173 202.913   2
  -4   5  10-8.20568 265.247   2
  -4   5   9 19.7986 236.092   2
  -4   5   8 265.497 199.091   2
  -4   5   7 1579.91 172.154   2
  -4   5   6 462.708 166.062   2
  -4   5   5 1514.34 182.971   2
  -4   5   4 2690.70 207.721   2
  -4   5   3 3817.69 214.242   2
  -4   5   2 1182.64 214.129   2
  -4   5   1 659.788 208.249   2
  -4   5   0 261.019 213.805   2
  -4   5  -1 2020.22 211.462   2
  -4   5  -2 502.927 197.160   2
  -4   5  -3 1048.72 216.718   2
  -4   5  -4 181.555 227.951   2
  -4   5  -5 457.272 216.889   2
  -4   5  -6 342.733 175.437   2
  -4   6   4 1822.70 473.161   2
  -4   6   3 1555.94 304.103   2
  -4   6   2 206.342 299.208   2
  -4   6   1 2569.73 474.926   2
  -4   6   0 65.1214 429.857   2
  -5  -5   9 426.803 480.190   2
   5  -5  -8 63.9548 303.819   2
  -5  -5   7 170.706 382.396   2
  -5  -5   6 45.1370 343.475   2
  -5  -5   5 657.235 454.823   2
   5  -5  -4 367.880 657.197   2
   5  -5  -3 88.3806 632.582   2
   5  -5  -2 211.420 615.776   2
   5  -5  -1 203.161 407.971   2
   5  -5   0 688.010 397.137   2
   5  -5   1 953.712 392.410   2
  -5  -5  -2 1347.14 262.777   2
  -5  -5  -3 103.503 281.868   2
  -5  -5  -4 97.1375 277.837   2
  -5  -5  -5 409.510 476.304   2
   5  -4 -12 4024.54 277.755   2
   5  -4 -11 2819.22 280.598   2
   5  -4 -10 2494.81 289.308   2
  -5  -4   9 326.394 286.189   2
  -5  -4   8 1611.48 315.305   2
  -5  -4   7 9520.19 387.088   2
  -5  -4   6 229.808 268.148   2
  -5  -4   5 439.117 397.007   2
  -5  -4   4 4370.87 456.186   2
  -5  -4   3 513.269 364.454   2
  -5  -4   2 6127.42 406.206   2
  -5  -4   1 126.679 387.807   2
  -5  -4   0 13204.9 490.490   2
  -5  -4  -1 5964.23 369.361   2
  -5  -4  -2 3462.00 345.863   2
  -5  -4  -3 1851.20 330.273   2
  -5  -4  -4 124.831 297.569   2
  -5  -4  -5 9718.50 413.901   2
  -5  -4  -6 1498.43 417.063   2
  -5  -4  -7 3552.53 404.297   2
   5  -4   8 535.223 672.160   2
   5  -3 -14 663.803 252.513   2
   5  -3 -13 4147.06 264.813   2
   5  -3 -12 2313.99 262.280   2
   5  -3 -11 1274.12 231.922   2
  -5  -3  10 497.349 229.961   2
  -5  -3   9 5000.03 267.768   2
  -5  -3   8 7041.38 279.129   2
  -5  -3   7 4446.19 247.934   2
  -5  -3   6 1989.26 249.225   2
  -5  -3   5 3494.23 257.399   2
  -5  -3   4 15161.8 381.406   2
  -5  -3   3 5250.78 288.917   2
  -5  -3   2 65222.8 585.518   2
  -5  -3   1 32670.7 701.032   2
  -5  -3   0 1139.27 316.270   2
  -5  -3  -1 17398.7 422.252   2
  -5  -3  -2 3976.60 375.003   2
  -5  -3  -3 1708.15 354.192   2
  -5  -3  -4 5522.65 383.879   2
  -5  -3  -5 753.826 340.671   2
  -5  -3  -6 15384.2 718.946   2
  -5  -3  -7 8240.91 617.073   2
  -5  -3  -8 1272.23 1186.75   2
   5  -3  10 443.838 653.356   2
   5  -2 -15 387.023 258.667   2
   5  -2 -14 39.7144 245.029   2
   5  -2 -13 6555.00 310.379   2
   5  -2 -12 2784.69 287.182   2
  -5  -2  11 872.745 266.383   2
  -5  -2  10 25664.1 454.980   2
  -5  -2   9 38392.0 508.564   2
  -5  -2   8 5672.37 259.703   2
  -5  -2   7 18120.0 320.378   2
  -5  -2   6 404.456 198.977   2
  -5  -2   5 1558.15 207.957   2
  -5  -2   4 22769.9 343.641   2
  -5  -2   3 1185.21 230.519   2
  -5  -2   2 21262.9 400.482   2
  -5  -2   1 9314.49 340.540   2
  -5  -2   0 716.896 255.473   2
  -5  -2  -1 3479.29 336.446   2
  -5  -2  -2 3652.63 335.924   2
  -5  -2  -3 6408.90 377.741   2
  -5  -2  -4 8509.12 353.420   2
  -5  -2  -5 13004.3 390.290   2
  -5  -2  -6 11464.0 531.355   2
  -5  -2  -7 870.133 608.672   2
  -5  -2  -8 9447.87 669.756   2
  -5  -2  -9 7031.36 663.108   2
  -5  -2 -10 5549.58 410.603   2
  -5  -2 -11 381.519 528.562   2
  -5  -1  16 2264.31 305.134   2
  -5  -1  15 760.832 310.647   2
   5  -1 -14 1585.22 264.294   2
   5  -1 -13 12906.1 374.723   2
   5  -1 -12 2157.38 319.244   2
  -5  -1  11 16449.5 451.090   2
  -5  -1  10 60592.6 553.351   2
  -5  -1   9 12874.6 307.640   2
  -5  -1   8 9693.65 259.767   2
  -5  -1   7 2522.97 220.445   2
  -5  -1   6 26018.6 353.085   2
  -5  -1   5 20874.2 364.325   2
  -5  -1   4 42348.6 512.556   2
  -5  -1   3 33638.9 673.708   2
  -5  -1   2 45989.9 718.343   2
  -5  -1   1 17425.9 595.171   2
  -5  -1   0 151.551 302.444   2
  -5  -1  -1 31050.5 405.199   2
  -5  -1  -2 16085.6 365.082   2
  -5  -1  -3 42557.0 448.408   2
  -5  -1  -4 469.656 317.035   2
  -5  -1  -5 10807.0 643.237   2
  -5  -1  -6 2300.24 374.770   2
  -5  -1  -7 26543.1 581.842   2
  -5  -1  -8 7294.19 432.824   2
  -5  -1  -9 6181.24 362.960   2
  -5  -1 -10 3252.56 331.111   2
  -5  -1 -11 1985.85 358.355   2
  -5  -1 -12 3667.41 500.102   2
  -5   0  16 214.620 245.132   2
  -5   0  15 5591.99 332.919   2
  -5   0  14 7839.85 293.296   2
  -5   0  13 10232.2 335.207   2
  -5   0  12 14.8740 228.035   2
  -5   0  11 2238.91 240.564   2
  -5   0  10 305.905 243.561   2
  -5   0   9 6508.97 283.186   2
  -5   0   8 9263.79 290.365   2
  -5   0   7 22652.5 305.232   2
  -5   0   6 1461.39 202.293   2
  -5   0   5 34087.1 361.284   2
  -5   0   4 34557.0 400.698   2
  -5   0   1 6377.77 361.205   2
  -5   0   0 1170.35 281.900   2
  -5   0  -1 9497.48 420.808   2
  -5   0  -2 58895.1 728.407   2
  -5   0  -3 16925.8 557.041   2
  -5   0  -4 2954.50 478.534   2
  -5   0  -5 2410.23 527.994   2
  -5   0  -6 5124.51 411.602   2
  -5   0  -7 31897.3 704.441   2
  -5   0  -8 45.9572 407.024   2
  -5   0  -9 52896.2 822.729   2
  -5   0 -10 7004.54 357.850   2
  -5   0 -11 346.187 324.773   2
  -5   0 -12 16.9824 352.988   2
  -5   1  16 1582.87 253.295   2
  -5   1  15 561.423 207.561   2
  -5   1  14 1673.08 231.298   2
  -5   1  13 15275.9 362.527   2
  -5   1  12 2192.27 278.878   2
  -5   1  11 17768.6 385.902   2
  -5   1  10 58752.9 500.961   2
  -5   1   9 10984.4 247.137   2
  -5   1   8 8843.28 213.551   2
  -5   1   7 2232.98 191.399   2
  -5   1   6 24536.0 283.941   2
  -5   1   5 19031.7 254.448   2
  -5   1   4 37217.0 336.280   2
  -5   1   3 34538.7 343.291   2
  -5   1   2 48895.0 470.037   2
  -5   1   1 14470.5 318.789   2
  -5   1   0 129.233 209.617   2
  -5   1  -1 28206.4 282.315   2
  -5   1  -2 15852.1 253.904   2
  -5   1  -3 42032.1 383.781   2
  -5   1  -4 537.861 270.626   2
  -5   1  -5 9710.82 371.031   2
  -5   1  -6 1890.85 282.069   2
  -5   1  -7 23242.9 506.756   2
  -5   1  -8 6968.13 392.230   2
  -5   1  -9 7354.58 485.705   2
  -5   1 -10 3658.01 629.995   2
  -5   1 -11 1962.39 404.439   2
  -5   1 -12 3022.61 374.740   2
  -5   2  15 368.386 198.843   2
  -5   2  14 75.4292 242.936   2
  -5   2  13 6939.52 280.453   2
  -5   2  12 2825.95 226.405   2
  -5   2  11 701.915 232.204   2
  -5   2  10 23839.1 329.051   2
  -5   2   9 34232.7 366.143   2
  -5   2   8 5419.81 232.436   2
  -5   2   7 16931.2 248.703   2
  -5   2   6 360.029 150.723   2
  -5   2   5 1471.89 156.363   2
  -5   2   4 23700.1 250.977   2
  -5   2   3 1200.48 163.369   2
  -5   2   2 20613.5 290.260   2
  -5   2   1 9389.04 297.699   2
  -5   2   0 749.982 211.801   2
  -5   2  -1 3797.42 186.128   2
  -5   2  -2 3755.29 192.683   2
  -5   2  -3 6824.18 251.284   2
  -5   2  -4 9347.69 272.395   2
  -5   2  -5 13167.6 315.550   2
  -5   2  -6 9358.25 302.739   2
  -5   2  -7 666.323 280.795   2
  -5   2  -8 7653.88 304.273   2
  -5   2  -9 6904.06 369.181   2
  -5   2 -10 7179.82 286.358   2
  -5   2 -11 603.026 261.799   2
  -5   3  14 481.932 289.677   2
  -5   3  13 3532.36 343.157   2
  -5   3  12 2250.28 283.366   2
  -5   3  11 1331.03 262.338   2
  -5   3  10 435.438 216.054   2
  -5   3   9 3837.27 246.370   2
  -5   3   8 6602.71 222.554   2
  -5   3   7 4044.13 197.652   2
  -5   3   6 2029.95 178.969   2
  -5   3   5 3738.91 185.412   2
  -5   3   4 14885.0 260.350   2
  -5   3   3 5303.79 234.870   2
  -5   3   2 73258.3 547.585   2
  -5   3   1 41848.6 431.987   2
  -5   3   0 1512.48 328.648   2
  -5   3  -1 20021.2 429.389   2
  -5   3  -2 4614.83 217.256   2
  -5   3  -3 2098.31 205.284   2
  -5   3  -4 6126.01 239.906   2
  -5   3  -5 747.941 208.693   2
  -5   3  -6 16732.1 326.815   2
  -5   3  -7 8301.34 251.190   2
  -5   3  -8 632.204 218.235   2
  -5   3  -9 872.560 229.426   2
  -5   3 -10 1193.55 287.205   2
  -5   4  12 2875.43 289.597   2
  -5   4  11 2290.82 311.263   2
  -5   4  10 1394.42 239.506   2
  -5   4   9 196.575 226.566   2
  -5   4   8 990.130 240.228   2
  -5   4   7 8460.97 248.477   2
  -5   4   6 243.059 169.983   2
  -5   4   5 379.474 179.043   2
  -5   4   4 5917.13 260.679   2
  -5   4   3 883.126 241.241   2
  -5   4   2 10072.2 313.015   2
  -5   4   1 175.173 217.846   2
  -5   4   0 17428.4 358.315   2
  -5   4  -1 7795.97 564.564   2
  -5   4  -2 4771.23 296.682   2
  -5   4  -3 2381.06 257.495   2
  -5   4  -4 299.374 236.252   2
  -5   4  -5 14024.2 365.244   2
  -5   4  -6 2118.64 225.631   2
  -5   4  -7 6534.06 245.527   2
   5   4   8 1518.99 227.316   2
  -5   5   9 194.318 218.860   2
  -5   5   8 16.5482 178.809   2
  -5   5   7 6.67035 185.315   2
  -5   5   6 124.187 155.725   2
  -5   5   5 1000.03 184.991   2
  -5   5   4 1070.57 193.983   2
  -5   5   3 436.285 189.562   2
  -5   5   2 1286.52 219.026   2
  -5   5   1 659.306 237.961   2
  -5   5   0 1823.14 252.473   2
  -5   5  -1 2223.50 482.642   2
  -5   5  -2 1845.24 282.364   2
  -5   5  -3 144.508 256.228   2
  -5   5  -4 63.5720 205.869   2
  -5   5  -5 548.642 207.805   2
  -6  -5   8-18.2786 1226.75   2
  -6  -5   7 949.670 376.350   2
  -6  -5   6 115.695 1225.00   2
   6  -5  -5 379.944 646.424   2
   6  -5  -4-87.6980 703.705   2
   6  -5  -3 292.718 708.223   2
   6  -5  -2 78.7755 707.130   2
   6  -5  -1 206.525 640.607   2
   6  -5   0-63.5794 473.280   2
   6  -5   1 186.488 447.817   2
   6  -5   2 259.615 420.571   2
   6  -5   3-41.0615 663.889   2
   6  -4 -12 174.487 850.687   2
   6  -4 -11 240.318 320.869   2
   6  -4 -10 843.883 275.548   2
  -6  -4   9 1454.28 289.524   2
  -6  -4   8 4597.53 414.226   2
  -6  -4   7 3814.61 527.749   2
  -6  -4   6 2252.15 445.322   2
  -6  -4   5 5546.51 508.396   2
   6  -4  -4-80.4605 757.998   2
   6  -4  -3 106.452 785.904   2
  -6  -4   2 6766.80 801.120   2
   6  -4   0 257.316 882.629   2
   6  -4   1 391.908 872.459   2
  -6  -4  -2 1694.45 510.139   2
  -6  -4  -3 291.553 348.901   2
  -6  -4  -4 69.2087 330.290   2
  -6  -4  -5 3445.44 418.810   2
   6  -4   6 22.8052 519.125   2
   6  -3 -14 367.522 264.828   2
   6  -3 -13 3773.90 253.017   2
   6  -3 -12 968.724 240.685   2
   6  -3 -11 963.621 252.826   2
  -6  -3  10 1901.16 276.539   2
  -6  -3   9 7510.22 321.928   2
  -6  -3   8 650.584 257.505   2
  -6  -3   7 4008.36 312.971   2
  -6  -3   6 2681.69 307.821   2
  -6  -3   5 5365.74 319.573   2
  -6  -3   4 2239.19 368.120   2
  -6  -3   3 12365.5 641.890   2
  -6  -3   2 3727.73 738.932   2
  -6  -3   1 132.656 691.475   2
   6  -3   0 1269.97 851.220   2
  -6  -3  -1 2243.64 544.563   2
  -6  -3  -2 9665.83 460.441   2
  -6  -3  -3 3487.67 374.948   2
  -6  -3  -4 4255.08 375.325   2
  -6  -3  -5 3321.67 590.823   2
  -6  -3  -6 8209.81 1289.36   2
  -6  -3  -7 4708.94 1099.38   2
   6  -3   8 195.743 650.039   2
  -6  -2  15 682.250 288.743   2
   6  -2 -14 702.452 252.040   2
   6  -2 -13 1517.25 264.019   2
   6  -2 -12 1821.37 277.131   2
  -6  -2  11 1750.52 286.530   2
  -6  -2  10 1909.78 289.745   2
  -6  -2   9 10594.0 357.086   2
  -6  -2   8 2817.37 291.268   2
  -6  -2   7 1369.65 270.175   2
  -6  -2   6 8253.24 339.661   2
  -6  -2   5 12124.5 625.176   2
  -6  -2   4 36670.7 859.993   2
  -6  -2   3 13939.6 644.119   2
  -6  -2   2 67880.0 756.475   2
  -6  -2   1 16260.4 492.858   2
  -6  -2   0 14551.3 789.090   2
  -6  -2  -1 21192.1 588.449   2
  -6  -2  -2 3706.31 450.248   2
  -6  -2  -3 1707.11 358.213   2
  -6  -2  -4 7616.88 495.177   2
  -6  -2  -5 1235.39 592.450   2
  -6  -2  -6 1182.48 575.407   2
  -6  -2  -7 4915.04 577.877   2
  -6  -2  -8 563.961 611.035   2
  -6  -2  -9 20.5050 345.646   2
  -6  -1  16 4109.15 303.853   2
  -6  -1  15 3087.62 280.131   2
  -6  -1  14 95.7117 272.240   2
   6  -1 -13 16012.8 415.071   2
   6  -1 -12 17545.8 449.189   2
  -6  -1  11 2174.66 324.101   2
  -6  -1  10 9705.53 332.777   2
  -6  -1   9 9975.47 333.064   2
  -6  -1   8 939.408 249.190   2
  -6  -1   7 17198.1 348.518   2
  -6  -1   6 2256.84 354.199   2
  -6  -1   5 5091.43 388.728   2
  -6  -1   4 19151.9 483.045   2
  -6  -1   3 12802.1 584.364   2
  -6  -1   2 1028.08 482.487   2
  -6  -1   0 19207.6 639.136   2
  -6  -1  -1 5616.15 541.473   2
  -6  -1  -2 9093.80 393.360   2
  -6  -1  -3 2280.84 415.510   2
  -6  -1  -4 13153.0 500.301   2
  -6  -1  -5 6977.34 591.690   2
  -6  -1  -6 13003.5 662.288   2
  -6  -1  -7 6479.43 424.560   2
  -6  -1  -8 2742.43 412.114   2
  -6  -1  -9 2787.13 392.930   2
  -6  -1 -10 2076.13 313.967   2
  -6   0  16 7195.73 300.588   2
  -6   0  15 1747.72 279.939   2
  -6   0  14 11341.2 380.209   2
  -6   0  13 11074.8 320.854   2
  -6   0  12 564.279 278.932   2
  -6   0  11 2578.71 305.039   2
  -6   0  10 8111.72 349.629   2
  -6   0   9 5981.31 319.664   2
  -6   0   8 3540.46 301.997   2
  -6   0   7 3559.89 294.993   2
  -6   0   6 1788.79 292.598   2
  -6   0   5 67471.0 796.177   2
  -6   0   4 1812.96 370.879   2
  -6   0   3 613.161 278.780   2
  -6   0   2 7318.73 369.657   2
  -6   0   1 231.599 373.376   2
  -6   0   0 33998.6 629.446   2
  -6   0  -1 3177.79 402.674   2
  -6   0  -2 3741.63 292.802   2
  -6   0  -3 7632.25 399.865   2
  -6   0  -4 1122.23 359.408   2
  -6   0  -5 21.8499 357.611   2
  -6   0  -6 8301.91 494.016   2
  -6   0  -7 10189.7 506.651   2
  -6   0  -8 6966.33 449.448   2
  -6   0  -9 6453.36 303.696   2
  -6   0 -10 1003.61 315.014   2
  -6   0 -11 132.787 456.091   2
   6   1 -16 956.264 440.694   2
  -6   1  15 2456.13 249.293   2
  -6   1  14 97.7141 306.985   2
  -6   1  13 15903.7 328.450   2
  -6   1  12 16600.9 379.343   2
  -6   1  11 1939.02 376.207   2
  -6   1  10 8732.92 353.837   2
  -6   1   9 9122.10 356.358   2
  -6   1   8 833.761 224.824   2
  -6   1   7 15685.3 327.925   2
  -6   1   6 1792.15 270.636   2
  -6   1   5 4594.37 288.238   2
  -6   1   4 15955.5 328.648   2
  -6   1   3 11260.4 298.249   2
  -6   1   2 1181.69 294.906   2
  -6   1   1 1457.06 300.837   2
  -6   1   0 18011.3 418.034   2
  -6   1  -1 4802.64 346.363   2
  -6   1  -2 9341.53 299.869   2
  -6   1  -3 2084.39 322.910   2
  -6   1  -4 13335.5 431.584   2
  -6   1  -5 5947.63 388.652   2
  -6   1  -6 12505.0 446.518   2
  -6   1  -7 6566.43 401.605   2
  -6   1  -8 3255.47 345.584   2
  -6   1  -9 2858.57 343.652   2
  -6   1 -10 2245.32 295.155   2
  -6   2  15 392.505 231.272   2
  -6   2  14 443.112 249.671   2
  -6   2  13 1239.02 287.765   2
  -6   2  12 1741.37 305.409   2
  -6   2  11 1515.01 292.465   2
  -6   2  10 1706.40 241.352   2
  -6   2   9 8912.65 294.844   2
  -6   2   8 2459.99 254.762   2
  -6   2   7 1151.18 283.207   2
  -6   2   6 6382.96 321.910   2
  -6   2   5 8974.11 332.118   2
  -6   2   4 29693.0 441.413   2
  -6   2   3 11173.3 327.271   2
  -6   2   2 55101.0 721.223   2
  -6   2   1 15301.7 455.544   2
  -6   2   0 10832.4 415.445   2
  -6   2  -1 22535.0 526.395   2
  -6   2  -2 3659.48 351.553   2
  -6   2  -3 1674.05 264.344   2
  -6   2  -4 6742.87 320.192   2
  -6   2  -5 1203.84 286.075   2
  -6   2  -6 980.879 241.793   2
  -6   2  -7 4062.25 263.076   2
  -6   2  -8 626.623 232.707   2
  -6   2  -9 192.525 278.704   2
  -6   2 -10 4182.66 378.528   2
  -6   3  14 211.528 344.265   2
  -6   3  13 2953.32 329.521   2
  -6   3  12 754.042 236.077   2
  -6   3  11 820.055 246.371   2
  -6   3  10 1355.32 231.436   2
  -6   3   9 5986.38 277.032   2
  -6   3   8 466.860 228.725   2
  -6   3   7 2733.04 311.581   2
  -6   3   6 1890.83 227.032   2
  -6   3   5 4373.15 265.754   2
  -6   3   4 1589.21 243.748   2
  -6   3   3 8283.77 430.992   2
  -6   3   2 3095.72 387.354   2
  -6   3   1 330.444 491.539   2
  -6   3   0 2250.29 503.755   2
  -6   3  -1 2758.78 388.332   2
  -6   3  -2 10606.0 464.243   2
  -6   3  -3 3675.25 391.452   2
  -6   3  -4 3873.07 301.444   2
  -6   3  -5 3948.30 275.908   2
  -6   3  -6 7127.30 260.052   2
  -6   3  -7 3530.73 254.788   2
  -6   3  -8 792.696 226.859   2
  -6   4  12 449.363 347.171   2
  -6   4  11 244.073 268.582   2
  -6   4  10 793.305 282.828   2
  -6   4   9 693.252 203.691   2
  -6   4   8 3590.69 243.557   2
  -6   4   7 2576.75 299.342   2
  -6   4   6 2215.49 241.528   2
  -6   4   5 4780.55 272.070   2
  -6   4   4 508.166 241.753   2
  -6   4   3 1020.34 260.257   2
  -6   4   2 6030.74 359.945   2
  -6   4   1 5209.45 420.932   2
  -6   4   0 1588.39 490.322   2
  -6   4  -1 1421.72 462.338   2
  -6   4  -2 2649.49 490.967   2
  -6   4  -3 478.233 473.039   2
  -6   4  -4 86.0481 229.410   2
  -6   4  -5 4941.20 245.076   2
  -6   4  -6 70.7703 200.819   2
  -6   5   8 7.69546 173.992   2
  -6   5   7 665.554 253.178   2
  -6   5   6 81.3038 250.941   2
  -6   5   5 452.457 262.991   2
  -6   5   4 597.184 209.621   2
  -6   5   3 958.148 349.062   2
  -6   5   2 868.200 349.045   2
  -6   5   1 188.230 465.723   2
  -6   5   0 99.2941 455.902   2
  -6   5  -1 3.38467 432.180   2
  -6   5  -2 872.907 425.423   2
  -6   5  -3 747.568 210.769   2
  -7  -4   9 523.324 1584.40   2
  -7  -3  13 2650.52 423.955   2
  -7  -3  12 2614.37 272.899   2
  -7  -3  11 305.269 268.845   2
  -7  -3  10 995.993 456.414   2
  -7  -3   9 955.240 466.850   2
  -7  -3   8 11263.5 645.644   2
  -7  -3   5 17874.8 741.565   2
  -7  -3   4 3715.70 546.995   2
   7  -3   3 582.228 849.822   2
   7  -3   4 382.359 799.171   2
   7  -3   5 909.834 634.379   2
   7  -3   6 348.902 617.269   2
  -7  -3  -7 498.179 384.833   2
  -7  -2  14 6284.47 289.281   2
  -7  -2  13 7594.16 325.432   2
  -7  -2  12 599.306 277.055   2
  -7  -2  11 7671.70 437.149   2
  -7  -2  10 9547.96 663.806   2
  -7  -2   9 13198.0 729.217   2
  -7  -2   7 2964.66 531.491   2
  -7  -2   5 3728.39 525.112   2
  -7  -2   4 30625.8 844.089   2
  -7  -2   3 5179.67 565.881   2
  -7  -2   2 8593.57 622.591   2
  -7  -2  -5 2462.11 1174.43   2
  -7  -2  -6 2573.02 466.890   2
  -7  -2  -7 4097.90 460.744   2
  -7  -2  -8 909.564 420.477   2
  -7  -1  15 639.669 256.752   2
  -7  -1  14 764.524 268.688   2
  -7  -1  13 571.750 291.798   2
  -7  -1  12 2080.25 314.920   2
  -7  -1  11 8952.81 328.351   2
  -7  -1  10 11435.0 594.973   2
  -7  -1   9 480.609 428.553   2
  -7  -1   8 3542.73 467.316   2
  -7  -1   7 13598.0 581.977   2
  -7  -1   6 4593.94 421.115   2
  -7  -1   5 11025.2 460.941   2
  -7  -1   4 4680.92 559.154   2
  -7  -1   3 6954.17 581.823   2
  -7  -1   2 903.234 483.626   2
  -7  -1  -4 3829.47 574.345   2
  -7  -1  -5 5060.82 452.926   2
  -7  -1  -6 3130.62 420.564   2
  -7  -1  -7 4653.18 364.703   2
  -7  -1  -8 5756.87 347.492   2
  -7  -1  -9 150.063 417.485   2
  -7   0  15 5197.20 292.902   2
  -7   0  14 4188.42 313.786   2
  -7   0  13 707.582 307.467   2
  -7   0  12 54009.3 563.366   2
  -7   0  11 33245.1 480.009   2
  -7   0  10 3827.61 313.528   2
  -7   0   9 41.6706 753.916   2
  -7   0   6 7820.18 678.424   2
  -7   0   5 13494.4 726.322   2
  -7   0   4 4373.21 493.954   2
  -7   0   3 3675.99 889.726   2
  -7   0  -4 11375.5 722.103   2
  -7   0  -5 10967.5 541.239   2
  -7   0  -6 23702.3 658.387   2
  -7   0  -7 2803.47 341.646   2
  -7   0  -8 24.1255 295.347   2
  -7   0  -9 81.0237 354.274   2
   7   1 -15 647.569 317.354   2
  -7   1  14 570.713 298.305   2
  -7   1  13 631.584 261.827   2
  -7   1  12 1986.97 336.593   2
  -7   1  11 9617.91 417.009   2
  -7   1  10 11030.1 856.568   2
  -7   1   6 3761.66 727.676   2
  -7   1   5 9319.57 829.035   2
  -7   1   4 4665.96 735.405   2
  -7   1  -5 7334.32 632.136   2
  -7   1  -6 3013.41 429.847   2
  -7   1  -7 5142.38 426.168   2
  -7   1  -8 6492.90 404.611   2
  -7   1  -9 250.471 366.976   2
  -7   2  14 4250.39 376.422   2
  -7   2  13 7268.07 342.896   2
  -7   2  12 477.019 320.297   2
  -7   2  11 7491.21 485.950   2
  -7   2  10 8241.12 680.581   2
  -7   2   5 2492.46 895.477   2
  -7   2  -3 4927.18 902.797   2
  -7   2  -5 1711.48 538.584   2
  -7   2  -6 2739.68 405.510   2
  -7   2  -7 4744.12 413.085   2
  -7   2  -8 1344.59 523.022   2
  -7   3  13 1380.95 512.777   2
  -7   3  12 1950.90 375.740   2
  -7   3  11 106.226 478.530   2
  -7   3  10 762.867 527.306   2
  -7   3   9 779.336 515.765   2
  -7   3   5 7944.22 1035.28   2
  -7   3  -6 287.716 342.306   2
  -7   3  -7 1887.84 508.487   2
  -7   4   9-12.0739 490.536   2
  -7   4   8 196.140 494.019   2
  -7   4   7 1495.36 543.444   2
 -10  -1  11 1959.38 433.456   2
 -10  -1  10 2529.27 468.579   2
 -10  -1   9 2977.22 511.681   2
 -10  -1   8 2177.65 542.143   2
 -10  -1   0 4072.88 530.944   2
 -10  -1  -1 332.205 452.740   2
 -10  -1  -2 546.045 439.357   2
 -10   0  11 25.9648 430.367   2
 -10   0  10 106.129 332.617   2
 -10   0   9 1347.87 440.759   2
 -10   0   8 1710.96 827.900   2
 -10   0   1 13340.2 625.293   2
 -10   0   0 64.0519 461.328   2
 -10   0  -1 7535.23 547.018   2
 -10   0  -2 6595.16 485.572   2
 -10   0  -3 3985.32 438.817   2
 -10   1  11 1906.90 428.376   2
 -10   1  10 2542.66 649.243   2
 -10   1   2 1198.50 535.363   2
 -10   1   1 7947.36 602.777   2
 -10   1   0 4411.56 508.349   2
 -10   1  -1 506.170 457.843   2
 -10   1  -2 750.463 420.167   2
;
_shelx_hkl_checksum              10311
loop_
_space_group_symop_operation_xyz
'x, y, z'
'-x, y+1/2, -z'
loop_
_atom_site_label
_atom_site_type_symbol
_atom_site_fract_x
_atom_site_fract_y
_atom_site_fract_z
_atom_site_U_iso_or_equiv
_atom_site_adp_type
_atom_site_occupancy
_atom_site_site_symmetry_order
_atom_site_calc_flag
_atom_site_refinement_flags_posn
_atom_site_refinement_flags_adp
N1 N 0.3352(5) 0.3425(8) 0.4584(3) 0.0290(9) Uani 1 1 d . .
H1 H 0.410(7) 0.281(12) 0.518(5) 0.049(18) Uiso 1 1 d . .
O1 O 0.2588(4) 0.5435(7) 0.5716(2) 0.0358(9) Uani 1 1 d . .
O2 O 0.1592(4) 0.6504(7) 0.4075(2) 0.0320(8) Uani 1 1 d . .
O3 O 0.3241(3) 0.5129(6) 0.2113(2) 0.0248(7) Uani 1 1 d . .
O4 O 0.4719(3) 0.6879(7) 0.3492(2) 0.0309(8) Uani 1 1 d . .
C1 C 0.2437(5) 0.5251(10) 0.4727(3) 0.0283(11) Uani 1 1 d . .
C2 C 0.1626(6) 0.7233(11) 0.6008(3) 0.0367(13) Uani 1 1 d . .
H2A H 0.0560 0.6790 0.5712 0.044 Uiso 1 1 calc R U
H2B H 0.1793 0.8937 0.5788 0.044 Uiso 1 1 calc R U
C3 C 0.2066(5) 0.7081(10) 0.7132(3) 0.0283(10) Uani 1 1 d . .
C4 C 0.2959(5) 0.8893(10) 0.7719(4) 0.0330(11) Uani 1 1 d . .
H4 H 0.3252 1.0312 0.7415 0.040 Uiso 1 1 calc R U
C5 C 0.3429(6) 0.8635(11) 0.8757(4) 0.0343(12) Uani 1 1 d . .
H5 H 0.4040 0.9887 0.9159 0.041 Uiso 1 1 calc R U
C6 C 0.3018(5) 0.6588(11) 0.9206(3) 0.0326(11) Uani 1 1 d . .
H6 H 0.3350 0.6422 0.9914 0.039 Uiso 1 1 calc R U
C7 C 0.2113(6) 0.4750(9) 0.8619(3) 0.0319(11) Uani 1 1 d . .
H7 H 0.1821 0.3333 0.8926 0.038 Uiso 1 1 calc R U
C8 C 0.1643(5) 0.5013(10) 0.7587(3) 0.0297(11) Uani 1 1 d . .
H8 H 0.1025 0.3767 0.7185 0.036 Uiso 1 1 calc R U
C9 C 0.3470(5) 0.2915(9) 0.3596(3) 0.0253(10) Uani 1 1 d . .
H9 H 0.4271 0.1635 0.3665 0.030 Uiso 1 1 calc R U
C10 C 0.2062(5) 0.1962(9) 0.2819(3) 0.0262(10) Uani 1 1 d . .
H10A H 0.1151 0.2633 0.2947 0.031 Uiso 1 1 calc R U
H10B H 0.2020 0.0115 0.2819 0.031 Uiso 1 1 calc R U
C11 C 0.2224(5) 0.2952(9) 0.1823(3) 0.0239(10) Uani 1 1 d . .
C12 C 0.3895(5) 0.5195(8) 0.3100(3) 0.0227(9) Uani 1 1 d . .
C13 C 0.2978(6) 0.1108(9) 0.1306(3) 0.0306(11) Uani 1 1 d . .
H13A H 0.3208 0.1931 0.0742 0.046 Uiso 1 1 calc R U
H13B H 0.2309 -0.0308 0.1058 0.046 Uiso 1 1 calc R U
H13C H 0.3906 0.0508 0.1784 0.046 Uiso 1 1 calc R U
C14 C 0.0792(6) 0.3999(11) 0.1130(3) 0.0338(12) Uani 1 1 d . .
H14A H 0.0382 0.5247 0.1490 0.051 Uiso 1 1 calc R U
H14B H 0.0067 0.2646 0.0900 0.051 Uiso 1 1 calc R U
H14C H 0.0998 0.4783 0.0551 0.051 Uiso 1 1 calc R U
loop_
_atom_site_aniso_label
_atom_site_aniso_U_11
_atom_site_aniso_U_22
_atom_site_aniso_U_33
_atom_site_aniso_U_23
_atom_site_aniso_U_13
_atom_site_aniso_U_12
N1 0.032(2) 0.038(2) 0.0163(17) 0.0018(16) 0.0059(15) 0.0087(18)
O1 0.041(2) 0.052(2) 0.0164(15) 0.0052(15) 0.0108(13) 0.0204(17)
O2 0.031(2) 0.043(2) 0.0211(14) 0.0054(14) 0.0065(13) 0.0104(16)
O3 0.0262(17) 0.0291(16) 0.0171(14) -0.0008(12) 0.0035(12) -0.0045(13)
O4 0.0291(19) 0.0396(19) 0.0226(15) -0.0058(15) 0.0054(13) -0.0032(16)
C1 0.030(3) 0.039(3) 0.016(2) 0.0029(19) 0.0071(17) 0.006(2)
C2 0.040(3) 0.049(3) 0.023(2) 0.001(2) 0.012(2) 0.019(2)
C3 0.023(2) 0.042(3) 0.022(2) 0.002(2) 0.0105(17) 0.010(2)
C4 0.027(3) 0.039(3) 0.037(3) 0.002(2) 0.017(2) 0.003(2)
C5 0.025(3) 0.046(3) 0.032(2) -0.011(2) 0.009(2) 0.000(2)
C6 0.025(3) 0.051(3) 0.021(2) -0.003(2) 0.0071(18) 0.009(2)
C7 0.032(3) 0.040(3) 0.025(2) 0.0002(19) 0.0105(19) 0.003(2)
C8 0.026(3) 0.039(3) 0.024(2) -0.005(2) 0.0076(18) 0.004(2)
C9 0.027(3) 0.036(2) 0.0134(19) 0.0020(17) 0.0066(17) 0.0031(19)
C10 0.027(3) 0.032(2) 0.020(2) 0.0018(19) 0.0077(17) -0.001(2)
C11 0.023(3) 0.029(2) 0.0175(19) -0.0031(17) 0.0029(16) -0.0057(17)
C12 0.020(2) 0.031(2) 0.0159(19) -0.0040(17) 0.0026(16) 0.0011(19)
C13 0.042(3) 0.030(2) 0.022(2) -0.0025(17) 0.0126(19) -0.0015(19)
C14 0.029(3) 0.048(3) 0.021(2) 0.006(2) 0.0009(18) -0.003(2)
loop_
_atom_type_symbol
_atom_type_description
_atom_type_scat_dispersion_real
_atom_type_scat_dispersion_imag
_atom_type_scat_source
C C 0.0181 0.0091 'International Tables Vol C Tables 4.2.6.8 and 6.1.1.4'
H H 0.0000 0.0000 'International Tables Vol C Tables 4.2.6.8 and 6.1.1.4'
N N 0.0311 0.0180 'International Tables Vol C Tables 4.2.6.8 and 6.1.1.4'
O O 0.0492 0.0322 'International Tables Vol C Tables 4.2.6.8 and 6.1.1.4'
loop_
_geom_angle_atom_site_label_1
_geom_angle_atom_site_label_2
_geom_angle_atom_site_label_3
_geom_angle
C1 N1 C9 120.6(4)
C1 N1 H1 117(4)
C9 N1 H1 121(4)
C1 O1 C2 116.6(3)
C12 O3 C11 111.4(3)
O2 C1 O1 125.0(4)
O2 C1 N1 126.1(4)
O1 C1 N1 108.9(4)
O1 C2 C3 104.8(4)
O1 C2 H2A 110.8
C3 C2 H2A 110.8
O1 C2 H2B 110.8
C3 C2 H2B 110.8
H2A C2 H2B 108.9
C4 C3 C8 119.5(4)
C4 C3 C2 120.9(5)
C8 C3 C2 119.5(5)
C3 C4 C5 119.9(5)
C3 C4 H4 120.1
C5 C4 H4 120.1
C6 C5 C4 120.6(5)
C6 C5 H5 119.7
C4 C5 H5 119.7
C5 C6 C7 120.0(4)
C5 C6 H6 120.0
C7 C6 H6 120.0
C8 C7 C6 119.4(5)
C8 C7 H7 120.3
C6 C7 H7 120.3
C7 C8 C3 120.7(5)
C7 C8 H8 119.7
C3 C8 H8 119.7
N1 C9 C12 112.9(4)
N1 C9 C10 116.7(4)
C12 C9 C10 103.4(3)
N1 C9 H9 107.8
C12 C9 H9 107.8
C10 C9 H9 107.8
C9 C10 C11 103.5(4)
C9 C10 H10A 111.1
C11 C10 H10A 111.1
C9 C10 H10B 111.1
C11 C10 H10B 111.1
H10A C10 H10B 109.0
O3 C11 C14 105.1(4)
O3 C11 C13 106.9(4)
C14 C11 C13 112.8(4)
O3 C11 C10 104.5(3)
C14 C11 C10 113.6(4)
C13 C11 C10 113.0(4)
O4 C12 O3 121.7(4)
O4 C12 C9 127.9(4)
O3 C12 C9 110.4(4)
C11 C13 H13A 109.5
C11 C13 H13B 109.5
H13A C13 H13B 109.5
C11 C13 H13C 109.5
H13A C13 H13C 109.5
H13B C13 H13C 109.5
C11 C14 H14A 109.5
C11 C14 H14B 109.5
H14A C14 H14B 109.5
C11 C14 H14C 109.5
H14A C14 H14C 109.5
H14B C14 H14C 109.5
loop_
_geom_bond_atom_site_label_1
_geom_bond_atom_site_label_2
_geom_bond_distance
N1 C1 1.353(7)
N1 C9 1.442(5)
N1 H1 0.97(7)
O1 C1 1.350(5)
O1 C2 1.456(6)
O2 C1 1.216(6)
O3 C12 1.332(5)
O3 C11 1.484(5)
O4 C12 1.208(6)
C2 C3 1.502(6)
C2 H2A 0.9900
C2 H2B 0.9900
C3 C4 1.381(8)
C3 C8 1.391(8)
C4 C5 1.392(7)
C4 H4 0.9500
C5 C6 1.373(8)
C5 H5 0.9500
C6 C7 1.396(7)
C6 H6 0.9500
C7 C8 1.385(6)
C7 H7 0.9500
C8 H8 0.9500
C9 C12 1.515(7)
C9 C10 1.526(6)
C9 H9 1.0000
C10 C11 1.537(6)
C10 H10A 0.9900
C10 H10B 0.9900
C11 C14 1.511(7)
C11 C13 1.515(7)
C13 H13A 0.9800
C13 H13B 0.9800
C13 H13C 0.9800
C14 H14A 0.9800
C14 H14B 0.9800
C14 H14C 0.9800
loop_
_geom_hbond_atom_site_label_D
_geom_hbond_atom_site_label_H
_geom_hbond_atom_site_label_A
_geom_hbond_distance_DH
_geom_hbond_distance_HA
_geom_hbond_distance_DA
_geom_hbond_angle_DHA
_geom_hbond_site_symmetry_A
N1 H1 O4 0.97(7) 1.93(7) 2.881(5) 167(6) 2_646
loop_
_geom_torsion_atom_site_label_1
_geom_torsion_atom_site_label_2
_geom_torsion_atom_site_label_3
_geom_torsion_atom_site_label_4
_geom_torsion
C2 O1 C1 O2 1.8(8)
C2 O1 C1 N1 -177.0(5)
C9 N1 C1 O2 4.3(8)
C9 N1 C1 O1 -176.9(4)
C1 O1 C2 C3 -178.4(5)
O1 C2 C3 C4 102.8(5)
O1 C2 C3 C8 -73.3(6)
C8 C3 C4 C5 0.1(7)
C2 C3 C4 C5 -176.0(4)
C3 C4 C5 C6 0.3(7)
C4 C5 C6 C7 -0.4(7)
C5 C6 C7 C8 0.3(7)
C6 C7 C8 C3 0.1(7)
C4 C3 C8 C7 -0.3(7)
C2 C3 C8 C7 175.9(4)
C1 N1 C9 C12 55.4(6)
C1 N1 C9 C10 -64.3(6)
N1 C9 C10 C11 149.9(4)
C12 C9 C10 C11 25.2(5)
C12 O3 C11 C14 132.5(4)
C12 O3 C11 C13 -107.4(4)
C12 O3 C11 C10 12.6(5)
C9 C10 C11 O3 -23.3(5)
C9 C10 C11 C14 -137.3(4)
C9 C10 C11 C13 92.5(5)
C11 O3 C12 O4 -177.0(4)
C11 O3 C12 C9 4.0(5)
N1 C9 C12 O4 35.0(7)
C10 C9 C12 O4 162.1(5)
N1 C9 C12 O3 -146.1(4)
C10 C9 C12 O3 -19.0(5)
