#------------------------------------------------------------------------------
#$Date: 2017-03-15 09:29:50 +0200 (Wed, 15 Mar 2017) $
#$Revision: 194259 $
#$URL: file:///home/coder/svn-repositories/cod/cif/1/54/55/1545567.cif $
#------------------------------------------------------------------------------
#
# This file is available in the Crystallography Open Database (COD),
# http://www.crystallography.net/. The original data for this entry
# were provided by IUCr Journals, http://journals.iucr.org/.
#
# The file may be used within the scientific community so long as
# proper attribution is given to the journal article from which the
# data were obtained.
#
data_1545567
loop_
_publ_author_name
'Lyncee, Myrria-Tahisha A.'
'Desikan, Vasumathi'
'Golen, James A.'
'Manke, David R.'
_publ_section_title
;
 7-Methyl-1<i>H</i>-indole-2,3-dione
;
_journal_coeditor_code           SJ4097
_journal_issue                   3
_journal_name_full               IUCrData
_journal_page_first              x170378
_journal_paper_doi               10.1107/S2414314617003789
_journal_volume                  2
_journal_year                    2017
_chemical_formula_iupac          'C9 H7 N O2'
_chemical_formula_moiety         'C9 H7 N O2'
_chemical_formula_sum            'C9 H7 N O2'
_chemical_formula_weight         161.16
_chemical_name_systematic
;
7-Methyl-1<i>H</i>-indole-2,3-dione
;
_space_group_crystal_system      monoclinic
_space_group_IT_number           14
_space_group_name_Hall           '-P 2yn'
_space_group_name_H-M_alt        'P 1 21/n 1'
_symmetry_space_group_name_Hall  '-P 2yn'
_symmetry_space_group_name_H-M   'P 1 21/n 1'
_atom_sites_solution_hydrogens   mixed
_audit_creation_method
;
Olex2 1.2
(compiled 2017.02.23 svn.r3390 for OlexSys, GUI svn.r5320)
;
_cell_angle_alpha                90
_cell_angle_beta                 99.055(5)
_cell_angle_gamma                90
_cell_formula_units_Z            4
_cell_length_a                   7.8114(10)
_cell_length_b                   3.8832(4)
_cell_length_c                   24.362(3)
_cell_measurement_reflns_used    7064
_cell_measurement_temperature    200(2)
_cell_measurement_theta_max      25.23
_cell_measurement_theta_min      2.90
_cell_volume                     729.77(15)
_computing_cell_refinement
;
SAINT (Bruker, 2014)
;
_computing_data_collection
;
APEX2 (Bruker, 2014)
;
_computing_data_reduction
;
SAINT (Bruker, 2014)
;
_computing_molecular_graphics
;
<i>OLEX2</i> (Dolomanov <i>et al.</i>,  2009)
;
_computing_publication_material
;
OLEX2 (Dolomanov <i>et al.</i>,  2009) and publCIF (Westrip,
2010)
;
_computing_structure_refinement
;
SHELXL2014 (Sheldrick, 2015)
;
_computing_structure_solution
;
SHELXS97 (Sheldrick, 2008)
;
_diffrn_ambient_temperature      200.0
_diffrn_measured_fraction_theta_full 0.997
_diffrn_measured_fraction_theta_max 0.991
_diffrn_measurement_device_type  'Bruker D8 Venture CMOS'
_diffrn_measurement_method       '\f and \w scans'
_diffrn_radiation_type           MoK\a
_diffrn_radiation_wavelength     0.71073
_diffrn_reflns_av_R_equivalents  0.0496
_diffrn_reflns_limit_h_max       9
_diffrn_reflns_limit_h_min       -9
_diffrn_reflns_limit_k_max       4
_diffrn_reflns_limit_k_min       -4
_diffrn_reflns_limit_l_max       29
_diffrn_reflns_limit_l_min       -29
_diffrn_reflns_number            18978
_diffrn_reflns_theta_full        25.000
_diffrn_reflns_theta_max         25.448
_diffrn_reflns_theta_min         3.364
_diffrn_standards_number         0
_exptl_absorpt_coefficient_mu    0.105
_exptl_absorpt_correction_T_max  0.7452
_exptl_absorpt_correction_T_min  0.7007
_exptl_absorpt_correction_type   multi-scan
_exptl_absorpt_process_details
;
(SADABS; Bruker, 2014)
;
_exptl_crystal_colour            orange
_exptl_crystal_density_diffrn    1.467
_exptl_crystal_description       plate
_exptl_crystal_F_000             336
_exptl_crystal_size_max          0.19
_exptl_crystal_size_mid          0.18
_exptl_crystal_size_min          0.04
_refine_diff_density_max         0.200
_refine_diff_density_min         -0.173
_refine_ls_extinction_coef       0.035(5)
_refine_ls_extinction_expression Fc^*^=kFc[1+0.001xFc^2^\l^3^/sin(2\q)]^-1/4^
_refine_ls_extinction_method
;
SHELXL2014 (Sheldrick, 2015)
;
_refine_ls_goodness_of_fit_ref   1.085
_refine_ls_hydrogen_treatment    mixed
_refine_ls_matrix_type           full
_refine_ls_number_parameters     114
_refine_ls_number_reflns         1342
_refine_ls_number_restraints     1
_refine_ls_restrained_S_all      1.085
_refine_ls_R_factor_all          0.0452
_refine_ls_R_factor_gt           0.0362
_refine_ls_shift/su_max          0.001
_refine_ls_shift/su_mean         0.000
_refine_ls_structure_factor_coef Fsqd
_refine_ls_weighting_details
'w=1/[\s^2^(Fo^2^)+(0.0360P)^2^+0.3841P] where P=(Fo^2^+2Fc^2^)/3'
_refine_ls_weighting_scheme      calc
_refine_ls_wR_factor_gt          0.0841
_refine_ls_wR_factor_ref         0.0892
_reflns_number_gt                1147
_reflns_number_total             1342
_reflns_threshold_expression     'I > 2\s(I)'
_cod_data_source_file            sj4097sup1.cif
_cod_data_source_block           I
_cod_original_cell_volume        729.76(15)
_cod_database_code               1545567
_shelx_space_group_comment
;
The symmetry employed for this shelxl refinement is uniquely defined
by the following loop, which should always be used as a source of
symmetry information in preference to the above space-group names.
They are only intended as comments.
;
_shelx_estimated_absorpt_t_min   0.980
_shelx_estimated_absorpt_t_max   0.996
_shelx_hkl_file
;
   2   0   0  297.07   10.30
   2   0   0  303.87   10.20
  -2   0   0  298.07   10.20
  -2   0   0  260.17   10.10
  -2   0   0  281.37   10.20
  -2   0   0  284.57   10.20
   2   0   0  294.87   10.30
   3   0   0   -2.30    2.10
  -3   0   0    1.60    2.10
   3   0   0   -3.70    1.90
   3   0   0    1.10    2.20
  -3   0   0   -0.30    2.30
  -3   0   0   -1.40    2.00
   3   0   0   -1.10    2.50
  -3   0   0    0.80    2.60
  -4   0   0    1.50    3.00
  -4   0   0    4.60    3.20
   4   0   0    5.10    2.70
   4   0   0    4.30    3.00
   4   0   0    7.00    3.10
  -4   0   0    1.60    2.70
   4   0   0    7.90    2.70
  -4   0   0    6.10    3.50
  -4   0   0    6.90    3.00
  -5   0   0   -0.90    3.70
  -5   0   0   -3.10    3.20
  -5   0   0   -0.90    3.10
   5   0   0   -1.30    3.20
   5   0   0    0.60    2.90
  -5   0   0    0.60    3.30
  -5   0   0   -2.30    3.40
   5   0   0    0.90    3.00
   5   0   0   -0.10    2.90
  -6   0   0  300.97   12.50
   6   0   0  287.47   13.10
  -6   0   0  311.77   13.00
  -6   0   0  282.97   13.50
   6   0   0  308.97   12.50
  -6   0   0  251.07   12.50
   6   0   0  263.07   13.10
  -6   0   0  296.17   12.80
   6   0   0  299.97   12.90
  -7   0   0   -0.70    5.80
  -7   0   0   -1.80    4.20
   7   0   0    3.00    5.50
   7   0   0    0.50    4.70
   7   0   0    3.60    4.30
  -7   0   0    1.50    5.20
  -7   0   0   -3.60    4.90
   7   0   0    0.90    4.50
  -7   0   0    3.80    4.60
  -8   0   0   78.69   10.00
  -8   0   0   82.19   10.90
  -8   0   0   70.99   10.00
   8   0   0   81.39    8.90
  -8   0   0   76.99    8.90
   8   0   0   61.39    7.30
   8   0   0   89.59   10.50
   8   0   0   67.89    8.80
  -9   0   0   -7.10    6.60
  -9   0   0    1.60    7.00
  -9   0   0    1.60    8.50
   9   0   0   12.80    6.70
  -9   0   0    1.30    8.20
   9   0   0    1.80    5.40
   9   0   0    2.90    6.90
   9   0   0    1.60    6.80
  -9   0   0   -7.30    6.70
   0  -1   0   -4.30    5.00
   0  -1   0   -0.80    0.60
   0   1   0   -0.60    0.80
   0   1   0   -4.40    4.60
   0   1   0    1.40    2.20
   0   1   0   -0.80    0.80
   1  -1   0  696.23   21.70
  -1  -1   0  683.13   22.10
  -1  -1   0  692.83   22.00
   1  -1   0  749.13   23.10
   1  -1   0  695.53   21.70
   1  -1   0  696.73   24.00
  -1  -1   0  676.13   23.90
  -1  -1   0  696.13   22.00
  -1  -1   0  712.33   22.10
  -1   1   0  727.63   22.60
  -1   1   0  634.04   21.80
  -1   1   0  696.93   21.70
   1   1   0  632.84   23.70
  -1   1   0  702.83   23.90
   1   1   0  692.93   22.20
  -1   1   0  717.23   23.10
   1   1   0  721.03   22.20
   1   1   0  690.13   21.80
   1   1   0  688.13   21.80
  -2  -1   0   35.80    3.20
   2  -1   0   35.00    2.70
  -2  -1   0   32.30    3.40
  -2  -1   0   32.10    2.90
   2  -1   0   32.90    2.50
  -2  -1   0   42.80    5.90
  -2  -1   0   35.30    3.30
   2  -1   0   37.10    2.60
   2  -1   0   32.50    4.40
   2  -1   0   42.40    6.10
   2  -1   0   32.70    2.50
  -2   1   0   40.50    6.10
  -2   1   0   36.80    1.90
   2   1   0   34.20    3.20
   2   1   0   34.90    5.20
  -2   1   0   37.90    2.80
  -2   1   0   39.60    5.00
   2   1   0   31.80    3.20
  -2   1   0   33.80    2.00
   2   1   0   30.20    3.00
   2   1   0   37.70    3.40
  -2   1   0   35.20    2.60
   3  -1   0  439.36   14.60
  -3  -1   0  427.66   14.90
  -3  -1   0  421.16   15.00
   3  -1   0  432.26   14.60
   3  -1   0  372.26   16.00
   3  -1   0  428.86   14.50
  -3  -1   0  390.16   16.20
  -3  -1   0  471.15   15.20
   3  -1   0  435.16   14.70
   3  -1   0  439.06   16.20
  -3  -1   0  419.36   15.00
   3   1   0  430.86   14.90
  -3   1   0  452.15   14.20
  -3   1   0  419.96   14.60
  -3   1   0  445.56   16.20
  -3   1   0  426.56   14.20
   3   1   0  438.86   15.10
   3   1   0  438.16   15.20
  -3   1   0  436.86   14.80
   3   1   0  389.86   15.70
   3   1   0  431.06   14.80
  -4  -1   0  131.49    7.00
   4  -1   0  135.19    6.40
  -4  -1   0  124.59    7.00
   4  -1   0  125.49    6.40
  -4  -1   0  141.59    7.40
   4  -1   0  125.09    6.10
   4  -1   0  129.79    6.40
  -4  -1   0  129.89    6.80
  -4   1   0  129.49    6.60
  -4   1   0  135.69    6.80
   4   1   0  137.99    6.90
  -4   1   0  138.09    6.00
   4   1   0  136.69    7.20
  -4   1   0  133.79    8.00
  -4   1   0  129.89    6.40
   4   1   0  125.69    7.20
   4   1   0  129.39    7.50
   5  -1   0   65.19    5.10
   5  -1   0   66.39    5.60
  -5  -1   0   63.99    6.50
  -5  -1   0   66.29    6.10
   5  -1   0   67.69    5.40
  -5  -1   0   53.99    6.60
   5  -1   0   61.69    5.30
  -5  -1   0   57.59    6.40
  -5   1   0   65.19    5.60
  -5   1   0   64.69    5.00
   5   1   0   61.79    5.70
   5   1   0   58.99    6.20
  -5   1   0   66.89    5.90
  -5   1   0   64.79    5.50
   5   1   0   71.49    6.70
  -5   1   0   55.89    7.40
   5   1   0   57.19    6.00
   6  -1   0   -4.20    3.70
  -6  -1   0    1.80    4.90
   6  -1   0   -3.80    3.50
   6  -1   0   -2.20    3.70
  -6  -1   0   -0.60    3.80
  -6  -1   0    0.60    4.10
   6  -1   0   -5.30    3.40
  -6  -1   0    2.90    4.60
  -6   1   0   -1.90    6.00
   6   1   0    3.50    4.80
  -6   1   0   -2.20    4.30
   6   1   0   -2.60    4.00
  -6   1   0   -0.70    3.60
   6   1   0    0.40    4.30
   6   1   0   -4.70    5.30
  -6   1   0    4.30    3.40
  -6   1   0   -1.90    4.00
   7  -1   0  136.79    8.90
  -7  -1   0  144.39   10.00
  -7  -1   0  140.49   10.00
  -7  -1   0  133.79    9.90
   7  -1   0  147.29    8.80
   7  -1   0  129.99    8.70
   7  -1   0  124.69    9.60
   7   1   0  143.69   10.70
  -7   1   0  115.19    8.70
  -7   1   0  136.49   10.90
   7   1   0  139.29   10.80
  -7   1   0  118.89    9.80
   7   1   0  129.69   10.30
  -7   1   0  140.99    9.30
  -8  -1   0  186.28   12.80
   8  -1   0  162.38   10.80
   8  -1   0  142.59   11.30
   8  -1   0  165.88   10.20
  -8  -1   0  132.39   12.90
   8  -1   0  166.28   12.00
  -8  -1   0  175.68   13.30
  -8  -1   0  149.19   13.10
  -8  -1   0  146.49   12.00
   8   1   0  184.48   12.20
   8   1   0  165.08   12.60
  -8   1   0  171.88   11.50
  -8   1   0  152.98   14.90
  -8   1   0  189.88   13.10
  -8   1   0  151.58   10.70
   8   1   0  170.58   13.40
   8   1   0  144.89   12.30
  -8   1   0  167.58   11.60
   9  -1   0   73.59    8.90
   9  -1   0   72.39    9.00
  -9  -1   0   94.19   11.60
   9  -1   0   59.89   10.00
  -9  -1   0   90.39   11.10
  -9  -1   0   63.89    9.50
   9  -1   0   74.39    8.10
  -9  -1   0   79.69   10.60
  -9  -1   0   73.09    8.40
  -9   1   0   72.29    8.10
  -9   1   0   82.09    9.20
   9   1   0   74.39    9.70
  -9   1   0   75.89   10.60
   9   1   0   80.29    9.60
   9   1   0   88.49   11.10
   9   1   0   70.49    9.80
   0  -2   0   67.79    5.80
   0   2   0   58.99    2.50
   0   2   0   59.09    2.50
   0   2   0   67.59    4.70
   0   2   0   66.39    8.20
  -1  -2   0   33.10    2.40
  -1  -2   0   34.30    2.80
   1  -2   0   40.50    4.90
  -1  -2   0   34.30    3.00
  -1  -2   0   28.70    2.40
  -1   2   0   35.70    4.60
   1   2   0   32.30    2.80
  -1   2   0   35.80    6.80
   1   2   0   28.20    6.60
   1   2   0   41.10    4.50
   2  -2   0    6.60    1.30
   2  -2   0    8.50    4.00
  -2  -2   0    3.50    2.00
  -2  -2   0    7.10    2.20
  -2  -2   0    5.90    1.90
  -2  -2   0    7.30    2.10
  -2   2   0    6.30    1.30
   2   2   0    3.30    2.40
   2   2   0    9.30    3.50
   2   2   0    2.00    5.40
  -2   2   0   13.30    5.00
  -2   2   0    4.60    1.30
   2   2   0    7.20    1.30
   2   2   0    2.50    2.60
   2   2   0    8.60    1.60
  -2   2   0    9.70    6.10
  -3  -2   0  367.86   13.20
   3  -2   0  357.06   12.20
   3  -2   0  359.46   12.40
  -3  -2   0  358.66   13.20
  -3  -2   0  360.06   13.20
   3  -2   0  344.47   14.90
   3  -2   0  352.26   12.30
   3  -2   0  357.96   12.20
  -3  -2   0  379.56   13.20
   3   2   0  371.06   13.40
  -3   2   0  363.86   12.40
   3   2   0  369.86   12.60
  -3   2   0  376.96   16.40
  -3   2   0  366.96   15.50
   3   2   0  358.36   13.50
   3   2   0  364.86   12.70
   3   2   0  348.97   16.00
  -4  -2   0   -3.80    2.80
   4  -2   0   -0.30    1.50
   4  -2   0    1.50    2.10
  -4  -2   0   -2.00    3.20
  -4  -2   0   -0.20    3.00
   4  -2   0   -0.80    2.10
  -4  -2   0    1.90    2.70
   4  -2   0   -1.80    5.20
   4  -2   0   -1.50    2.30
   4   2   0   -0.60    2.70
   4   2   0    1.20    3.40
  -4   2   0   -4.70    2.50
   4   2   0    6.10    5.60
  -4   2   0   -4.30    5.40
  -4   2   0    3.50    2.60
   4   2   0   -0.70    2.80
   4   2   0   -1.90    3.50
   5  -2   0  109.29    5.60
   5  -2   0  100.19    6.70
   5  -2   0  117.49    6.80
   5  -2   0  108.39   10.80
  -5  -2   0  124.59    8.10
  -5  -2   0  122.09    7.30
  -5  -2   0   93.19    8.20
   5  -2   0  108.39    6.30
  -5  -2   0  110.39    8.10
  -5   2   0  116.29   11.50
   5   2   0  120.19    7.70
   5   2   0  121.59    8.50
  -5   2   0  108.59    7.20
   5   2   0  115.89    8.30
  -5   2   0  109.59    7.00
   5   2   0  116.09    7.40
   6  -2   0   80.29    6.20
  -6  -2   0   75.49    7.60
   6  -2   0   88.69    7.50
  -6  -2   0   92.99    8.80
   6  -2   0   76.79    7.20
  -6  -2   0   84.69    8.40
  -6  -2   0   85.39    8.40
   6  -2   0   92.39    5.70
  -6   2   0  101.49   12.10
  -6   2   0   83.19    7.90
  -6   2   0   86.79    7.20
  -6   2   0   88.19    4.60
   6   2   0   87.69    8.50
  -6   2   0   88.59    4.20
   6   2   0   87.49    9.10
   6   2   0  100.69    8.00
   7  -2   0   66.99    7.80
   7  -2   0   67.49    6.20
  -7  -2   0   72.99    9.40
  -7  -2   0   65.19    7.80
   7  -2   0   56.29    7.20
  -7  -2   0   78.69    8.80
   7  -2   0   63.29    8.40
  -7  -2   0   68.09    8.30
   7   2   0   63.39    9.90
  -7   2   0   60.89    5.20
   7   2   0   68.69    9.20
  -7   2   0   70.59    8.20
  -7   2   0   64.69    8.80
   7   2   0   75.19    7.70
  -7   2   0   68.39   10.40
  -8  -2   0   58.49    6.80
   8  -2   0   75.99    9.30
  -8  -2   0   80.19   10.30
  -8  -2   0   71.79    8.50
  -8  -2   0   56.29    9.20
   8  -2   0   58.69    6.60
   8  -2   0   93.09    9.10
   8  -2   0   56.59    6.50
   8   2   0   60.29    8.80
   8   2   0   58.79    9.20
   8   2   0   89.49   11.10
  -8   2   0   62.79   10.30
  -8   2   0   83.79    8.60
   8   2   0   89.89    9.70
  -8   2   0   54.09    8.10
   0  -3   0   -1.70    1.40
   0  -3   0    6.50    4.80
   0  -3   0   -0.80    0.80
   0   3   0    2.20   10.70
   0   3   0    0.70    3.90
  -1  -3   0   13.30    1.50
  -1  -3   0   14.00    2.40
  -1  -3   0   13.90    1.60
   1  -3   0   12.30    5.30
  -1  -3   0   23.50    5.40
  -1  -3   0   12.60    1.80
   1   3   0   10.80    1.70
  -1   3   0   13.10    4.20
  -1   3   0   20.40   12.20
   1   3   0   14.50   12.10
   1   3   0   10.60    3.90
   1   3   0   11.00    2.20
  -2  -3   0   48.50    4.90
   2  -3   0   55.29    7.60
  -2  -3   0   48.60    3.90
  -2  -3   0   48.40    4.00
   2   3   0   56.79   13.50
  -2   3   0   64.69   13.20
   2   3   0   47.30    5.00
   2   3   0   55.29    4.70
  -2   3   0   55.19    6.60
   2   3   0   46.90    5.70
  -3  -3   0   37.20    3.90
   3  -3   0   49.30    7.70
   3  -3   0   34.50    3.50
  -3  -3   0   44.60    4.50
  -3  -3   0   37.70    3.80
   3  -3   0   30.70    2.50
  -3  -3   0   31.00    4.00
   3   3   0   42.60    5.90
   3   3   0   39.20   14.80
   3   3   0   26.40    4.50
   3   3   0   36.30    4.30
   4  -3   0   -1.00    6.50
  -4  -3   0    1.60    3.90
   4  -3   0    5.90    2.20
   4  -3   0    3.30    2.70
  -4  -3   0   12.50    3.00
  -4  -3   0    1.70    3.70
  -4  -3   0    4.20    3.60
   4   3   0    3.40    2.20
   4   3   0    4.90    1.80
   4   3   0   -1.90    4.40
  -4   3   0   -6.50    7.20
  -4   3   0   -2.40    1.80
   4   3   0   -0.80    3.70
   4   3   0    8.60    4.90
   5  -3   0    5.10    2.60
  -5  -3   0    4.70    4.80
   5  -3   0    9.10    8.80
   5  -3   0    1.70    2.90
  -5  -3   0   10.90    4.00
  -5  -3   0   11.20    3.80
  -5  -3   0    3.80    3.80
   5  -3   0    4.50    2.30
   5  -3   0    3.10    3.40
   5   3   0   11.30    3.30
   5   3   0    9.10    3.00
  -5   3   0    7.80    9.90
   5   3   0    8.50    4.60
  -6  -3   0   13.60    4.90
   6  -3   0   13.30    3.50
  -6  -3   0   13.90    6.50
   6  -3   0   11.60    4.80
  -6  -3   0   17.50    5.60
   6  -3   0   14.20    4.60
   6  -3   0   12.20    5.20
  -6  -3   0   16.70    5.20
   6   3   0   20.50    4.90
  -6   3   0   14.50   11.00
  -6   3   0    0.20    3.90
   6   3   0   16.70    7.50
   6   3   0   18.50    4.60
   6   3   0   10.70    6.20
  -7  -3   0   -5.80    6.70
  -7  -3   0   -0.90    6.90
   7  -3   0   -1.30    4.30
   7  -3   0    7.90    3.30
   7  -3   0    1.40    5.50
   7  -3   0    3.50    5.20
  -7  -3   0   -2.00    5.40
  -7  -3   0   11.20    5.00
   7   3   0   -1.30    5.90
   7   3   0  -13.00    7.90
   7   3   0    0.70    5.50
   7   3   0   -0.10    6.60
  -7   3   0   16.50    6.50
  -7   3   0   -4.10    4.90
  -7   3   0    6.10   10.30
   0  -4   0   61.89    4.20
   0  -4   0   61.99    8.70
   0  -4   0   55.49    2.80
   0   4   0   66.19    8.00
  -1  -4   0   39.30    8.10
  -1  -4   0   25.70    2.80
  -1  -4   0   25.50    3.50
   1  -4   0   36.10    8.40
  -1   4   0   18.70    5.70
   1   4   0   25.40    5.90
  -2  -4   0   12.60    7.20
  -2  -4   0   18.90    4.10
   2  -4   0   18.90    8.40
  -2  -4   0    9.80    3.40
   2   4   0   14.30    5.60
   2   4   0   13.30    3.50
   3  -4   0   15.80    8.70
  -3  -4   0   19.80    3.50
  -3  -4   0   24.00    4.50
  -3  -4   0   19.90    4.50
  -3  -4   0   14.50    5.10
   3  -4   0   17.70    2.50
   3   4   0   22.30    4.80
   3   4   0   23.70    7.20
   4  -4   0   71.39    4.70
  -4  -4   0   66.59    6.80
   4  -4   0   91.99   12.40
   4  -4   0   67.89    5.10
  -4  -4   0   66.29    8.30
  -4  -4   0   64.09    8.10
   4   4   0   66.99    7.30
   4   4   0   63.59   10.30
  -9   0   1  -11.00    7.90
   9   0  -1    5.40    6.10
  -9   0   1   18.10    8.90
   9   0  -1    5.30    5.20
  -9   0   1   -4.30    7.00
  -9   0   1  -11.30    6.60
  -9   0   1   -1.70    7.00
   9   0  -1   -2.00    6.50
   9   0  -1   -5.80    6.00
  -8   0   1   -7.90    5.40
   8   0  -1    3.40    5.90
   8   0  -1   -6.60    5.30
   8   0  -1   15.00    6.40
  -8   0   1   -1.70    5.90
   8   0  -1   -4.60    5.70
  -8   0   1    0.30    5.80
  -8   0   1   -2.10    5.90
   7   0  -1  109.89    8.80
  -7   0   1  100.99    9.50
  -7   0   1   99.69    8.90
  -7   0   1   98.79    8.60
   7   0  -1  106.69    9.50
   7   0  -1  105.39    8.70
  -7   0   1  104.89    9.40
   7   0  -1  100.09    9.00
  -7   0   1  111.59    9.40
  -6   0   1    2.60    3.70
   6   0  -1    1.30    4.50
  -6   0   1   -4.70    3.80
  -6   0   1    2.70    4.80
   6   0  -1   -1.50    3.70
  -6   0   1   -2.10    4.70
  -6   0   1    4.70    4.00
   6   0  -1   -3.00    3.30
   6   0  -1    2.90    4.10
  -5   0   1  155.68    8.10
  -5   0   1  154.98    7.90
  -5   0   1  153.78    8.10
   5   0  -1  148.19    7.80
   5   0  -1  168.48    8.10
  -5   0   1  164.08    8.30
  -5   0   1  164.68    9.10
   5   0  -1  159.88    8.30
   5   0  -1  155.98    8.20
   4   0  -1   -3.60    2.20
  -4   0   1   -3.60    2.70
   4   0  -1    0.50    2.80
  -4   0   1    3.80    3.30
  -4   0   1   -0.50    2.90
   4   0  -1   -3.70    2.70
   4   0  -1   -1.50    2.60
  -4   0   1   -0.20    2.40
   3   0  -1  279.77   10.30
   3   0  -1  284.27   10.50
   3   0  -1  285.37   10.40
  -3   0   1  290.77   10.50
  -3   0   1  280.57   10.50
  -3   0   1  271.07   10.40
  -3   0   1  288.47   10.30
  -2   0   1   -3.10    2.10
   2   0  -1   -1.40    2.00
  -2   0   1   -2.20    2.20
   2   0  -1   -1.30    2.30
  -2   0   1   -2.40    2.00
   2   0  -1   -0.90    2.20
   2   0  -1   -3.30    1.80
  -2   0   1   -3.50    2.30
   1   0   1   -0.40    1.10
  -1   0  -1    0.10    1.60
   2   0   1   -2.70    2.00
  -2   0  -1   -0.70    2.30
  -2   0  -1   -3.50    2.20
   2   0   1   -4.90    2.20
  -2   0  -1   -5.10    2.40
   2   0   1   -4.50    2.20
   2   0   1   -3.70    2.10
  -2   0  -1   -1.40    2.80
  -2   0  -1   -6.20    2.00
   3   0   1   24.20    3.00
   3   0   1   18.00    3.20
  -3   0  -1   17.40    2.80
   3   0   1   20.60    2.70
  -3   0  -1   19.20    2.90
  -3   0  -1   15.50    3.40
  -3   0  -1   24.20    2.90
  -3   0  -1   22.60    3.10
   3   0   1   21.50    3.00
  -4   0  -1   -1.80    2.80
   4   0   1   -2.10    2.30
   4   0   1   -2.80    2.40
  -4   0  -1    2.60    2.60
   4   0   1   -0.90    2.80
   4   0   1   -2.90    2.50
  -4   0  -1   -1.60    3.40
  -4   0  -1   -2.70    2.90
  -4   0  -1   -1.50    2.30
   5   0   1 1040.60   35.10
  -5   0  -1 1036.10   34.70
   5   0   1 1034.00   34.90
  -5   0  -1 1068.59   35.10
  -5   0  -1  993.90   35.50
   5   0   1 1063.29   34.90
  -5   0  -1 1085.59   35.10
  -5   0  -1 1053.59   34.70
   5   0   1 1090.49   34.90
  -6   0  -1   -0.80    4.40
  -6   0  -1    0.10    4.30
   6   0   1    3.00    4.20
  -6   0  -1   -5.50    3.60
  -6   0  -1   -3.30    4.00
  -6   0  -1   -4.60    3.80
   6   0   1   -0.40    3.80
   6   0   1   -2.00    4.10
   6   0   1    1.10    4.20
   7   0   1  810.82   29.40
  -7   0  -1  819.72   30.40
  -7   0  -1  805.52   29.20
   7   0   1  824.32   29.80
  -7   0  -1  837.92   30.00
  -7   0  -1  827.92   29.20
   7   0   1  815.82   29.60
  -7   0  -1  861.11   30.10
  -8   0  -1   15.30    6.20
   8   0   1    0.00    5.60
   8   0   1   -4.50    5.80
   8   0   1    4.40    5.90
  -8   0  -1    3.30    7.10
  -8   0  -1    1.00    7.50
  -8   0  -1   -2.40    5.70
  -8   0  -1   -0.60    5.70
   8   0   1   -0.50    6.00
  -9   0  -1    1.80    6.80
  -9   0  -1   28.40    8.60
   9   0   1   34.80    7.40
   9   0   1    8.70    5.90
  -9   0  -1   14.40    8.80
  -9   0  -1   26.20    7.70
   9   0   1   17.80    7.10
  -9   0  -1   14.10    7.50
   9   0   1   11.50    7.10
  -9  -1   1   19.60    8.80
   9  -1  -1   18.10    6.50
  -9  -1   1   17.70    6.10
   9  -1  -1   30.20    7.20
  -9  -1   1    8.70    6.50
   9  -1  -1   21.60    6.90
  -9  -1   1   25.30    9.60
  -9  -1   1   15.00    8.60
   9  -1  -1   41.80    6.10
  -9   1   1   33.40    6.80
  -9   1   1    8.80    7.00
  -9   1   1   27.10    8.90
   9   1  -1   29.70    8.50
   9   1  -1   16.20    6.60
   9   1  -1   14.00    7.80
  -9   1   1   21.00    8.00
   9   1  -1   23.60    6.90
  -9   1   1   41.60    8.50
  -8  -1   1    4.30    7.40
  -8  -1   1    8.90    7.10
   8  -1  -1    9.20    6.10
   8  -1  -1    0.30    5.20
   8  -1  -1   14.00    5.50
  -8  -1   1    1.40    6.10
   8  -1  -1    4.60    5.60
  -8  -1   1   -0.40    7.20
  -8  -1   1   -0.70    6.20
  -8   1   1   11.60    5.00
  -8   1   1    0.10    6.60
   8   1  -1    7.70    6.80
  -8   1   1   10.10    5.10
   8   1  -1   -2.00    7.00
  -8   1   1   -2.30    5.70
   8   1  -1    0.90    7.70
   8   1  -1   -1.00    6.30
  -7  -1   1   48.90    7.20
  -7  -1   1   32.50    6.90
   7  -1  -1   36.40    5.40
   7  -1  -1   39.00    6.00
   7  -1  -1   47.10    5.40
  -7  -1   1   45.10    6.40
   7  -1  -1   28.10    5.00
  -7   1   1   49.40    6.20
   7   1  -1   38.10    6.40
   7   1  -1   37.40    7.40
  -7   1   1   23.80    4.80
  -7   1   1   36.30    7.00
   7   1  -1   39.20    6.40
  -7   1   1   31.30    6.20
   6  -1  -1  176.98    9.60
   6  -1  -1  173.18    9.50
  -6  -1   1  181.68   10.00
  -6  -1   1  178.08   10.60
   6  -1  -1  174.08    8.80
  -6  -1   1  179.28   10.30
  -6  -1   1  173.58   10.10
   6  -1  -1  169.88    9.30
  -6   1   1  170.88    9.70
   6   1  -1  171.68    9.80
  -6   1   1  175.48    9.70
   6   1  -1  191.48   10.60
   6   1  -1  182.48   11.00
  -6   1   1  184.38   11.80
   6   1  -1  171.28   10.40
  -6   1   1  172.38    8.70
  -6   1   1  170.08    9.00
  -5  -1   1  503.05   18.90
  -5  -1   1  507.15   19.20
  -5  -1   1  511.75   19.00
  -5  -1   1  496.25   18.80
   5  -1  -1  522.15   18.40
   5  -1  -1  515.95   18.40
   5  -1  -1  524.75   18.50
   5  -1  -1  515.85   18.60
   5   1  -1  518.35   18.90
  -5   1   1  509.65   20.20
   5   1  -1  541.45   19.00
   5   1  -1  531.25   18.80
  -5   1   1  535.45   18.80
  -5   1   1  536.25   18.80
  -5   1   1  537.75   18.20
   5   1  -1  506.85   19.10
  -5   1   1  536.55   18.10
  -4  -1   1   74.09    5.80
   4  -1  -1   80.29    4.70
  -4  -1   1   76.19    5.60
   4  -1  -1   78.89    5.00
   4  -1  -1   76.19    7.40
  -4  -1   1   77.39    5.60
   4  -1  -1   81.29    5.00
  -4  -1   1   75.79    5.40
   4  -1  -1   70.19    4.80
  -4   1   1   68.59    5.00
  -4   1   1   76.69    4.50
  -4   1   1   77.29    5.30
   4   1  -1   81.59    5.80
   4   1  -1   79.39    5.80
   4   1  -1   80.39    5.40
   4   1  -1   71.79    6.20
   4   1  -1   81.59    5.90
  -4   1   1   77.19    5.20
  -4   1   1   75.29    6.90
   3  -1  -1  513.25   16.80
  -3  -1   1  488.15   17.20
   3  -1  -1  486.05   16.80
   3  -1  -1  502.05   16.70
  -3  -1   1  484.05   17.30
   3  -1  -1  535.85   18.40
   3  -1  -1  505.05   16.70
  -3  -1   1  519.05   17.20
   3  -1  -1  539.25   18.70
  -3  -1   1  496.85   17.20
  -3   1   1  519.05   16.40
   3   1  -1  502.55   17.10
   3   1  -1  501.55   17.40
  -3   1   1  498.75   16.50
  -3   1   1  499.15   16.90
   3   1  -1  496.55   17.00
   3   1  -1  426.96   17.90
  -3   1   1  506.35   16.90
  -3   1   1  504.75   18.20
   2  -1  -1 1354.66   43.10
  -2  -1   1 1323.77   42.30
  -2  -1   1 1326.17   42.40
  -2  -1   1 1336.57   42.40
   2  -1  -1 1327.77   42.00
   2  -1  -1 1361.36   41.90
   2  -1  -1 1420.66   43.70
  -2  -1   1 1324.77   43.60
  -2  -1   1 1378.86   42.30
   2  -1  -1 1339.57   42.00
   2  -1  -1 1354.86   41.90
   2   1  -1 1314.87   42.40
  -2   1   1 1338.47   41.60
   2   1  -1 1328.57   42.50
   2   1  -1 1237.88   43.40
  -2   1   1 1376.76   42.10
   2   1  -1 1389.96   42.20
   2   1  -1 1310.27   42.20
  -2   1   1 1342.87   43.20
  -2   1   1 1316.87   42.00
   1  -1  -1 1758.42   55.29
   1  -1  -1 1773.12   55.29
  -1  -1   1 1767.02   55.69
  -1  -1   1 1820.72   57.39
  -1  -1   1 1719.33   55.59
  -1  -1   1 1748.23   55.69
  -1  -1   1 1811.82   55.59
   1  -1  -1 1889.21   57.39
   1  -1  -1 1770.12   56.39
   1   1  -1 1785.72   55.79
  -1   1   1 1802.52   56.49
  -1   1   1 1874.01   57.49
   1   1  -1 1739.93   55.69
   1   1  -1 1714.63   55.49
   1   1  -1 1802.92   55.49
  -1   1   1 1896.81   56.19
   1   1  -1 1739.53   57.29
   0  -1  -1  373.76   11.80
   0  -1  -1  376.36   11.80
   0  -1  -1  399.46   12.80
   0  -1   1  375.66   11.70
   0  -1   1  366.76   11.70
   0  -1  -1  365.66   14.70
   0  -1   1  365.86   14.50
   0   1   1  357.16   14.70
   0   1   1  368.16   11.80
   0   1  -1  372.86   11.80
   0   1  -1  391.46   12.60
   0   1   1  393.76   12.80
   0   1  -1  370.16   11.80
   0   1  -1  363.16   14.80
  -1  -1  -1  773.22   25.00
  -1  -1  -1  761.42   25.10
   1  -1   1  781.12   26.90
   1  -1   1  774.22   24.70
   1  -1   1  796.62   24.70
  -1  -1  -1  766.12   27.00
  -1  -1  -1  798.02   25.10
   1  -1   1  815.52   26.10
  -1  -1  -1  831.22   25.20
   1   1   1  786.82   25.20
   1   1   1  793.12   24.90
  -1   1  -1  837.22   25.50
  -1   1  -1  844.92   26.30
  -1   1  -1  795.12   26.90
   1   1   1  785.22   25.20
   1   1   1  744.53   26.90
  -1   1  -1  765.82   24.80
   1   1   1  780.52   24.90
   2  -1   1  127.39    5.00
  -2  -1  -1  114.49    8.10
   2  -1   1  124.89    6.70
  -2  -1  -1  132.19    5.70
  -2  -1  -1  125.29    5.40
  -2  -1  -1  127.79    5.60
   2  -1   1  123.79    5.00
  -2  -1  -1  122.09    5.40
   2  -1   1  124.49    4.90
   2  -1   1  132.59    5.10
   2  -1   1  121.79    7.90
   2   1   1  123.19    5.60
   2   1   1  128.89    5.40
  -2   1  -1  127.99    5.10
  -2   1  -1  130.59    4.50
  -2   1  -1  133.29    7.30
   2   1   1  121.79    5.80
   2   1   1  111.39    7.80
  -2   1  -1  125.49    4.50
  -2   1  -1  137.59    7.70
  -2   1  -1  127.79    5.10
   2   1   1  124.99    5.40
  -3  -1  -1   41.20    4.30
   3  -1   1   42.10    3.70
   3  -1   1   37.70    3.60
  -3  -1  -1   43.30    4.10
   3  -1   1   41.50    5.80
  -3  -1  -1   42.80    6.10
  -3  -1  -1   39.00    4.40
   3  -1   1   38.90    3.30
  -3  -1  -1   35.50    4.50
   3  -1   1   46.00    3.60
   3   1   1   42.60    4.30
   3   1   1   39.90    4.40
   3   1   1   45.90    4.00
   3   1   1   43.60    4.20
  -3   1  -1   41.90    5.80
  -3   1  -1   51.39    6.10
  -3   1  -1   33.00    3.80
  -3   1  -1   40.50    3.70
  -3   1  -1   44.80    3.20
   4  -1   1  267.17   10.30
  -4  -1  -1  269.67   10.90
   4  -1   1  263.17   10.20
  -4  -1  -1  262.47   10.80
   4  -1   1  262.07   10.30
   4  -1   1  271.17   10.30
  -4  -1  -1  280.07   10.90
   4  -1   1  258.57   12.20
  -4  -1  -1  272.67   10.80
   4   1   1  264.97   10.90
  -4   1  -1  257.97   11.90
  -4   1  -1  278.07    9.90
  -4   1  -1  268.27   10.50
   4   1   1  279.67   10.70
  -4   1  -1  246.78   10.10
   4   1   1  268.87   11.10
   4   1   1  278.97   11.40
  -4   1  -1  256.57   10.60
  -5  -1  -1   13.90    4.00
   5  -1   1   10.80    3.10
   5  -1   1    6.00    3.00
  -5  -1  -1    9.90    3.50
  -5  -1  -1    8.90    3.80
   5  -1   1   11.60    3.50
   5  -1   1    6.40    2.80
  -5  -1  -1   12.90    3.80
  -5   1  -1   13.70    3.70
   5   1   1   11.60    4.40
   5   1   1   16.40    4.10
  -5   1  -1    8.20    3.70
  -5   1  -1   10.20    3.30
  -5   1  -1   17.20    5.00
   5   1   1   10.90    3.70
  -5   1  -1   12.10    2.90
   5   1   1   10.00    3.90
   6  -1   1   50.79    6.10
   6  -1   1   47.20    5.60
  -6  -1  -1   53.99    6.40
  -6  -1  -1   56.29    6.10
   6  -1   1   52.59    6.80
  -6  -1  -1   53.29    5.80
  -6  -1  -1   53.29    6.50
   6  -1   1   51.09    6.30
  -6   1  -1   51.59    5.80
  -6   1  -1   46.30    5.70
  -6   1  -1   56.79    6.20
   6   1   1   44.80    5.60
  -6   1  -1   46.90    6.30
   6   1   1   47.70    5.70
   6   1   1   70.39    7.10
   6   1   1   59.79    7.20
  -6   1  -1   60.29    8.70
   7  -1   1  187.08   10.00
  -7  -1  -1  164.48   11.70
  -7  -1  -1  173.78   11.00
   7  -1   1  197.98   11.10
  -7  -1  -1  162.88   11.00
  -7  -1  -1  197.68   11.30
   7  -1   1  162.28   10.00
   7  -1   1  185.38   10.30
  -7   1  -1  205.68   12.20
   7   1   1  193.98   12.00
  -7   1  -1  184.08   10.20
  -7   1  -1  183.48   10.40
  -7   1  -1  194.48   11.30
   7   1   1  174.88   11.50
   7   1   1  185.68   11.20
  -8  -1  -1   54.29    8.00
  -8  -1  -1   37.80    8.00
   8  -1   1   46.00    6.80
   8  -1   1   41.00    7.10
  -8  -1  -1   46.60    8.10
  -8  -1  -1   37.70    8.50
   8  -1   1   41.50    6.70
  -8  -1  -1   51.39    8.80
   8  -1   1   44.80    7.40
  -8   1  -1   42.90    8.10
   8   1   1   54.29    9.00
  -8   1  -1   40.80    6.80
   8   1   1   38.10    7.70
   8   1   1   47.90    8.10
  -8   1  -1   45.70    6.70
  -8   1  -1   40.40    7.70
   8   1   1   43.00    7.80
  -8   1  -1   35.60    6.10
  -9  -1  -1   -0.40    8.80
   9  -1   1    3.70    6.50
   9  -1   1    3.60    6.00
   9  -1   1    5.70    5.40
  -9  -1  -1    5.50    6.20
  -9  -1  -1   -0.50    7.70
  -9  -1  -1  -11.30    8.50
   9   1   1   -1.80    7.80
   9   1   1   14.60    7.70
   9   1   1    0.90    6.70
  -9   1  -1    9.50    8.10
  -9   1  -1  -16.30    8.80
  -9   1  -1    5.50    6.10
   8  -2  -1    7.00    6.10
  -8  -2   1   12.90    7.80
   8  -2  -1    4.50    4.90
  -8  -2   1    5.70    6.80
   8  -2  -1   -6.00    4.80
  -8  -2   1    8.90    5.10
  -8  -2   1    8.60    6.60
   8  -2  -1   11.20    5.80
   8   2  -1    8.80    6.90
  -8   2   1   14.70    9.30
   8   2  -1   -2.20    7.00
  -8   2   1    5.60    6.90
  -8   2   1    9.30    6.30
  -8   2   1    2.30    3.20
  -8   2   1    5.70    3.60
   8   2  -1    4.70    7.10
   8   2  -1    1.50    7.20
   7  -2  -1   44.50    5.70
  -7  -2   1   45.00    6.70
  -7  -2   1   68.79    8.20
   7  -2  -1   60.79    5.90
   7  -2  -1   59.19    7.40
   7  -2  -1   48.10    6.30
  -7  -2   1   65.99    8.10
  -7  -2   1   51.19    7.10
  -7   2   1   57.59    9.90
  -7   2   1   50.09    6.30
   7   2  -1   82.79   10.50
  -7   2   1   41.60    4.90
   7   2  -1   69.69    9.00
  -6  -2   1   62.59    7.00
   6  -2  -1   49.60    6.00
  -6  -2   1   66.49    7.10
   6  -2  -1   79.89    7.10
   6  -2  -1   57.99    6.80
   6  -2  -1   57.99    4.80
  -6  -2   1   55.69    6.90
  -6  -2   1   62.79    7.00
  -6   2   1   63.89    3.60
  -6   2   1   72.79   11.20
   6   2  -1   59.19    7.60
  -6   2   1   57.49    6.20
  -6   2   1   64.79    3.90
   6   2  -1   79.99    7.60
   6   2  -1   54.19    6.20
  -6   2   1   60.09    7.00
   5  -2  -1   82.59    5.80
  -5  -2   1   69.49    7.30
  -5  -2   1   88.29    7.20
   5  -2  -1   75.39    5.50
   5  -2  -1   74.89    4.70
  -5  -2   1   80.99    6.70
   5  -2  -1   65.39    5.70
  -5  -2   1   74.89    7.30
  -5   2   1   70.09    6.10
   5   2  -1   76.59    7.70
   5   2  -1   82.49    6.90
  -5   2   1   75.79   10.60
   5   2  -1   80.69    9.10
   5   2  -1   79.89    6.70
   5   2  -1   74.19    7.40
  -5   2   1   86.09    6.50
   4  -2  -1   79.69    4.30
   4  -2  -1   82.59    4.80
  -4  -2   1   81.89    6.10
  -4  -2   1   74.69    5.80
  -4  -2   1   74.79    6.10
   4  -2  -1   86.19    4.80
   4  -2  -1   80.69    5.10
  -4  -2   1   82.29    5.70
   4  -2  -1   93.29    9.00
   4   2  -1   79.09    6.60
  -4   2   1   79.39    5.30
   4   2  -1   80.49    5.50
   4   2  -1   78.49    5.60
   4   2  -1   86.99    6.40
   4   2  -1   74.99    7.90
  -4   2   1   74.59    9.00
  -4   2   1   74.99    5.20
   3  -2  -1    0.00    2.10
  -3  -2   1    1.70    2.40
   3  -2  -1   -3.70    4.00
   3  -2  -1    3.30    1.50
   3  -2  -1    0.90    1.40
   3  -2  -1    1.00    1.90
  -3  -2   1    1.50    2.10
  -3  -2   1    3.00    2.40
  -3  -2   1    3.30    2.50
   3   2  -1    2.20    2.70
   3   2  -1    1.60    3.10
   3   2  -1    2.20    2.10
  -3   2   1   -0.40    1.80
   3   2  -1    4.10    5.10
  -3   2   1    4.20    4.50
   3   2  -1    2.30    1.90
  -2  -2   1  196.78    7.30
  -2  -2   1  179.78    7.30
   2  -2  -1  181.28    6.20
   2  -2  -1  188.98    6.30
  -2  -2   1  175.68    7.40
   2  -2  -1  184.18    9.20
  -2  -2   1  184.88    7.30
  -2   2   1  185.18    6.40
   2   2  -1  158.98   10.80
   2   2  -1  190.88    6.40
  -2   2   1  193.88    6.40
   2   2  -1  182.28    7.40
   2   2  -1  195.08    8.40
   2   2  -1  183.98    6.50
   2   2  -1  181.28    7.80
  -2   2   1  184.18   11.40
  -2   2   1  195.88   10.10
  -1  -2   1   10.70    1.50
  -1  -2   1   12.00    1.80
  -1  -2   1   10.90    1.70
   1  -2  -1   11.30    3.60
   1   2  -1   11.60    3.50
  -1   2   1   20.20    7.20
   1   2  -1    8.30    6.10
  -1   2   1    8.20    3.30
   1   2  -1   10.60    1.80
   0  -2  -1  455.35   15.70
   0  -2   1  445.36   15.90
   0   2   1  433.06   13.60
   0   2  -1  434.06   13.50
   0   2   1  428.16   13.60
   0   2   1  428.56   18.50
   0   2  -1  419.76   13.50
   0   2  -1  394.46   17.80
   0   2   1  421.46   15.30
   0   2  -1  422.56   15.10
  -1  -2  -1   20.00    2.00
  -1  -2  -1   12.50    2.20
  -1  -2  -1   17.60    2.00
  -1  -2  -1   15.10    1.80
   1  -2   1   18.10    4.50
  -1   2  -1   20.70    3.60
   1   2   1   21.30    3.80
  -1   2  -1   16.30    6.20
   1   2   1   23.80    6.70
   1   2   1   15.00    2.10
   2  -2   1   25.80    1.70
  -2  -2  -1   28.60    2.90
  -2  -2  -1   30.60    3.10
   2  -2   1   29.60    2.30
  -2  -2  -1   25.40    3.20
  -2  -2  -1   39.20    3.30
   2  -2   1   47.00    6.10
   2  -2   1   30.20    1.60
  -2   2  -1   47.60    7.20
  -2   2  -1   24.80    2.10
   2   2   1   30.60    3.90
  -2   2  -1   26.00    2.30
   2   2   1   29.80    3.30
   2   2   1   34.90    2.30
   2   2   1   48.00    5.20
  -2   2  -1   36.80    7.10
  -3  -2  -1  252.17    9.90
   3  -2   1  250.37    8.80
  -3  -2  -1  244.28    9.80
   3  -2   1  246.08    8.80
   3  -2   1  248.78   11.90
   3  -2   1  251.47    9.10
   3  -2   1  244.68    9.10
  -3  -2  -1  251.07    9.80
  -3  -2  -1  239.78    9.90
   3   2   1  233.88   12.70
  -3   2  -1  255.97    9.10
   3   2   1  257.47   10.20
   3   2   1  256.07    9.30
  -3   2  -1  262.47   13.30
   3   2   1  246.38   10.20
   3   2   1  242.48    9.30
  -3   2  -1  255.17   12.70
   4  -2   1    4.00    2.30
   4  -2   1    6.30    2.20
  -4  -2  -1    6.90    3.30
   4  -2   1    4.30    1.80
  -4  -2  -1   11.20    3.20
   4  -2   1    4.50    2.50
  -4  -2  -1    4.10    3.50
  -4  -2  -1    6.90    3.20
   4  -2   1    3.70    5.30
  -4   2  -1    5.80    2.80
   4   2   1    3.50    3.50
  -4   2  -1    4.80    2.80
   4   2   1    5.40    2.90
   4   2   1    6.10    2.90
   4   2   1   10.10    3.50
  -4   2  -1   10.90    6.10
   5  -2   1  123.99    6.50
  -5  -2  -1  117.49    8.00
   5  -2   1  128.89    7.00
  -5  -2  -1  108.29    7.40
   5  -2   1  105.79    6.90
   5  -2   1  123.79   10.60
  -5  -2  -1  110.39    8.00
   5  -2   1  114.29    5.70
  -5  -2  -1  116.49    8.40
  -5   2  -1  121.89    7.40
   5   2   1  116.89    8.40
   5   2   1  110.99    7.60
   5   2   1  113.99    7.90
  -5   2  -1  119.79    7.10
   5   2   1  116.49    7.60
  -5   2  -1  117.09   11.80
   6  -2   1   12.00    3.90
  -6  -2  -1   12.10    5.40
   6  -2   1   22.30    4.00
   6  -2   1   21.20    3.30
  -6  -2  -1    6.30    4.50
   6  -2   1   17.70    4.60
  -6  -2  -1   16.60    5.40
  -6  -2  -1   23.10    5.80
  -6   2  -1   14.40    7.40
  -6   2  -1   17.90    2.50
   6   2   1   20.10    6.30
  -6   2  -1   17.60    4.90
  -6   2  -1   14.80    4.30
   6   2   1   15.90    5.10
   6   2   1   26.90    5.30
  -6   2  -1   16.10    2.20
   7  -2   1   74.19    7.90
  -7  -2  -1   68.79    8.50
   7  -2   1   66.19    7.40
   7  -2   1   70.99    6.50
  -7  -2  -1   66.39    8.80
   7  -2   1   71.69    8.60
  -7  -2  -1   79.79    8.50
  -7  -2  -1   65.49    8.20
   7   2   1   58.39    6.90
  -7   2  -1   70.79    9.40
   7   2   1   85.59    9.30
  -7   2  -1   72.49   10.30
   7   2   1   76.99    9.00
  -7   2  -1   68.99    7.90
  -7   2  -1   63.69    5.40
  -8  -2  -1  157.28   12.60
  -8  -2  -1  162.28   11.90
   8  -2   1  176.78   11.80
   8  -2   1  177.38   10.40
  -8  -2  -1  172.98   10.90
   8  -2   1  147.09   12.30
   8  -2   1  162.78   10.00
  -8  -2  -1  159.38   13.70
   8   2   1  154.28   13.10
  -8   2  -1  155.78   12.00
   8   2   1  193.48   14.00
   8   2   1  166.88   12.60
  -8   2  -1  164.08   12.40
   8   2   1  175.78   14.70
  -7  -3   1   10.40    5.30
  -7  -3   1    2.40    6.10
   7  -3  -1   -2.90    5.20
   7  -3  -1   11.40    3.10
   7  -3  -1   -3.60    4.70
   7  -3  -1    2.90    4.30
  -7  -3   1   17.50    5.40
  -7  -3   1    3.20    7.60
  -7   3   1   -7.50    9.30
   7   3  -1   -1.90    5.80
   7   3  -1    0.00    7.50
  -7   3   1   -2.30    4.20
   7   3  -1    1.30    5.10
   7   3  -1   -2.00    6.30
   6  -3  -1    6.90    4.90
  -6  -3   1   16.40    6.10
  -6  -3   1    1.50    4.80
   6  -3  -1    6.40    5.20
  -6  -3   1   10.50    4.70
   6  -3  -1    1.20    3.30
   6  -3  -1    4.00    4.40
  -6  -3   1    2.00    5.40
   6   3  -1    5.20    5.40
  -6   3   1   -0.60    3.90
   6   3  -1    2.30    6.50
   6   3  -1    7.50    4.40
  -6   3   1   13.40   10.80
   6   3  -1    3.30    4.20
   5  -3  -1   81.19    5.10
   5  -3  -1   78.59    5.00
   5  -3  -1   93.19   13.20
  -5  -3   1   80.09    6.90
  -5  -3   1   95.09    7.10
  -5  -3   1   89.09    8.40
  -5  -3   1   80.99    7.60
   5  -3  -1   94.09    6.50
   5  -3  -1   77.59    6.00
   5   3  -1   78.99    5.80
   5   3  -1   76.09    7.80
  -5   3   1   96.19   14.10
   5   3  -1   73.59    5.60
  -4  -3   1   37.00    4.60
  -4  -3   1   42.20    5.10
   4  -3  -1   39.20    3.70
  -4  -3   1   43.50    5.00
  -4  -3   1   35.10    4.40
   4  -3  -1   39.30    4.70
   4  -3  -1   49.99    8.70
  -4   3   1   32.80    3.70
   4   3  -1   46.80   14.40
   4   3  -1   40.30    6.40
  -4   3   1   48.30    9.80
   4   3  -1   40.10    5.60
   4   3  -1   39.70    3.50
   4   3  -1   38.70    3.10
   4   3  -1   38.10    4.90
  -4   3   1   35.70    3.10
   3  -3  -1   74.09    3.70
  -3  -3   1   77.99    6.00
  -3  -3   1   84.19    5.70
  -3  -3   1   79.99    6.20
   3  -3  -1   80.99    9.70
   3  -3  -1   81.49    4.40
  -3  -3   1   77.69    4.80
   3   3  -1   80.89    6.00
   3   3  -1   99.69   16.00
   3   3  -1   70.09    6.80
   3   3  -1   82.89    7.20
  -2  -3   1   35.20    3.70
  -2  -3   1   37.00    3.50
   2  -3  -1   44.70    7.10
  -2  -3   1   34.20    3.80
  -2  -3   1   36.60    4.10
  -2   3   1   36.80    5.80
   2   3  -1   44.90   12.10
   2   3  -1   34.50    4.30
   2   3  -1   32.90    3.70
   2   3  -1   31.90    5.20
  -1  -3   1   75.79    7.40
  -1  -3   1   64.69    2.90
  -1  -3   1   64.89    3.50
   1  -3  -1   62.99    7.40
  -1  -3   1   61.09    2.80
  -1  -3   1   60.69    4.20
   1   3  -1   77.09    6.60
  -1   3   1   69.89   12.90
   1   3  -1   61.59    3.70
   1   3  -1   75.99   13.50
   1   3  -1   67.39    3.50
  -1   3   1   63.99    6.40
   0  -3  -1   26.10    5.10
   0  -3   1   19.70    1.60
   0  -3   1   22.60    5.30
   0  -3  -1   19.30    1.70
   0  -3  -1   23.90    2.40
   0   3  -1   26.00    5.10
   0   3   1   22.80   10.50
   0   3   1   20.00    4.40
   0   3  -1   24.50   11.40
  -1  -3  -1    7.70    1.70
  -1  -3  -1    7.60    1.60
  -1  -3  -1    8.70    5.10
  -1  -3  -1    7.80    1.80
   1  -3   1    5.40    5.30
  -1  -3  -1    7.90    2.40
  -1   3  -1    7.40    3.90
   1   3   1    6.10    1.60
   1   3   1    4.30   10.70
   1   3   1    7.70    4.20
   1   3   1    6.70    2.10
  -1   3  -1    7.50   10.70
  -2  -3  -1    1.10    2.20
  -2  -3  -1    1.00    2.70
   2  -3   1    0.60    6.10
  -2  -3  -1    4.90    2.80
  -2  -3  -1    0.90    2.00
   2   3   1    3.90    4.20
  -2   3  -1    8.60   12.40
   2   3   1    0.70    2.80
   2   3   1    9.80   10.90
   2   3   1    1.30    2.70
  -3  -3  -1   12.90    3.30
   3  -3   1    5.70    2.10
   3  -3   1    9.70    6.30
  -3  -3  -1    4.80    3.10
  -3  -3  -1    8.70    3.50
   3  -3   1    5.00    1.30
  -3  -3  -1    9.50    2.60
   3   3   1    5.80    3.50
   3   3   1    5.10    4.70
   3   3   1    1.90    3.80
  -3   3  -1    6.10   12.40
   4  -3   1  189.98   13.80
   4  -3   1  200.08    8.50
  -4  -3  -1  199.08   10.50
   4  -3   1  197.38    8.00
  -4  -3  -1  187.38    9.90
  -4  -3  -1  201.48    8.80
  -4  -3  -1  192.08    9.10
   4   3   1  191.48    7.50
   4   3   1  207.88   10.10
   4   3   1  198.38   10.50
   4   3   1  211.48   10.40
  -4   3  -1  205.08   15.10
   4   3   1  191.98    7.70
  -4   3  -1  192.18    7.50
  -5  -3  -1  249.88   11.30
   5  -3   1  249.48    9.70
   5  -3   1  251.87   10.80
  -5  -3  -1  249.58   12.60
   5  -3   1  263.07   17.60
   5  -3   1  236.18    9.60
  -5  -3  -1  247.88   11.60
  -5  -3  -1  266.27   12.10
   5  -3   1  246.68   10.40
  -5   3  -1  252.47   17.70
   5   3   1  241.58   10.30
  -5   3  -1  262.07   10.60
   5   3   1  249.58   10.40
   5   3   1  236.88   12.30
   6  -3   1   15.90    4.80
   6  -3   1   14.50    4.90
   6  -3   1   10.90    3.60
  -6  -3  -1   11.60    5.70
  -6  -3  -1   17.10    5.10
   6  -3   1   11.20    4.90
   6  -3   1   10.90   10.40
  -6  -3  -1    8.80    5.60
  -6  -3  -1   12.20    5.30
  -6   3  -1    0.00    3.70
   6   3   1   17.80    5.10
  -6   3  -1    0.40    4.80
   6   3   1   10.90    7.20
   6   3   1    9.90    4.50
  -6   3  -1   11.50    9.80
   6   3   1   13.60    6.60
  -7  -3  -1    7.10    6.60
  -7  -3  -1   10.60    4.90
   7  -3   1   10.30    4.70
  -7  -3  -1   12.00    5.80
   7  -3   1   20.10    5.50
  -7  -3  -1   20.30    7.40
   7  -3   1   10.40    5.70
  -7   3  -1   14.90   10.30
   7   3   1    5.50    6.10
   7   3   1    2.80    8.90
   7   3   1    0.40    5.40
  -7   3  -1   -2.80    6.40
   7   3   1    9.90    9.20
  -7   3  -1   22.40    6.50
   4  -4  -1    9.40    2.50
   4  -4  -1   -0.10    3.00
  -4  -4   1    3.60    4.00
   4  -4  -1    9.70    9.80
  -4  -4   1    5.40    5.10
  -4  -4   1    2.30    4.70
   4   4  -1    4.30    5.70
   4   4  -1   -8.10    8.60
   4   4  -1   -0.40    4.20
  -3  -4   1   -3.90    4.60
   3  -4  -1    4.20    8.60
  -3  -4   1    4.50    3.70
  -3  -4   1   -1.90    3.70
   3  -4  -1   -3.90    2.10
  -3  -4   1    0.80    3.10
   3   4  -1    0.50    4.20
   3   4  -1    1.80    6.20
   3   4  -1   -5.20   11.30
   3   4  -1    2.70    4.10
  -2  -4   1    4.00    7.70
   2  -4  -1   21.70    7.80
  -2  -4   1    8.30    3.80
  -2  -4   1    7.20    3.10
  -2   4   1    9.70    5.70
   2   4  -1   17.20    5.80
   2   4  -1   10.40    3.60
   2   4  -1   22.90   12.40
   2   4  -1    4.40    2.00
   1  -4  -1   -0.90    6.20
  -1  -4   1    3.80    7.00
  -1  -4   1   -0.40    2.10
  -1  -4   1    1.50    2.90
  -1   4   1    2.30    4.70
   1   4  -1   -4.70   11.60
   1   4  -1    2.80    5.20
   0  -4  -1   57.89    4.30
   0  -4   1   67.19    9.40
   0  -4   1   55.79    3.90
   0  -4   1   57.49    2.80
   0  -4  -1   56.39    2.80
   0  -4  -1   69.39   10.30
   0   4  -1   38.80   14.10
   0   4  -1   61.49    7.90
   0   4   1   61.09    7.30
   1  -4   1    5.50    7.30
  -1  -4  -1    1.20    2.10
  -1  -4  -1    3.40    3.10
  -1  -4  -1   18.90    7.10
  -1   4  -1    8.90   13.40
  -1   4  -1    2.80    5.40
   1   4   1    6.30    5.30
  -2  -4  -1   10.50    6.90
   2  -4   1    6.90    7.90
  -2  -4  -1   18.00    4.00
  -2  -4  -1   11.00    3.10
   2   4   1   10.50    5.20
   2   4   1   14.90    3.60
  -3  -4  -1   54.59    6.70
  -3  -4  -1   37.50    8.00
  -3  -4  -1   41.10    5.10
  -3  -4  -1   44.20    5.40
   3  -4   1   46.20   10.40
  -3  -4  -1   32.40    5.80
   3  -4   1   55.29    3.00
   3  -4   1   44.00    3.80
   3   4   1   39.50    5.30
   3   4   1   49.60    8.30
   4  -4   1   67.09    5.00
  -4  -4  -1   67.59    8.60
  -4  -4  -1   65.19    8.20
   4  -4   1   70.09    4.70
   4  -4   1   64.09   11.00
  -4  -4  -1   56.59    6.70
   4   4   1   49.99   10.00
   4   4   1   60.79    7.50
   9   0  -2    1.60    6.10
   9   0  -2   -8.70    5.50
  -9   0   2   -8.20    7.00
  -9   0   2    5.20    9.10
   9   0  -2   -5.40    5.20
  -9   0   2    4.60    7.00
   9   0  -2    1.40    7.00
  -9   0   2   -4.90    7.40
  -9   0   2    5.30    7.00
   8   0  -2   -2.80    5.90
  -8   0   2   -5.20    5.90
  -8   0   2   -2.00    5.30
  -8   0   2    2.40    6.30
   8   0  -2    9.00    6.60
   8   0  -2   -0.10    5.60
  -8   0   2   -4.00    5.80
   8   0  -2    4.90    5.60
   7   0  -2   -6.00    4.40
   7   0  -2   -1.20    5.10
  -7   0   2   -1.60    4.80
  -7   0   2    5.70    5.80
   7   0  -2    0.00    4.70
   7   0  -2   -5.90    4.80
  -7   0   2   -3.20    4.20
  -7   0   2    0.70    4.30
  -7   0   2   -7.00    5.40
   6   0  -2  130.79    8.60
   6   0  -2  121.59    8.90
   6   0  -2  129.79    7.90
  -6   0   2  124.09    8.10
  -6   0   2  140.59    9.60
   6   0  -2  122.69    8.60
  -6   0   2  136.89    8.70
  -6   0   2  124.69    8.20
  -6   0   2  150.88    9.20
  -5   0   2    2.10    3.10
   5   0  -2   -0.20    3.20
  -5   0   2   -2.60    3.40
   5   0  -2   -2.70    3.10
  -5   0   2   -0.60    2.80
  -5   0   2   -4.20    3.60
   5   0  -2   -1.80    3.10
   5   0  -2    0.20    3.10
   4   0  -2   56.39    5.10
  -4   0   2   53.39    4.80
   4   0  -2   48.40    4.40
  -4   0   2   48.70    4.80
   4   0  -2   47.80    5.20
   4   0  -2   56.59    4.70
  -4   0   2   55.49    5.00
  -4   0   2   52.79    4.60
   3   0  -2   -0.20    1.70
  -3   0   2   -3.70    2.10
  -3   0   2   -1.00    2.40
   3   0  -2   -2.00    2.30
  -3   0   2    0.10    2.30
  -3   0   2    0.60    2.10
   3   0  -2   -0.30    2.20
   3   0  -2    3.00    2.10
   2   0  -2    9.20    2.40
  -2   0   2    9.40    2.30
   2   0  -2    8.00    2.40
  -2   0   2    9.20    2.20
   2   0  -2   13.80    2.50
   2   0  -2    5.00    2.30
  -2   0   2   10.00    2.30
  -2   0   2    7.40    2.40
  -1   0   2   -5.20    1.50
   1   0  -2   -4.80    1.00
   1   0  -2   -5.20    1.20
  -1   0   2   -5.20    0.90
  -1   0  -2    0.00    1.00
   1   0   2   -2.10    1.40
  -1   0  -2   -0.30    1.20
  -1   0  -2   -0.50    1.30
   1   0   2   -0.10    1.40
  -1   0  -2   -1.00    1.30
  -1   0  -2   -1.90    1.20
   1   0   2   -0.70    0.90
   1   0   2    0.80    1.30
   1   0   2   -1.40    1.20
  -2   0  -2  300.67   10.70
  -2   0  -2  298.17   11.00
   2   0   2  308.47   10.70
  -2   0  -2  285.97   10.60
  -2   0  -2  297.27   10.80
   2   0   2  304.87   10.70
   2   0   2  329.87   10.80
  -2   0  -2  299.37   10.80
   3   0   2   -2.20    2.40
  -3   0  -2    1.10    2.80
  -3   0  -2   -1.10    1.90
  -3   0  -2    0.10    2.50
   3   0   2   -5.10    2.20
  -3   0  -2   -0.80    2.40
   3   0   2   -4.80    2.00
  -3   0  -2   -3.50    2.40
   3   0   2   -5.10    2.60
  -4   0  -2  428.26   15.10
   4   0   2  425.36   14.80
  -4   0  -2  401.16   14.70
   4   0   2  421.26   14.80
  -4   0  -2  365.86   14.60
  -4   0  -2  417.76   14.70
   4   0   2  406.56   14.70
  -4   0  -2  379.46   15.10
   4   0   2  399.46   15.00
   5   0   2    1.00    3.10
  -5   0  -2    0.90    3.60
  -5   0  -2    0.80    3.20
   5   0   2    1.20    3.30
   5   0   2   -3.00    3.50
  -5   0  -2    0.90    2.90
  -5   0  -2    1.70    3.90
   5   0   2    0.00    3.30
  -5   0  -2   -1.40    3.60
  -6   0  -2   26.00    5.50
  -6   0  -2   17.70    4.30
  -6   0  -2   34.50    5.80
   6   0   2   26.80    5.60
   6   0   2   20.70    4.90
  -6   0  -2   21.60    4.90
   6   0   2   31.70    5.30
  -6   0  -2   22.80    5.20
   6   0   2   23.30    4.90
  -7   0  -2    3.90    5.40
  -7   0  -2    0.60    5.10
  -7   0  -2    3.50    5.30
   7   0   2    4.20    5.00
   7   0   2   -0.40    4.90
  -7   0  -2    3.70    4.50
   7   0   2    4.00    4.90
   7   0   2   -0.90    4.80
  -7   0  -2    0.80    5.40
   8   0   2   68.09    7.90
   8   0   2   83.59   10.90
  -8   0  -2   52.29    7.30
  -8   0  -2   91.99   10.00
  -8   0  -2   76.99    8.90
   8   0   2   73.09    8.60
  -8   0  -2   74.49   10.00
  -8   0  -2   87.39   10.40
   8   0   2   78.49    8.10
   9   0   2    8.50    6.30
  -9   0  -2   -2.60    5.80
  -9   0  -2    3.30    6.70
   9   0   2    7.00    6.70
   9   0   2   -8.40    6.40
  -9   0  -2    4.30    8.20
   9   0   2    4.70    7.10
  -9   0  -2   -4.30    7.30
  -9   0  -2   16.10    8.30
   9  -1  -2   58.59    7.40
   9  -1  -2   66.69    8.60
   9  -1  -2   67.19    8.70
   9  -1  -2   70.39    8.70
  -9  -1   2   75.09   10.00
  -9  -1   2   72.69   10.30
  -9  -1   2   84.59   10.10
  -9  -1   2   63.19   10.80
   9   1  -2   52.29    8.00
  -9   1   2   74.49   10.70
  -9   1   2   84.19    8.50
   9   1  -2   87.89   10.80
   9   1  -2   63.49    7.90
  -9   1   2   78.29    8.90
  -9   1   2   99.09   11.20
  -9   1   2   81.79   10.00
   9   1  -2   60.99    9.50
   8  -1  -2   34.70    5.70
  -8  -1   2   37.80    7.60
  -8  -1   2   31.00    6.70
   8  -1  -2   46.50    7.30
   8  -1  -2   34.80    6.80
   8  -1  -2   36.30    6.10
  -8  -1   2   40.90    7.90
  -8   1   2   39.70    6.00
  -8   1   2   38.30    6.50
   8   1  -2   49.20    8.00
  -8   1   2   50.09    8.40
   8   1  -2   39.50    7.90
   8   1  -2   47.00    8.80
   8   1  -2   43.20    8.20
  -8   1   2   48.60    6.50
   7  -1  -2  122.59    8.40
  -7  -1   2  130.49    9.80
  -7  -1   2  131.89    9.80
   7  -1  -2  129.29    8.90
  -7  -1   2  140.79    9.80
   7  -1  -2  136.19    9.50
   7  -1  -2  129.99    8.50
  -7   1   2  135.39   11.00
   7   1  -2  140.09   10.40
  -7   1   2  133.49   10.00
   7   1  -2  129.09    9.70
   7   1  -2  133.39   10.40
  -7   1   2  138.39    9.00
  -7   1   2  103.59    8.30
   6  -1  -2  239.18   11.30
  -6  -1   2  245.08   11.60
   6  -1  -2  248.28   11.30
   6  -1  -2  233.58   11.00
   6  -1  -2  237.18   10.80
  -6  -1   2  242.88   12.30
  -6  -1   2  246.58   12.00
  -6  -1   2  239.88   11.90
   6   1  -2  233.68   11.50
   6   1  -2  249.08   12.20
  -6   1   2  234.58   11.40
  -6   1   2  247.98   10.50
  -6   1   2  267.97   13.80
  -6   1   2  244.28   11.50
   6   1  -2  227.48   12.60
  -6   1   2  235.58   10.70
   6   1  -2  243.08   12.10
   5  -1  -2   11.20    5.90
  -5  -1   2    7.40    3.60
   5  -1  -2    9.80    3.10
  -5  -1   2    7.40    3.40
   5  -1  -2   13.60    3.10
  -5  -1   2   10.50    4.10
  -5  -1   2    5.70    3.50
   5  -1  -2    7.50    3.40
   5  -1  -2    6.30    2.80
   5   1  -2    9.90    3.40
   5   1  -2   12.70    4.60
  -5   1   2   13.80    3.70
   5   1  -2    8.10    3.40
  -5   1   2    9.90    3.20
  -5   1   2   11.30    5.20
  -5   1   2   10.50    2.70
   5   1  -2   13.90    4.10
  -5   1   2    9.40    3.70
   5   1  -2    6.40    3.20
   4  -1  -2   13.60    2.80
  -4  -1   2   14.30    3.40
   4  -1  -2   14.10    2.60
  -4  -1   2   11.90    3.30
   4  -1  -2   15.90    3.00
   4  -1  -2   11.20    2.60
   4  -1  -2   18.50    6.30
  -4  -1   2   11.50    3.20
  -4  -1   2   14.70    3.10
   4   1  -2   16.30    3.30
  -4   1   2   13.00    3.20
   4   1  -2   12.20    3.10
  -4   1   2   16.20    3.10
  -4   1   2    8.30    2.70
   4   1  -2    8.90    3.70
   4   1  -2   15.10    4.90
  -4   1   2   16.90    2.40
   4   1  -2    7.90    2.70
  -4   1   2   11.70    4.50
  -3  -1   2  861.01   27.70
   3  -1  -2  843.32   27.10
  -3  -1   2  835.02   27.50
  -3  -1   2  807.12   27.50
   3  -1  -2  849.12   27.20
   3  -1  -2  900.21   28.70
   3  -1  -2  842.12   27.10
  -3  -1   2  869.81   27.50
   3  -1  -2  867.41   27.20
  -3   1   2  843.12   27.30
   3   1  -2  873.71   27.50
  -3   1   2  869.31   26.80
  -3   1   2  890.91   27.30
   3   1  -2  760.32   28.30
   3   1  -2  845.02   27.60
  -3   1   2  795.62   28.40
   3   1  -2  769.92   27.60
   3   1  -2  807.92   27.30
  -3   1   2  842.12   26.80
  -2  -1   2  753.82   23.20
   2  -1  -2  717.43   22.70
   2  -1  -2  713.43   22.80
   2  -1  -2  748.23   24.80
   2  -1  -2  689.73   22.70
  -2  -1   2  728.03   23.30
  -2  -1   2  700.33   23.20
  -2  -1   2  716.13   23.10
   2  -1  -2  704.13   24.00
   2  -1  -2  714.33   22.90
  -2   1   2  703.83   22.40
   2   1  -2  673.93   24.50
   2   1  -2  778.62   23.10
   2   1  -2  725.03   23.30
  -2   1   2  693.53   23.90
   2   1  -2  695.13   23.00
  -2   1   2  716.53   22.40
   2   1  -2  705.03   23.30
  -2   1   2  712.23   22.90
  -2   1   2  715.03   22.90
  -1  -1   2 6307.97  198.58
   1  -1  -2 6357.46  198.68
  -1   1   2 6482.65  197.58
   0  -1  -2 1152.48   37.70
   0  -1   2 1139.69   35.60
   0  -1  -2 1123.29   35.60
   0  -1   2 1189.98   37.80
   0  -1  -2 1138.69   35.70
   0  -1  -2  975.90   35.70
   0  -1  -2 1161.08   35.60
   0  -1   2 1136.89   35.60
   0  -1  -2 1194.98   36.20
   0   1   2 1099.59   35.70
   0   1  -2 1146.69   37.80
   0   1  -2 1242.68   36.20
   0   1   2 1204.68   36.40
   0   1  -2 1159.18   35.70
  -1  -1  -2  156.68    5.80
  -1  -1  -2  154.08    5.90
   1  -1   2  146.59    9.00
   1  -1   2  166.18    7.20
   1  -1   2  137.59    5.50
   1  -1   2  162.18    5.30
  -1  -1  -2  170.08    6.10
  -1  -1  -2  156.08    6.00
   1  -1   2  164.08    5.50
   1  -1   2  160.58    5.40
   1   1   2  159.28    5.70
  -1   1  -2  161.18    5.50
   1   1   2  165.88    5.80
  -1   1  -2  155.98    7.70
  -1   1  -2  154.48    8.80
   1   1   2  162.88    6.00
   1   1   2  159.08    6.00
  -2  -1  -2   75.69    4.50
  -2  -1  -2   70.09    4.00
   2  -1   2   71.49    5.40
  -2  -1  -2   75.79    4.30
   2  -1   2   72.79    3.50
   2  -1   2   72.09    3.70
  -2  -1  -2   70.69    4.10
  -2  -1  -2   65.59    7.00
   2  -1   2   73.79    3.70
   2  -1   2   71.39    3.60
   2  -1   2   69.29    7.30
  -2   1  -2   77.39    6.20
  -2   1  -2   77.19    6.70
  -2   1  -2   73.19    3.80
   2   1   2   73.69    4.50
  -2   1  -2   78.79    3.20
  -2   1  -2   74.99    3.20
   2   1   2   76.59    4.30
  -2   1  -2   75.19    3.80
   2   1   2   70.59    4.10
   2   1   2   72.99    4.10
  -3  -1  -2   35.90    3.80
  -3  -1  -2   24.70    2.90
   3  -1   2   25.50    3.30
   3  -1   2   23.40    2.60
   3  -1   2   26.40    3.10
  -3  -1  -2   20.00    5.40
   3  -1   2   26.20    2.70
   3  -1   2   36.80    4.90
  -3  -1  -2   28.00    3.60
  -3  -1  -2   31.80    3.50
   3   1   2   22.50    3.40
  -3   1  -2   39.00    5.80
  -3   1  -2   32.20    2.90
  -3   1  -2   21.60    2.80
  -3   1  -2   22.90    4.60
  -3   1  -2   22.00    2.90
   3   1   2   27.30    3.40
   3   1   2   19.60    2.90
   3   1   2   26.40    2.90
  -3   1  -2   26.10    2.50
  -4  -1  -2  287.17   11.50
   4  -1   2  280.47   10.90
  -4  -1  -2  248.68   12.20
  -4  -1  -2  294.37   11.80
  -4  -1  -2  292.27   11.50
   4  -1   2  288.77   11.10
  -4  -1  -2  276.07   11.50
   4  -1   2  291.67   11.00
   4  -1   2  288.27   12.80
   4  -1   2  304.57   11.10
  -4   1  -2  287.37   11.20
   4   1   2  296.07   11.40
   4   1   2  300.07   11.90
  -4   1  -2  311.37   10.70
  -4   1  -2  290.37   11.30
   4   1   2  292.77   11.80
  -4   1  -2  294.67   12.00
  -4   1  -2  296.87   12.80
   4   1   2  290.77   11.60
  -5  -1  -2    9.50    4.10
   5  -1   2    4.30    2.80
  -5  -1  -2    6.60    4.10
  -5  -1  -2    8.90    3.50
   5  -1   2    9.10    3.30
  -5  -1  -2    5.70    3.60
   5  -1   2    6.90    2.90
   5  -1   2    3.40    3.20
   5   1   2   10.00    3.90
  -5   1  -2   11.70    5.00
   5   1   2   10.00    4.00
   5   1   2   12.80    4.20
  -5   1  -2    4.70    3.40
   5   1   2   10.00    3.40
  -5   1  -2    5.20    3.40
  -5   1  -2    7.70    2.80
  -5   1  -2   12.90    3.80
   6  -1   2   11.90    4.10
  -6  -1  -2   14.40    4.30
  -6  -1  -2    9.10    5.00
   6  -1   2   10.40    4.30
  -6  -1  -2   12.40    5.00
   6  -1   2   10.40    4.20
   6  -1   2   11.70    4.30
  -6  -1  -2   13.50    4.70
  -6   1  -2   19.90    5.00
  -6   1  -2    8.40    4.30
   6   1   2   16.00    5.90
   6   1   2   13.30    4.80
   6   1   2   18.00    4.90
  -6   1  -2   17.00    3.80
  -6   1  -2   14.70    4.20
  -6   1  -2   13.60    5.70
   6   1   2   14.60    4.80
  -7  -1  -2   26.20    6.80
  -7  -1  -2   16.00    6.30
   7  -1   2   24.90    5.60
   7  -1   2   24.30    5.00
  -7  -1  -2   29.50    7.10
   7  -1   2   18.40    4.40
  -7  -1  -2   28.10    6.20
   7  -1   2   19.40    4.40
  -7   1  -2   11.70    5.90
   7   1   2   28.30    5.90
  -7   1  -2   27.60    5.80
  -7   1  -2   35.20    6.60
   7   1   2   23.30    6.10
   7   1   2   27.70    7.10
  -7   1  -2   22.60    4.90
  -8  -1  -2   11.20    7.00
   8  -1   2   -1.20    4.90
  -8  -1  -2   11.30    6.60
  -8  -1  -2    9.50    7.60
  -8  -1  -2    8.00    7.60
   8  -1   2   10.40    5.30
  -8  -1  -2    3.30    8.00
   8  -1   2    7.50    6.20
   8  -1   2    1.30    5.90
  -8   1  -2    3.00    7.00
  -8   1  -2    1.50    6.10
   8   1   2   11.00    7.50
   8   1   2   -7.20    6.40
   8   1   2    5.90    6.90
  -8   1  -2    8.60    7.20
  -8   1  -2    4.30    5.10
   8   1   2    9.40    7.60
   8  -2  -2  121.89   10.20
  -8  -2   2   80.39    9.80
   8  -2  -2  101.39    8.70
   8  -2  -2  127.79   11.10
  -8  -2   2  135.49   12.80
  -8  -2   2  106.09   11.70
  -8  -2   2   96.29    9.90
   8  -2  -2  108.39    9.20
   8   2  -2   96.49   11.50
  -8   2   2  112.29   13.80
   8   2  -2  124.39   12.30
  -8   2   2  105.49   10.80
   8   2  -2  135.19   12.30
  -8   2   2  125.59   11.20
   8   2  -2   99.89   12.30
   7  -2  -2   28.70    5.50
   7  -2  -2   26.70    5.00
  -7  -2   2   23.00    6.90
   7  -2  -2   23.00    3.90
  -7  -2   2   30.80    6.60
   7  -2  -2   18.80    4.80
  -7  -2   2   32.90    5.60
  -7  -2   2   24.40    6.70
  -7   2   2   21.80    3.50
  -7   2   2   18.90    3.00
  -7   2   2   32.80    9.60
  -7   2   2   23.10    5.30
   7   2  -2   23.20    5.60
   7   2  -2   12.80    6.30
   7   2  -2    2.30    6.00
   6  -2  -2  180.58    9.50
   6  -2  -2  171.88    8.70
  -6  -2   2  169.08   10.40
  -6  -2   2  172.08    9.60
  -6  -2   2  162.38    9.70
   6  -2  -2  172.88    9.40
  -6  -2   2  161.18   10.50
   6  -2  -2  177.28    8.00
   6   2  -2  173.58    9.80
  -6   2   2  147.09   12.80
  -6   2   2  174.98    9.80
  -6   2   2  171.28    6.50
   6   2  -2  172.18   10.20
   6   2  -2  156.48   10.30
  -6   2   2  182.18    9.20
  -6   2   2  163.88    6.70
   5  -2  -2   44.50    3.90
   5  -2  -2   46.90    4.70
  -5  -2   2   56.49    6.80
  -5  -2   2   59.99    6.00
  -5  -2   2   49.80    6.30
  -5  -2   2   48.70    5.70
   5  -2  -2   52.19    5.30
   5  -2  -2   40.30    5.20
  -5   2   2   46.30    5.60
   5   2  -2   46.70    5.80
   5   2  -2   43.50    5.40
   5   2  -2   52.09    7.30
   5   2  -2   57.49    6.90
   5   2  -2   52.79    6.40
  -5   2   2   61.29    8.50
  -5   2   2   47.10    5.50
   4  -2  -2    9.20    2.40
   4  -2  -2   11.00    2.10
   4  -2  -2   12.10    2.70
   4  -2  -2   15.20    5.30
  -4  -2   2   12.80    3.10
   4  -2  -2   12.70    2.30
  -4  -2   2    6.40    2.90
  -4  -2   2   10.60    3.40
  -4  -2   2    7.60    3.00
   4   2  -2   15.50    4.20
   4   2  -2   18.60    3.10
  -4   2   2   11.40    2.80
   4   2  -2   11.60    3.70
   4   2  -2   19.30    5.70
  -4   2   2    9.40    2.90
   4   2  -2   14.70    3.20
  -4   2   2   16.00    5.80
  -3  -2   2   13.20    2.80
  -3  -2   2    8.10    2.60
   3  -2  -2    7.00    1.70
   3  -2  -2    3.80    2.20
  -3  -2   2    8.80    2.60
   3  -2  -2    6.00    2.00
   3  -2  -2    6.20    1.60
   3  -2  -2    6.50    3.90
  -3  -2   2   11.20    2.50
   3   2  -2    9.20    2.30
  -3   2   2   -2.70    3.00
   3   2  -2    8.00    3.00
   3   2  -2    9.50    2.10
  -3   2   2   12.40    5.10
   3   2  -2    7.40    3.30
   3   2  -2   10.40    5.70
   2  -2  -2   57.59    2.50
   2  -2  -2   57.99    2.80
  -2  -2   2   53.89    3.70
  -2  -2   2   54.59    3.90
  -2  -2   2   59.39    3.90
  -2  -2   2   56.99    4.10
   2  -2  -2   64.59    6.00
   2  -2  -2   57.69    2.70
   2  -2  -2   60.79    2.50
   2   2  -2   65.89    5.30
  -2   2   2   59.49    5.20
   2   2  -2   54.89    8.30
   2   2  -2   60.89    3.00
  -2   2   2   59.59    2.90
   2   2  -2   55.59    4.20
   2   2  -2   58.79    2.70
   2   2  -2   57.69    4.50
  -2   2   2   69.99    7.10
  -2   2   2   54.09    2.90
   1  -2  -2   50.09    5.10
  -1  -2   2   49.30    2.90
  -1  -2   2   50.79    2.80
  -1  -2   2   50.89    3.50
  -1  -2   2   50.99    3.10
   1   2  -2   43.10    8.20
   1   2  -2   50.59    4.80
  -1   2   2   50.89    4.60
   1   2  -2   45.30    3.10
   0  -2  -2  256.27    8.30
   0  -2  -2  255.47    8.30
   0  -2   2  270.37   11.20
   0  -2  -2  253.87    8.30
   0  -2  -2  274.37   10.40
   0  -2  -2  255.27    8.40
   0   2   2  251.97   13.30
   0   2  -2  255.97   10.00
   0   2   2  264.27    8.50
   0   2  -2  249.88    8.40
   0   2  -2  247.78   13.30
   0   2   2  257.07    8.50
   0   2  -2  256.47    8.40
   0   2   2  257.87   10.50
  -1  -2  -2  229.48    8.30
  -1  -2  -2  236.48    8.40
  -1  -2  -2  239.38    8.20
  -1  -2  -2  235.58    8.40
   1  -2   2  244.28   10.80
  -1   2  -2  224.58   12.70
   1   2   2  246.68    8.50
   1   2   2  238.48    9.80
   1   2   2  234.78    8.50
  -1   2  -2  224.18    9.60
   1   2   2  224.68   12.70
   2  -2   2 1515.15   48.40
  -2  -2  -2 1526.65   49.30
   2  -2   2 1563.84   51.09
  -2  -2  -2 1572.24   49.30
   2  -2   2 1566.14   48.50
   2  -2   2 1567.44   48.40
  -2  -2  -2 1549.05   49.30
  -2  -2  -2 1552.84   49.40
   2  -2   2 1523.05   48.50
  -2   2  -2 1551.84   48.60
  -2   2  -2 1581.04   48.60
   2   2   2 1596.44   49.50
  -2   2  -2 1563.74   52.29
   2   2   2 1556.64   48.70
   2   2   2 1539.75   48.70
   2   2   2 1578.24   50.39
   2   2   2 1578.64   49.50
   3  -2   2    3.20    2.40
   3  -2   2   -0.30    1.90
  -3  -2  -2    1.30    2.50
  -3  -2  -2    1.80    2.40
   3  -2   2   -0.50    1.60
   3  -2   2    4.70    4.50
  -3  -2  -2   -0.90    2.30
   3  -2   2    2.70    1.50
  -3  -2  -2    1.90    2.40
  -3   2  -2    4.20    5.80
   3   2   2    0.80    2.90
  -3   2  -2    0.80    2.20
   3   2   2    0.80    2.20
   3   2   2    0.40    3.10
  -3   2  -2    0.00    5.50
   3   2   2    1.80    2.10
  -3   2  -2    1.40    2.00
   4  -2   2  197.28    8.10
  -4  -2  -2  198.18    9.30
   4  -2   2  206.28    8.00
  -4  -2  -2  211.58    9.30
   4  -2   2  204.58   11.90
  -4  -2  -2  201.28    9.50
   4  -2   2  205.48    8.40
  -4  -2  -2  191.08    9.30
   4  -2   2  190.18    8.20
  -4   2  -2  199.48    8.60
  -4   2  -2  199.08    8.50
   4   2   2  204.38    9.80
   4   2   2  209.08    8.90
   4   2   2  199.08    9.70
  -4   2  -2  193.38   12.30
   4   2   2  199.08    8.90
  -4   2  -2  225.28   12.40
   5  -2   2   30.50    3.50
  -5  -2  -2   25.30    4.50
  -5  -2  -2   34.60    5.10
  -5  -2  -2   29.00    4.70
   5  -2   2   28.30    3.90
   5  -2   2   27.90    7.50
   5  -2   2   25.60    3.60
  -5  -2  -2   24.90    4.20
   5  -2   2   24.80    3.80
   5   2   2   30.00    4.60
   5   2   2   23.10    4.30
  -5   2  -2   23.10    4.40
  -5   2  -2   26.70    4.10
   5   2   2   27.20    5.10
  -5   2  -2   24.00    7.40
   5   2   2   30.20    5.20
  -6  -2  -2    3.10    4.30
  -6  -2  -2   -4.30    4.50
  -6  -2  -2   -6.00    5.20
   6  -2   2   -4.60    4.20
   6  -2   2   -1.30    2.70
   6  -2   2   -1.60    3.10
  -6  -2  -2   -4.40    5.00
   6  -2   2    5.10    3.90
   6   2   2   -3.00    4.30
   6   2   2   -2.30    5.60
  -6   2  -2    2.10    1.80
   6   2   2   -1.60    4.40
  -6   2  -2   -1.00    2.10
  -6   2  -2    3.60    3.80
  -6   2  -2    2.30    7.20
  -6   2  -2    3.00    4.50
  -7  -2  -2    1.40    6.20
   7  -2   2    1.60    5.00
  -7  -2  -2    8.10    6.60
  -7  -2  -2    3.90    4.80
   7  -2   2    2.90    4.40
  -7  -2  -2    2.10    5.80
   7  -2   2    1.60    3.70
   7  -2   2   -0.30    4.30
  -7   2  -2   -5.90    4.80
  -7   2  -2    2.50    3.10
   7   2   2    0.00    6.60
  -7   2  -2   -1.00    2.30
   7   2   2   11.70    5.30
  -7   2  -2    4.20    7.90
   7   2   2    4.60    5.90
  -7   2  -2    2.00    5.50
  -8  -2  -2    4.90    4.80
  -8  -2  -2    8.60    5.60
  -8  -2  -2    8.50    8.20
   8  -2   2   11.20    6.20
   8  -2   2    6.10    4.70
   8  -2   2    3.10    5.20
  -8  -2  -2   14.70    7.60
   8  -2   2    3.90    5.40
  -8  -2  -2    3.00    5.70
   8   2   2   22.30    7.40
   8   2   2    4.10    8.30
  -8   2  -2   -0.90    7.20
   8   2   2    3.10    6.40
   8   2   2    3.80    7.30
  -8   2  -2   -1.90    6.40
  -8   2  -2    2.30    9.10
  -8   2  -2    7.10    3.20
  -8   2  -2    1.70    3.70
   7  -3  -2   16.20    5.40
  -7  -3   2    8.00    7.00
  -7  -3   2   15.90    5.20
   7  -3  -2   23.80    5.90
  -7  -3   2   16.80    7.70
   7  -3  -2   17.90    4.60
  -7  -3   2   14.30    5.30
   7   3  -2   19.50    6.00
   7   3  -2   16.90    8.20
   7   3  -2   20.10    5.50
  -7   3   2   12.20    8.70
   7   3  -2   14.60    6.70
   6  -3  -2   60.49    6.90
  -6  -3   2   47.40    7.50
  -6  -3   2   43.20    6.30
  -6  -3   2   48.10    6.20
  -6  -3   2   67.69    8.00
   6  -3  -2   47.20    6.10
   6  -3  -2   55.59    5.30
   6  -3  -2   58.09    7.40
   6   3  -2   64.49    6.80
  -6   3   2   37.90   10.40
   6   3  -2   43.20    7.10
   6   3  -2   52.89    6.80
   6   3  -2   52.89    8.20
  -5  -3   2   51.09    5.70
  -5  -3   2   46.60    5.70
   5  -3  -2   56.19    5.40
  -5  -3   2   52.19    6.20
   5  -3  -2   36.40    4.30
   5  -3  -2   48.20    4.40
  -5  -3   2   54.59    6.40
   5  -3  -2   65.29    6.00
   5  -3  -2   48.80    9.80
   5   3  -2   52.69    5.20
   5   3  -2   54.29    7.20
   5   3  -2   44.20    4.90
  -5   3   2   52.39    5.50
   5   3  -2   78.49   16.80
  -5   3   2   61.09   10.50
  -4  -3   2  204.08    8.80
  -4  -3   2  196.98    9.50
   4  -3  -2  214.08    8.10
   4  -3  -2  219.58   14.00
  -4  -3   2  189.68   10.10
  -4  -3   2  204.58   10.10
   4  -3  -2  196.88    8.50
  -4   3   2  202.58    7.60
  -4   3   2  192.68    7.90
   4   3  -2  212.88   10.50
   4   3  -2  198.58   10.80
   4   3  -2  199.48    9.70
   4   3  -2  200.28    7.60
   4   3  -2  173.08   18.20
   4   3  -2  195.98    7.30
  -4   3   2  203.78   14.80
   3  -3  -2    5.80    2.20
  -3  -3   2    9.80    3.00
   3  -3  -2   -0.90    5.70
   3  -3  -2    5.00    1.40
  -3  -3   2    2.00    2.90
  -3  -3   2    7.20    3.20
   3   3  -2    7.20    3.30
   3   3  -2    2.50    4.20
   3   3  -2   -1.00   11.30
   3   3  -2    6.10    3.80
  -2  -3   2   49.20    3.80
  -2  -3   2   44.20    4.00
  -2  -3   2   42.20    4.30
  -2  -3   2   47.20    4.70
   2  -3  -2   37.80    6.20
   2   3  -2   41.20    4.80
   2   3  -2   46.70   11.60
  -2   3   2   47.30    6.10
   2   3  -2   47.70    4.50
   2   3  -2   44.80    6.00
  -1  -3   2   65.49    3.60
   1  -3  -2   70.79    7.50
  -1  -3   2   66.29    2.90
  -1  -3   2   67.89    4.30
  -1  -3   2   68.69    2.90
   1   3  -2   64.89    3.70
   1   3  -2   65.29    5.90
   1   3  -2   77.79   13.90
   1   3  -2   63.59    3.50
  -1   3   2   66.19    6.40
   0  -3   2   52.99    7.10
   0  -3  -2   54.39    6.60
   0  -3  -2   42.10    2.40
   0  -3   2   46.70    2.40
   0  -3   2   49.99    2.70
   0  -3  -2   48.30    3.30
   0   3  -2   55.19    6.00
   0   3  -2   45.40   11.60
   0   3   2   51.09    5.90
  -1  -3  -2    9.70    2.60
  -1  -3  -2    8.00    1.70
  -1  -3  -2    9.70    4.70
   1  -3   2    7.10    5.80
  -1  -3  -2   10.20    1.70
   1   3   2   11.40    1.90
  -1   3  -2    9.10   10.00
   1   3   2    9.70    4.10
   1   3   2    6.20    2.30
  -1   3  -2    7.90    4.30
  -2  -3  -2  138.59    6.50
  -2  -3  -2  144.89    6.60
   2  -3   2  151.08   11.30
  -2  -3  -2  135.29    6.40
  -2  -3  -2  140.79    7.20
   2   3   2  139.99    8.60
   2   3   2  148.39    7.10
  -2   3  -2  138.59   16.40
   2   3   2  139.79    6.90
   3  -3   2   66.09    9.60
  -3  -3  -2   62.29    4.50
  -3  -3  -2   67.59    5.60
   3  -3   2   71.19    4.30
  -3  -3  -2   64.49    6.10
   3  -3   2   67.69    3.60
  -3  -3  -2   70.89    5.70
   3   3   2   56.69    6.40
   3   3   2   63.99    7.00
  -3   3  -2   93.69   16.20
   3   3   2   63.09    5.80
  -3   3  -2   65.29    2.80
  -4  -3  -2   19.20    4.90
  -4  -3  -2   21.40    3.90
   4  -3   2   24.40    3.20
   4  -3   2   19.50    2.30
   4  -3   2   15.70    7.80
   4  -3   2   18.20    2.60
  -4  -3  -2   16.50    4.10
   4  -3   2   16.70    1.70
  -4  -3  -2   21.10    3.50
   4   3   2   18.10    4.80
   4   3   2   16.80    4.50
   4   3   2   17.40    4.90
  -4   3  -2   40.90   15.60
  -4   3  -2   16.50    2.80
  -4   3  -2   15.70    2.40
   4   3   2   17.30    2.70
   4   3   2   19.40    2.40
  -5  -3  -2    3.40    4.00
  -5  -3  -2    1.60    3.80
   5  -3   2   -2.20    7.80
   5  -3   2    6.90    3.40
   5  -3   2    3.90    3.10
  -5  -3  -2    8.80    4.00
   5  -3   2    2.30    2.90
   5  -3   2   -2.30    2.90
  -5  -3  -2    2.10    4.70
   5   3   2    4.50    3.40
   5   3   2    7.50    3.20
   5   3   2   -3.40    4.80
  -5   3  -2    0.80    3.50
  -5   3  -2   13.00    9.80
  -5   3  -2   -1.20    6.30
  -6  -3  -2    0.10    4.90
  -6  -3  -2   18.20    5.30
   6  -3   2   10.80    4.30
   6  -3   2    6.50    3.40
  -6  -3  -2    9.50    6.20
   6  -3   2    0.20    4.40
   6  -3   2   12.40    4.40
  -6  -3  -2    9.70    5.10
   6  -3   2   15.20   11.00
  -6   3  -2    5.20   10.40
   6   3   2   10.40    7.30
   6   3   2   10.40    6.10
   6   3   2   17.00    5.10
  -6   3  -2    0.40    4.00
   6   3   2    8.60    4.60
   7  -3   2    9.10    5.60
  -7  -3  -2    7.20    4.70
   7   3   2   -5.20    6.10
  -4  -4   2    0.50    3.90
   4  -4  -2    5.40    2.40
   4  -4  -2   13.00   11.00
  -4  -4   2    2.80    4.60
  -4  -4   2   12.30    5.20
   4  -4  -2    0.50    3.00
   4   4  -2    2.30    4.30
   4   4  -2    2.10    5.50
   4   4  -2    3.90    9.30
   4   4  -2   -0.10   12.00
  -3  -4   2    5.30    3.60
   3  -4  -2    2.20    2.30
   3  -4  -2   -7.30    8.00
  -3  -4   2   -1.70    4.90
  -3  -4   2   -0.50    3.80
  -3  -4   2   -0.30    3.00
   3   4  -2    5.10    4.30
   3   4  -2    4.30    5.50
   3   4  -2   -3.60   12.80
   3   4  -2    3.20    4.10
  -2  -4   2   10.50    8.00
  -2  -4   2   -3.00    2.80
  -2  -4   2   -4.70    3.40
   2  -4  -2    5.00    7.00
   2   4  -2    9.40   12.30
   2   4  -2   -2.30    4.80
  -2   4   2    4.50    5.40
   2   4  -2   -7.60    2.80
   2   4  -2    0.20    1.90
  -1  -4   2   -0.10    2.10
  -1  -4   2   -1.60    2.80
   1  -4  -2    2.30    6.40
  -1  -4   2    4.60    7.70
   1   4  -2    0.60   14.10
   1   4  -2   -1.40    5.30
  -1   4   2   -3.40    5.30
   0  -4   2    3.50    1.30
   0  -4  -2    2.40    1.40
   0  -4   2   -9.20    7.10
   0  -4   2    6.30    2.10
   0  -4  -2    2.80    2.50
   0  -4  -2    6.90    6.40
   0   4  -2    7.80   16.10
   0   4  -2    1.50    5.20
   0   4   2    5.50    5.50
  -1  -4  -2  164.48    7.90
   1  -4   2  147.89   14.00
  -1  -4  -2  168.68   11.80
  -1  -4  -2  161.68    6.60
   1   4   2  150.68   10.20
   1   4   2  148.59    5.60
  -1   4  -2  168.98   22.80
  -1   4  -2  136.69   10.20
   2  -4   2   13.30    8.70
  -2  -4  -2   19.70    2.10
  -2  -4  -2   24.80    3.60
  -2  -4  -2   24.70    7.00
  -2  -4  -2   21.30    4.00
  -2  -4  -2   20.70    2.80
   2   4   2   23.60    6.20
   2   4   2   23.90    4.00
  -2   4  -2   35.70   15.00
   3  -4   2    6.70    8.40
   3  -4   2    0.70    2.20
  -3  -4  -2    7.80    4.60
  -3  -4  -2    5.30    7.20
  -3  -4  -2    5.90    4.80
  -3  -4  -2    1.70    3.30
   3   4   2   -1.40    4.20
   3   4   2    0.00    3.70
   3   4   2    2.20    7.40
  -4  -4  -2   61.69    4.30
  -4  -4  -2   46.50    5.40
   4  -4   2   58.09    4.80
  -4  -4  -2   49.50    6.20
   4  -4   2   49.90   11.60
   4  -4   2   41.90    4.70
  -4  -4  -2   62.49    6.70
   4   4   2   46.40    9.70
   4   4   2   48.90    7.50
   9   0  -3    1.70    6.50
   9   0  -3   -0.50    5.10
   9   0  -3   -2.30    6.20
  -9   0   3   -1.10    7.00
   9   0  -3   -2.10    6.20
  -9   0   3    4.10    6.20
  -9   0   3   -2.40    7.30
  -9   0   3    2.30    7.70
  -9   0   3   13.30    8.20
  -8   0   3    2.90    5.60
  -8   0   3   -5.90    5.90
   8   0  -3   -3.70    5.50
  -8   0   3   -6.00    5.50
   8   0  -3    3.70    5.20
   8   0  -3    1.60    6.00
  -8   0   3    8.60    7.10
   8   0  -3    2.70    6.10
   7   0  -3  220.98   11.50
  -7   0   3  210.78   11.20
  -7   0   3  216.88   11.50
   7   0  -3  200.68   11.40
   7   0  -3  194.88   11.40
  -7   0   3  231.18   12.80
  -7   0   3  216.78   12.70
  -7   0   3  219.68   12.30
   7   0  -3  214.28   11.70
   6   0  -3    0.10    4.20
   6   0  -3    0.80    3.70
   6   0  -3    1.10    4.30
  -6   0   3    0.10    4.30
  -6   0   3   -2.40    5.50
   6   0  -3    0.60    4.50
  -6   0   3   -4.90    3.40
  -6   0   3    2.00    3.90
  -6   0   3    4.60    3.80
   5   0  -3  124.89    7.60
   5   0  -3  125.99    7.30
  -5   0   3  119.59    6.90
   5   0  -3  129.59    7.40
  -5   0   3  117.69    7.40
  -5   0   3  112.69    7.30
   5   0  -3  131.79    7.40
  -5   0   3  121.69    7.80
   4   0  -3    0.30    3.00
   4   0  -3    4.80    2.80
   4   0  -3    0.80    2.60
  -4   0   3   -1.80    2.90
   4   0  -3   -2.30    2.80
  -4   0   3   -2.30    2.30
  -4   0   3   -0.60    2.40
  -4   0   3   -1.10    2.90
   3   0  -3 1512.75   46.80
  -3   0   3 1490.45   46.70
  -3   0   3 1470.15   46.50
   3   0  -3 1462.55   46.60
   3   0  -3 1457.25   46.50
  -3   0   3 1461.15   46.70
   3   0  -3 1408.36   46.70
  -3   0   3 1480.95   46.50
  -2   0   3    1.20    2.10
   2   0  -3    0.00    2.00
  -2   0   3   -2.60    2.20
   2   0  -3   -2.20    2.30
  -2   0   3   -0.70    1.90
   2   0  -3   -2.60    1.70
   2   0  -3   -1.50    2.20
  -2   0   3   -2.80    2.10
   1   0  -3  218.98    7.30
  -1   0   3  188.18    7.10
  -1   0   3  216.28    7.20
   1   0  -3  204.88    7.10
   1   0   3 1265.77   41.80
  -1   0  -3 1335.27   41.80
   1   0   3 1376.76   41.90
  -1   0  -3 1341.67   41.90
  -1   0  -3 1382.66   41.90
   1   0   3 1284.17   41.80
   1   0   3 1311.37   41.80
   1   0   3 1438.36   41.90
  -1   0  -3 1265.17   41.80
   2   0   3   -0.40    2.10
   2   0   3   -0.60    2.30
  -2   0  -3   -2.50    1.90
  -2   0  -3    1.80    2.10
  -2   0  -3   -0.80    2.10
   2   0   3    0.60    1.80
   2   0   3   -0.20    2.10
   2   0   3    0.00    2.00
  -2   0  -3    0.70    2.30
  -2   0  -3   -1.60    1.70
   3   0   3   98.29    5.50
   3   0   3   97.59    5.50
  -3   0  -3   94.19    5.70
  -3   0  -3   88.49    5.50
  -3   0  -3   98.99    5.90
  -3   0  -3  100.09    5.60
  -3   0  -3   97.59    5.20
   3   0   3   92.69    5.40
   3   0   3   97.69    5.40
  -4   0  -3    0.10    3.10
   4   0   3    1.40    2.60
  -4   0  -3    0.60    2.80
  -4   0  -3    0.10    2.40
   4   0   3   -0.90    2.60
  -4   0  -3    0.20    2.70
   4   0   3   -1.40    2.50
   4   0   3    3.70    3.00
  -4   0  -3    0.00    2.90
   5   0   3  637.84   22.30
  -5   0  -3  634.04   22.70
  -5   0  -3  621.54   22.00
  -5   0  -3  656.73   22.60
   5   0   3  631.34   22.40
  -5   0  -3  662.73   22.60
   5   0   3  632.94   22.30
   5   0   3  602.34   22.10
  -5   0  -3  615.94   22.10
   6   0   3    1.00    3.80
   6   0   3   -5.30    4.50
  -6   0  -3   -2.90    3.90
  -6   0  -3   -0.50    4.60
  -6   0  -3    3.40    4.30
   6   0   3   -0.80    4.50
   6   0   3   -0.20    3.70
  -6   0  -3   -6.90    4.40
  -6   0  -3   -4.50    4.90
   7   0   3  581.34   22.30
  -7   0  -3  581.14   22.40
   7   0   3  586.14   22.40
  -7   0  -3  621.24   22.50
  -7   0  -3  564.64   22.90
  -7   0  -3  537.55   21.90
   7   0   3  587.04   22.20
  -7   0  -3  581.44   22.30
  -8   0  -3   -4.40    5.60
   8   0   3   -1.30    6.00
   8   0   3   -5.60    6.30
  -8   0  -3   -1.50    7.10
  -8   0  -3    0.40    5.90
  -8   0  -3   -2.30    5.90
  -8   0  -3    4.40    6.30
   8   0   3   -2.00    6.20
   8   0   3   -6.60    5.90
   9   0   3   17.70    8.20
   9   0   3    4.20    7.30
   9   0   3   -1.30    9.90
  -9   0  -3    7.90    8.40
   9   0   3   -1.50    6.00
  -9   0  -3   18.60    8.30
  -9   0  -3    7.70    6.60
  -9   0  -3   10.90    7.90
  -9   0  -3    5.20    6.80
  -9  -1   3   28.00    8.30
   9  -1  -3   15.30    5.40
   9  -1  -3   11.60    7.10
  -9  -1   3   12.40    5.60
  -9  -1   3   31.80    6.50
  -9  -1   3   42.50    8.70
  -9  -1   3   40.60   10.30
   9  -1  -3   11.10    6.20
   9  -1  -3   29.20    5.40
   9   1  -3   18.10    8.80
  -9   1   3   33.60    7.20
   9   1  -3   19.70    6.70
  -9   1   3   25.30    7.40
   9   1  -3   10.60    6.70
   9   1  -3   28.80    8.20
  -9   1   3   27.40    9.10
  -9   1   3   32.20    8.00
  -9   1   3   40.80    6.80
  -8  -1   3  100.29   10.60
   8  -1  -3   79.09    9.10
   8  -1  -3   93.29    8.70
  -8  -1   3   73.19    8.90
   8  -1  -3   72.69    8.80
  -8  -1   3   79.39    8.40
   8  -1  -3   87.69   10.40
  -8   1   3   75.99    9.90
  -8   1   3   79.19   10.10
   8   1  -3   60.79    8.20
   8   1  -3   91.09    9.70
   8   1  -3   87.89   11.10
   8   1  -3  101.89   11.20
  -8   1   3   78.29    8.40
  -8   1   3   93.99    8.40
   7  -1  -3   35.00    5.50
  -7  -1   3   26.70    6.60
  -7  -1   3   28.40    5.50
  -7  -1   3   39.60    7.00
   7  -1  -3   31.40    5.10
   7  -1  -3   32.40    5.00
   7  -1  -3   25.00    5.20
   7   1  -3   22.10    5.70
   7   1  -3   35.30    7.20
  -7   1   3   35.30    5.40
   7   1  -3   24.10    5.90
  -7   1   3   30.40    5.00
  -7   1   3   20.30    6.10
   7   1  -3   16.00    5.30
  -7   1   3   37.50    6.40
   6  -1  -3   -0.70    3.50
   6  -1  -3   -2.50    3.70
   6  -1  -3   -1.80    3.50
  -6  -1   3    3.00    4.00
  -6  -1   3    3.30    4.10
   6  -1  -3   -5.10    3.80
  -6  -1   3    3.70    4.40
  -6  -1   3   -1.60    3.70
  -6   1   3   -0.50    3.10
   6   1  -3    6.90    5.60
  -6   1   3    0.80    4.20
  -6   1   3    1.80    3.60
   6   1  -3    1.10    4.50
  -6   1   3    0.10    3.70
  -6   1   3   -0.20    5.60
   6   1  -3    0.00    4.00
   6   1  -3   -1.30    4.60
   6   1  -3    5.10    4.70
   5  -1  -3    2.70    2.90
   5  -1  -3    6.50    2.90
  -5  -1   3    0.60    3.60
  -5  -1   3    0.70    3.40
  -5  -1   3    5.30    3.20
  -5  -1   3    0.50    3.50
   5  -1  -3    4.50    3.10
   5  -1  -3    1.40    2.50
   5  -1  -3   -1.60    6.40
  -5   1   3    6.40    3.50
  -5   1   3    4.10    4.50
   5   1  -3    2.10    3.50
   5   1  -3    6.40    3.60
  -5   1   3    4.60    3.50
  -5   1   3    1.40    2.30
   5   1  -3    5.20    3.40
   5   1  -3    4.70    3.30
   5   1  -3    5.60    4.60
  -5   1   3    5.60    3.10
   4  -1  -3  153.38    8.90
   4  -1  -3  135.79    6.50
  -4  -1   3  137.59    6.90
  -4  -1   3  145.39    7.20
   4  -1  -3  144.39    6.40
   4  -1  -3  139.49    6.50
   4  -1  -3  127.29    6.50
  -4  -1   3  134.89    7.00
  -4  -1   3  123.89    7.30
  -4   1   3  129.59    8.60
   4   1  -3  119.89    8.00
   4   1  -3  138.29    7.30
   4   1  -3  138.99    6.90
  -4   1   3  140.49    6.80
   4   1  -3  142.29    7.10
   4   1  -3  143.79    7.80
  -4   1   3  136.79    6.10
  -4   1   3  130.59    6.40
  -4   1   3  139.19    7.00
  -3  -1   3    0.80    2.30
   3  -1  -3   -0.10    1.80
  -3  -1   3    3.30    2.30
   3  -1  -3    1.60    5.10
  -3  -1   3   -3.40    2.70
   3  -1  -3   -0.80    2.20
  -3  -1   3    3.30    2.60
   3  -1  -3    3.10    2.10
   3  -1  -3    1.50    2.10
  -3   1   3   -1.10    2.00
  -3   1   3   -1.70    3.90
  -3   1   3    0.50    2.40
   3   1  -3    2.20    2.40
   3   1  -3   -3.60    5.00
  -3   1   3    1.00    2.20
  -3   1   3    2.10    1.60
   3   1  -3    0.40    2.60
   3   1  -3   -0.90    2.10
   3   1  -3    0.00    3.00
   2  -1  -3   65.79    3.30
   2  -1  -3   66.59    3.60
  -2  -1   3   71.29    4.20
   2  -1  -3   69.89    3.40
  -2  -1   3   67.59    4.00
  -2  -1   3   70.89    4.00
   2  -1  -3   73.89    5.20
  -2  -1   3   70.49    4.10
   2  -1  -3   62.79    6.70
   2  -1  -3   65.89    3.50
   2   1  -3   58.39    6.80
  -2   1   3   71.79    3.00
  -2   1   3   65.99    5.30
   2   1  -3   72.49    4.10
  -2   1   3   65.39    3.20
   2   1  -3   68.69    3.80
   2   1  -3   61.59    4.30
  -2   1   3   67.79    3.80
   2   1  -3   70.79    4.00
   1  -1  -3 9999.00  310.17
   0  -1  -3 2389.16   75.49
   0  -1  -3 2576.84   77.39
   0  -1  -3 2363.86   75.39
   0  -1  -3 2385.16   75.49
   0  -1  -3 2545.45   75.69
   0  -1  -3 2340.57   75.29
   0  -1   3 2433.56   75.29
   0  -1   3 2435.76   75.39
   0   1  -3 2530.85   75.69
   0   1  -3 2451.45   77.39
   0   1   3 2402.86   75.49
   0   1  -3 2320.67   75.39
   0   1   3 2473.35   75.99
   1  -1   3   37.10    4.70
   1  -1   3   38.20    2.10
  -1  -1  -3   33.10    3.10
  -1  -1  -3   33.10    2.80
  -1  -1  -3   33.60    5.60
  -1  -1  -3   34.50    2.90
   1  -1   3   36.50    2.40
  -1  -1  -3   36.60    2.70
   1  -1   3   38.80    2.40
   1  -1   3   34.50    2.20
  -1   1  -3   45.70    5.90
   1   1   3   34.90    2.80
   1   1   3   37.50    2.60
  -1   1  -3   33.80    2.40
   1   1   3   36.40    2.70
   1   1   3   35.50    3.00
  -2  -1  -3  206.88    8.30
   2  -1   3  235.68    9.40
   2  -1   3  209.68    7.90
  -2  -1  -3  202.78    8.10
  -2  -1  -3  229.28    8.40
   2  -1   3  216.78    7.80
  -2  -1  -3  216.58    8.30
   2  -1   3  214.78    7.80
  -2  -1  -3  198.68   10.10
  -2   1  -3  219.38    7.90
  -2   1  -3  212.78   10.20
  -2   1  -3  213.98    9.80
  -2   1  -3  220.08    7.40
   2   1   3  211.48    8.10
   2   1   3  221.28    8.40
   2   1   3  219.68    8.50
  -2   1  -3  208.98    7.90
  -2   1  -3  222.38    7.40
   2   1   3  214.18    8.10
  -3  -1  -3   57.69    7.00
  -3  -1  -3   64.89    5.00
   3  -1   3   67.59    4.40
   3  -1   3   62.69    4.00
   3  -1   3   60.79    4.20
  -3  -1  -3   68.79    4.60
  -3  -1  -3   56.39    5.00
   3  -1   3   67.09    6.20
  -3  -1  -3   63.99    4.80
   3  -1   3   67.09    4.30
   3   1   3   66.09    4.70
   3   1   3   65.89    5.00
  -3   1  -3   69.59    4.00
   3   1   3   68.49    4.70
  -3   1  -3   78.79    6.70
   3   1   3   69.19    5.00
  -3   1  -3   72.89    3.90
  -3   1  -3   70.39    4.50
  -3   1  -3   70.19    6.70
  -3   1  -3   70.09    4.60
  -4  -1  -3  392.26   14.40
  -4  -1  -3  378.16   14.30
   4  -1   3  378.96   13.90
  -4  -1  -3  384.66   14.40
   4  -1   3  392.46   14.00
  -4  -1  -3  383.36   14.50
   4  -1   3  409.26   15.80
  -4  -1  -3  321.47   14.80
   4  -1   3  389.76   14.10
   4  -1   3  396.76   13.90
   4   1   3  405.06   14.40
   4   1   3  391.46   14.50
   4   1   3  379.56   14.60
  -4   1  -3  387.16   13.50
  -4   1  -3  364.96   14.00
  -4   1  -3  374.36   13.60
  -4   1  -3  384.26   15.60
  -4   1  -3  428.76   14.80
   4   1   3  382.36   14.40
  -4   1  -3  391.56   14.20
  -5  -1  -3    9.20    3.60
  -5  -1  -3   14.80    4.10
   5  -1   3   15.40    3.50
  -5  -1  -3   14.00    4.10
   5  -1   3   20.60    3.40
   5  -1   3   14.00    3.70
   5  -1   3   15.90    3.40
  -5  -1  -3   10.90    3.60
  -5   1  -3   16.50    3.30
   5   1   3   17.40    4.40
  -5   1  -3   14.20    3.90
  -5   1  -3   12.90    3.70
   5   1   3   21.40    4.90
  -5   1  -3   14.40    4.80
   5   1   3   16.00    3.90
   5   1   3   19.10    3.70
  -6  -1  -3  788.92   28.30
   6  -1   3  762.32   27.60
  -6  -1  -3  785.62   28.20
  -6  -1  -3  794.22   28.20
   6  -1   3  797.12   27.50
  -6  -1  -3  781.42   27.90
   6  -1   3  788.42   27.50
  -6  -1  -3  782.72   27.90
   6  -1   3  801.22   27.60
   6   1   3  831.22   27.90
   6   1   3  770.62   28.00
  -6   1  -3  821.22   27.80
   6   1   3  712.53   28.50
   6   1   3  818.72   28.20
  -6   1  -3  781.72   27.70
  -6   1  -3  845.02   27.10
  -6   1  -3  767.82   29.30
  -7  -1  -3   73.89    9.00
  -7  -1  -3   65.99    8.70
  -7  -1  -3   66.79    9.80
   7  -1   3   77.29    7.30
   7  -1   3   71.89    7.70
  -7  -1  -3   84.89    9.70
   7  -1   3   64.59    6.70
   7  -1   3   76.19    7.50
  -7   1  -3   75.69    7.80
   7   1   3   80.59    8.30
   7   1   3   78.59    9.80
   7   1   3   63.79    8.00
  -7   1  -3   69.79    9.10
  -7   1  -3   73.19    8.80
   8  -1   3   15.50    6.00
  -8  -1  -3   14.10    6.90
  -8  -1  -3   10.10    7.50
   8  -1   3   24.40    6.50
  -8  -1  -3   16.40    7.50
   8  -1   3   16.20    5.80
  -8  -1  -3    8.40    7.10
   8  -1   3    5.10    5.30
  -8  -1  -3   13.10    6.70
  -8   1  -3   16.30    6.10
   8   1   3   19.20    6.90
  -8   1  -3    8.90    7.30
   8   1   3   16.00    7.60
   8   1   3    9.50    7.40
  -8   1  -3   15.60    5.60
   8   1   3   19.70    7.10
  -8   1  -3    7.60    7.70
  -8  -2   3   82.09    8.90
   8  -2  -3   81.09   10.00
   8  -2  -3   88.69   10.70
   8  -2  -3   87.69    8.20
  -8  -2   3   83.59    9.50
  -8  -2   3  101.49    9.90
   8  -2  -3   81.49    8.30
  -8  -2   3   85.39   10.20
   8   2  -3   89.89   10.30
  -8   2   3   67.39   10.80
  -8   2   3   91.09    9.30
   8   2  -3  100.39   11.50
   8   2  -3   91.59   10.20
  -8   2   3   92.29   10.00
   8   2  -3   59.59    8.60
   7  -2  -3    6.30    4.30
   7  -2  -3    5.00    4.80
   7  -2  -3   -1.90    3.90
  -7  -2   3   10.50    4.90
  -7  -2   3   10.90    6.20
  -7  -2   3    7.60    5.90
  -7  -2   3   -6.50    5.00
   7  -2  -3    5.00    3.50
  -7   2   3    3.70    2.90
  -7   2   3    5.20    7.20
   7   2  -3   15.10    7.00
   7   2  -3    5.00    5.40
   7   2  -3   -1.60    4.90
  -7   2   3    4.60    2.50
  -7   2   3    1.60    4.80
   6  -2  -3  192.38   10.20
  -6  -2   3  201.38   11.20
  -6  -2   3  217.08   11.60
   6  -2  -3  217.98    9.10
   6  -2  -3  200.88    9.40
  -6  -2   3  209.68   10.70
  -6  -2   3  230.98   11.50
   6  -2  -3  220.88   10.40
  -6   2   3  198.78   13.80
  -6   2   3  208.68   10.70
   6   2  -3  198.78   12.30
   6   2  -3  187.38   11.30
   6   2  -3  217.88   11.30
  -6   2   3  198.98    7.60
  -6   2   3  199.38   10.10
  -6   2   3  192.38    7.80
   6   2  -3  227.68   10.80
  -5  -2   3  182.48    9.70
  -5  -2   3  160.68    9.80
   5  -2  -3  173.78    7.50
   5  -2  -3  175.88    8.40
   5  -2  -3  177.88    8.40
  -5  -2   3  168.98    9.70
   5  -2  -3  178.98    8.10
  -5  -2   3  189.08    9.50
   5   2  -3  166.98    9.20
  -5   2   3  183.38    8.70
   5   2  -3  177.78    9.40
   5   2  -3  169.78   10.90
  -5   2   3  190.58    8.90
   5   2  -3  180.48   10.10
  -5   2   3  184.68   12.30
   5   2  -3  194.58    9.10
   4  -2  -3   11.10    2.50
   4  -2  -3   12.70    5.40
  -4  -2   3    9.10    3.00
   4  -2  -3    9.00    2.50
   4  -2  -3   13.20    2.40
  -4  -2   3    8.60    2.90
   4  -2  -3   12.10    2.10
  -4  -2   3    5.10    3.30
  -4  -2   3   12.10    3.10
  -4   2   3   12.90    2.80
   4   2  -3   14.50    6.00
   4   2  -3   11.10    3.10
   4   2  -3   12.50    4.20
  -4   2   3    7.10    5.30
  -4   2   3   10.10    2.80
   4   2  -3   11.70    3.80
   4   2  -3   12.80    2.90
   3  -2  -3  240.28    8.70
   3  -2  -3  236.08    8.80
   3  -2  -3  236.38   11.40
  -3  -2   3  238.08    9.50
   3  -2  -3  243.98    8.50
  -3  -2   3  231.18    9.30
  -3  -2   3  231.38    9.50
  -3  -2   3  231.98    9.40
   3  -2  -3  237.78    8.50
   3   2  -3  236.18   12.70
  -3   2   3  245.28    8.70
   3   2  -3  227.28    8.80
   3   2  -3  232.58    9.90
  -3   2   3  247.78   12.00
   3   2  -3  245.68    9.70
   3   2  -3  238.98    9.00
   2  -2  -3  597.54   19.30
   2  -2  -3  594.94   19.20
   2  -2  -3  608.74   19.20
   2  -2  -3  615.74   21.50
  -2  -2   3  595.14   20.00
   2  -2  -3  607.94   19.10
  -2  -2   3  609.64   20.10
  -2  -2   3  608.34   20.00
   2   2  -3  612.44   21.00
   2   2  -3  614.04   19.20
  -2   2   3  608.24   19.40
  -2   2   3  602.44   21.10
  -2   2   3  607.44   19.40
   2   2  -3  624.34   20.30
   2   2  -3  565.64   23.60
   2   2  -3  605.84   20.20
   2   2  -3  589.04   19.20
  -2   2   3  639.74   21.90
  -1  -2   3  981.10   30.70
   1  -2  -3  968.70   32.00
  -1  -2   3  968.10   30.70
  -1  -2   3  970.00   30.70
   1   2  -3  956.10   34.60
   1   2  -3  983.40   31.80
  -1   2   3  963.80   32.10
   1   2  -3  963.70   30.80
  -1   2   3  995.10   30.30
  -1   2   3  948.51   30.30
   0  -2   3    0.50    0.80
   0  -2   3    1.00    0.80
   0  -2   3    1.10    1.00
   0  -2  -3    0.10    1.30
   0  -2   3    0.40    0.80
   0  -2  -3   -0.50    1.00
   0  -2  -3   -0.20    2.40
   0  -2  -3   -0.20    1.00
   0  -2  -3    0.20    1.30
   0   2  -3    1.10    1.10
   0   2   3    0.60    1.30
   0   2   3   -1.20    3.10
   0   2   3   -0.60    1.20
   0   2  -3   -1.30    2.90
   0   2  -3   -1.00    1.10
   0   2  -3    6.50    5.90
  -1  -2  -3    3.60    1.30
  -1  -2  -3    4.20    1.70
  -1  -2  -3    3.90    1.70
  -1  -2  -3    5.00    1.90
   1  -2   3    4.20    4.10
   1   2   3    3.10    1.70
  -1   2  -3    5.00    1.10
  -1   2  -3    4.60    3.10
   1   2   3    3.30    2.10
  -1   2  -3    4.00    1.00
  -1   2  -3    6.10    5.80
   1   2   3   -0.80    3.30
   2  -2   3   -2.00    3.90
  -2  -2  -3    2.30    1.80
   2  -2   3    1.30    1.40
   2  -2   3    2.70    1.50
  -2  -2  -3    2.50    2.10
   2  -2   3    4.00    1.30
  -2  -2  -3   -1.30    1.90
  -2  -2  -3    0.00    1.90
   2   2   3    2.40    1.70
   2   2   3    1.70    1.50
   2   2   3   -1.70    2.40
  -2   2  -3   15.20    5.40
   2   2   3   -2.20    2.20
  -2   2  -3   -0.30    1.50
   2   2   3    6.50    3.50
  -2   2  -3    2.60    1.40
  -3  -2  -3    1.70    2.30
   3  -2   3    0.00    1.90
   3  -2   3    0.40    1.50
   3  -2   3    1.80    2.10
  -3  -2  -3    9.10    2.70
  -3  -2  -3   -1.00    2.40
   3  -2   3    0.10    1.70
   3  -2   3    4.80    4.40
  -3  -2  -3    0.60    2.40
   3   2   3    1.90    3.00
   3   2   3   -1.20    2.50
  -3   2  -3   -2.60    2.30
   3   2   3   -0.80    2.00
   3   2   3   -0.20    2.20
  -3   2  -3    2.50    5.90
  -3   2  -3   -2.90    5.00
  -3   2  -3   -0.30    2.10
   4  -2   3   92.19    5.00
   4  -2   3   93.49    5.30
   4  -2   3   88.09    5.10
   4  -2   3   88.99    5.50
  -4  -2  -3   84.79    6.20
  -4  -2  -3   87.59    6.50
   4  -2   3   75.89    8.80
  -4  -2  -3   98.29    6.40
  -4  -2  -3   89.79    6.60
   4   2   3   87.99    5.90
   4   2   3   85.69    7.10
  -4   2  -3   94.89    5.90
  -4   2  -3   93.99   10.10
   4   2   3   90.89    6.10
   4   2   3   97.19    6.60
  -4   2  -3  104.49    9.50
  -4   2  -3   97.09    5.70
   5  -2   3   29.60    7.40
  -5  -2  -3   39.10    5.00
   5  -2   3   34.70    4.00
   5  -2   3   41.40    5.00
   5  -2   3   27.40    3.50
  -5  -2  -3   36.80    4.80
  -5  -2  -3   29.30    4.50
   5  -2   3   31.00    3.90
  -5  -2  -3   29.70    5.30
  -5   2  -3   36.40    7.60
  -5   2  -3   32.20    4.60
   5   2   3   29.80    5.30
  -5   2  -3   34.40    4.30
   5   2   3   28.30    4.40
   5   2   3   36.50    4.90
  -5   2  -3   31.50    2.10
   5   2   3   26.60    5.50
   6  -2   3    2.20    4.20
  -6  -2  -3    6.00    5.00
  -6  -2  -3   -1.50    4.80
   6  -2   3    0.10    2.60
  -6  -2  -3   -0.70    4.50
  -6  -2  -3    5.10    3.80
   6  -2   3    0.30    3.30
   6  -2   3   -1.30    3.70
  -6   2  -3   -3.40    4.50
  -6   2  -3   -0.50    4.00
  -6   2  -3    1.40    2.20
   6   2   3    0.50    4.70
   6   2   3   -9.10    4.00
   6   2   3   -3.50    5.40
  -6   2  -3    2.10    2.00
  -6   2  -3   15.50    7.30
  -7  -2  -3  169.88   10.80
   7  -2   3  162.08   10.10
  -7  -2  -3  159.78   11.10
   7  -2   3  172.18    8.90
  -7  -2  -3  185.18   12.80
   7  -2   3  187.08   11.20
   7  -2   3  164.28    9.60
  -7  -2  -3  154.08   12.20
  -7   2  -3  154.38    7.70
   7   2   3  173.98   12.40
  -7   2  -3  146.99   13.90
   7   2   3  151.78   11.20
   7   2   3  167.08   12.90
  -7   2  -3  174.68   10.50
  -7   2  -3  162.18   11.20
   8  -2   3   88.99    9.70
  -8  -2  -3   97.99   10.90
   8  -2   3   83.59   10.70
  -8  -2  -3  100.29   10.70
  -8  -2  -3   62.39    7.90
   8  -2   3   89.29    8.20
  -8  -2  -3   61.09    7.20
  -8  -2  -3   81.19    9.30
   8  -2   3   80.59    7.50
   8   2   3   64.09    8.60
   8   2   3   84.89    9.90
   8   2   3  104.09   11.20
  -8   2  -3   93.99    9.70
  -8   2  -3   70.69    8.10
  -8   2  -3   89.59   11.90
   8   2   3   66.49   10.10
  -7  -3   3   14.80    5.30
  -7  -3   3   17.60    5.30
  -7  -3   3   20.80    7.70
  -7  -3   3   22.70    7.20
   7  -3  -3   17.00    5.80
   7  -3  -3   15.60    5.50
   7  -3  -3   11.00    4.50
  -7   3   3   13.90   10.50
   7   3  -3    7.70    5.80
   7   3  -3   13.70    7.70
  -7   3   3    0.00    4.10
  -7   3   3   37.40    6.70
   7   3  -3   11.90    5.50
   7   3  -3    9.60    6.10
   6  -3  -3   47.70    6.10
  -6  -3   3   60.59    7.90
  -6  -3   3   55.79    6.20
  -6  -3   3   59.99    7.70
   6  -3  -3   60.09    6.30
  -6  -3   3   55.29    6.60
   6  -3  -3   62.09    7.30
   6  -3  -3   51.99    5.40
   6   3  -3   56.89    5.80
   6   3  -3   31.10   16.30
  -6   3   3   43.30   12.10
   6   3  -3   55.59    7.90
   6   3  -3   61.49    6.90
   6   3  -3   69.89    8.90
   5  -3  -3  191.98    8.70
  -5  -3   3  184.48    9.80
   5  -3  -3  186.58    7.80
  -5  -3   3  190.38   10.90
   5  -3  -3  196.18    9.20
  -5  -3   3  181.08    9.50
   5  -3  -3  184.98    7.90
  -5  -3   3  190.18   10.30
  -5   3   3  190.38    8.80
   5   3  -3  182.58   19.40
   5   3  -3  190.68    8.60
   5   3  -3  195.58   10.70
  -5   3   3  201.98   16.00
   5   3  -3  193.28    8.30
   4  -3  -3   -2.00    6.90
  -4  -3   3    9.10    3.90
   4  -3  -3    2.00    2.00
  -4  -3   3    0.80    3.30
  -4  -3   3   -4.80    3.80
   4  -3  -3   -0.30    2.80
  -4   3   3    0.50    1.90
   4   3  -3    9.60    4.60
   4   3  -3   12.50   11.60
   4   3  -3    0.10    4.40
  -4   3   3    3.70    8.00
   4   3  -3    2.90    3.70
  -4   3   3   -3.10    2.30
   4   3  -3    4.00    1.60
   4   3  -3    3.50    2.00
   3  -3  -3   31.80    3.50
  -3  -3   3   48.30    5.20
  -3  -3   3   36.70    3.90
  -3  -3   3   29.10    3.30
  -3  -3   3   38.10    4.20
   3  -3  -3   38.30    7.00
   3  -3  -3   34.50    2.60
  -3   3   3   26.70    2.20
   3   3  -3   49.80   13.10
   3   3  -3   36.80    4.20
  -3   3   3   30.20    8.80
   3   3  -3   34.20    5.10
   3   3  -3   30.30    4.60
  -3   3   3   33.60    2.00
  -2  -3   3    5.70    2.70
   2  -3  -3    0.40    4.70
   2  -3  -3    1.40    1.40
  -2  -3   3   -0.30    3.30
  -2  -3   3    4.80    2.20
  -2  -3   3    5.60    2.30
   2   3  -3   -0.70    2.60
  -2   3   3    3.70    4.10
   2   3  -3   12.70   10.40
   2   3  -3    3.10    2.90
   2   3  -3    0.40    3.80
  -1  -3   3   13.20    1.50
  -1  -3   3   13.10    1.60
   1  -3  -3   19.70    4.70
  -1  -3   3   14.30    1.90
  -1  -3   3   16.70    2.50
   1   3  -3   15.00    2.20
   1   3  -3   20.50    4.60
   1   3  -3   14.00    1.90
   1   3  -3   16.30   11.30
  -1   3   3   18.50    4.40
   0  -3  -3   25.50    2.10
   0  -3  -3   25.50    3.30
   0  -3   3   28.10    2.00
   0  -3   3   26.90    2.60
   0  -3   3   29.80    6.50
   0  -3  -3   36.70    5.10
   0   3   3   26.70    1.80
   0   3  -3   33.80   11.10
   0   3   3   29.90    2.20
   0   3   3   32.70    4.90
   0   3  -3   28.20    4.90
  -1  -3  -3  154.28    8.60
  -1  -3  -3  146.89    5.70
  -1  -3  -3  151.28    6.80
  -1  -3  -3  141.39    5.90
  -1  -3  -3  142.59    5.90
   1  -3   3  165.88   11.50
   1   3   3  136.49    7.30
   1   3   3  144.59    8.20
  -1   3  -3  157.88   15.80
   1   3   3  149.88    6.50
  -1   3  -3  136.79    8.30
  -2  -3  -3    2.10    2.20
   2  -3   3   -0.50    1.60
  -2  -3  -3    3.00    2.80
  -2  -3  -3   -1.90    2.10
   2  -3   3    1.20    1.00
   2  -3   3    2.90    6.10
  -2  -3  -3    1.20    2.20
   2   3   3    0.20    4.20
   2   3   3    0.00    2.90
   2   3   3    2.70    2.90
  -2   3  -3    2.00   10.50
   3  -3   3   10.80    6.90
  -3  -3  -3   12.50    2.50
  -3  -3  -3    7.80    3.40
  -3  -3  -3    7.60    3.50
  -3  -3  -3   13.50    3.30
   3  -3   3   12.70    2.50
   3  -3   3    9.20    2.00
  -3   3  -3    6.10   12.20
  -3   3  -3   10.80    1.40
   3   3   3   12.20    3.50
   3   3   3   15.20    4.60
  -3   3  -3   11.90    1.80
   3   3   3    8.70    4.00
   4  -3   3    4.10    2.70
   4  -3   3    8.20    7.40
  -4  -3  -3    3.20    3.80
  -4  -3  -3    4.60    4.40
  -4  -3  -3   -0.40    2.80
  -4  -3  -3   -2.20    3.20
   4  -3   3    4.30    1.80
   4  -3   3    2.00    1.70
   4  -3   3    1.90    2.30
   4   3   3    6.10    2.20
   4   3   3    0.70    4.70
  -4   3  -3    5.20    1.90
  -4   3  -3    0.20    2.60
   4   3   3    1.10    4.40
   4   3   3    7.00    2.60
  -4   3  -3    6.80   15.60
   4   3   3    0.70    4.00
   5  -3   3  122.69    7.00
  -5  -3  -3  133.19    8.10
  -5  -3  -3  129.39    8.30
  -5  -3  -3  116.49    9.80
   5  -3   3  119.89    6.50
   5  -3   3  117.79    6.50
  -5  -3  -3  124.99    8.80
   5  -3   3  115.39   14.00
   5  -3   3  130.29    7.60
   5   3   3  136.69    9.20
  -5   3  -3  118.49    7.50
  -5   3  -3   93.59   13.60
   5   3   3  104.19   11.80
   5   3   3  110.09    7.10
   5   3   3  131.09    7.20
   5   3   3  111.99    8.90
  -6  -3  -3    6.50    5.50
   6  -3   3    6.70    3.50
  -6  -3  -3    6.00    5.40
   6  -3   3   14.30    4.80
  -6  -3  -3   13.30    6.00
  -6  -3  -3    1.80    6.30
   6  -3   3   12.90   11.10
   6  -3   3    4.10    3.30
   6  -3   3    4.90    4.40
   6   3   3    9.90    4.80
  -6   3  -3   -4.90    4.10
   6   3   3   12.10    6.90
   6   3   3   11.50    4.70
   6   3   3   15.30    6.70
  -6   3  -3   -4.80    8.20
   4  -4  -3  -21.10    9.70
  -4  -4   3    3.50    5.00
  -4  -4   3    2.80    3.90
   4  -4  -3   -3.00    2.50
  -4  -4   3   -1.80    4.70
   4  -4  -3   -0.20    2.90
   4   4  -3    0.70   14.00
   4   4  -3    1.00    4.40
   4   4  -3    5.80    9.00
   4   4  -3   -7.50    5.40
   3  -4  -3    4.90    2.40
  -3  -4   3   -1.80    4.90
  -3  -4   3   -2.50    3.90
  -3  -4   3    1.80    3.10
   3  -4  -3    6.80    8.40
  -3  -4   3   10.00    3.70
   3  -4  -3    4.50    1.50
   3   4  -3    3.30    5.20
   3   4  -3   -1.70    4.30
   3   4  -3    7.40   13.10
   3   4  -3   -0.10    4.20
   2  -4  -3   -4.20    6.90
  -2  -4   3    7.70    8.30
  -2  -4   3   -1.40    3.00
  -2  -4   3   -4.00    3.40
   2   4  -3   -2.60    5.10
  -2   4   3   -2.30    5.70
   2   4  -3   -0.20    1.90
   2   4  -3    2.20    3.20
   2   4  -3   -1.50   12.30
  -1  -4   3    0.60    2.10
   1  -4  -3   13.30    6.30
  -1  -4   3    8.20    3.10
  -1  -4   3    0.30    7.90
   1  -4  -3    4.00    1.10
   1   4  -3    4.20   12.40
   1   4  -3    5.10    5.00
  -1   4   3    6.40    5.30
   0  -4  -3    3.80    2.70
   0  -4   3    1.80    2.20
   0  -4   3   -4.40    7.70
   0  -4  -3    6.40    1.60
   0  -4  -3   10.90    6.20
   0  -4   3    8.00    1.50
   0   4  -3   -1.90    4.30
   0   4   3    2.80    5.20
   0   4  -3    0.10   13.80
  -1  -4  -3   11.20    6.80
  -1  -4  -3    4.20    2.10
   1  -4   3   -6.10    8.50
  -1  -4  -3    4.30    3.20
   1   4   3    0.80    1.90
  -1   4  -3    3.10    5.50
   1   4   3    4.60    1.40
  -1   4  -3   -2.60   13.50
   1   4   3    3.60    4.70
  -2  -4  -3   72.09   10.10
  -2  -4  -3   83.59    6.90
  -2  -4  -3   72.09    4.10
  -2  -4  -3   75.29    4.30
   2  -4   3   83.89   10.80
  -2  -4  -3   78.59    5.70
   2   4   3   65.59    8.50
   2   4   3   70.29    6.10
  -2   4  -3   71.99   17.60
  -3  -4  -3   54.59    5.70
   3  -4   3   60.79   10.90
  -3  -4  -3   44.80    5.50
  -3  -4  -3   35.30    8.00
  -3  -4  -3   62.89    7.60
   3  -4   3   54.29    4.10
   3   4   3   44.50    9.30
  -3   4  -3   60.79   17.80
  -4  -4  -3   -9.50    5.20
   4  -4   3    6.70    2.70
   4  -4   3   -3.80    9.50
  -4  -4  -3    4.70    5.20
  -4  -4  -3    7.50    4.40
   4  -4   3   -0.30    2.90
   4   4   3    1.90    6.30
   4   4   3    2.40    4.40
   4   4   3   10.50    8.70
   9   0  -4    7.50    5.80
  -9   0   4   -6.10    6.30
   9   0  -4    2.00    7.30
   9   0  -4  -10.00    6.20
  -9   0   4    6.00    7.80
   9   0  -4    2.70    6.40
  -9   0   4   -6.10    7.00
  -9   0   4    3.30    8.40
  -9   0   4  -14.90    7.00
   8   0  -4   62.19    8.10
   8   0  -4   58.99    8.10
   8   0  -4   43.70    6.70
   8   0  -4   59.99    8.10
  -8   0   4   45.90    8.50
  -8   0   4   35.30    6.90
  -8   0   4   47.50    7.00
  -8   0   4   51.59    7.80
   7   0  -4   -6.20    5.10
  -7   0   4    0.20    4.60
  -7   0   4   -9.30    5.00
   7   0  -4   -2.30    4.20
  -7   0   4   -7.80    5.90
  -7   0   4   -3.30    4.10
   7   0  -4   -3.90    5.30
   7   0  -4   -8.30    4.30
  -7   0   4    4.30    5.70
  -6   0   4  253.07   11.70
  -6   0   4  273.57   11.50
   6   0  -4  251.97   11.70
  -6   0   4  264.97   12.10
   6   0  -4  266.37   11.80
   6   0  -4  235.28   12.00
   6   0  -4  214.08   11.30
  -6   0   4  254.67   11.70
   5   0  -4   -5.20    2.70
   5   0  -4   -3.10    3.40
   5   0  -4   -2.80    2.80
   5   0  -4    1.90    3.00
  -5   0   4    0.30    2.90
  -5   0   4   -1.60    2.60
  -5   0   4    0.40    3.50
  -5   0   4   -5.80    2.90
  -4   0   4 1693.23   53.39
   4   0  -4 1731.53   53.39
   4   0  -4 1673.93   53.49
   4   0  -4 1647.04   53.39
  -4   0   4 1653.03   53.59
   4   0  -4 1656.73   53.59
  -4   0   4 1667.33   53.29
  -4   0   4 1661.13   53.49
  -3   0   4   -2.00    2.10
   3   0  -4   -0.30    2.50
   3   0  -4   -0.90    2.10
  -3   0   4   -1.90    2.30
   3   0  -4    0.70    2.20
  -3   0   4    2.10    2.20
  -3   0   4   -0.30    2.40
   3   0  -4   -1.30    1.90
   2   0  -4 3227.68   99.49
  -2   0   4 3294.87   99.59
   2   0  -4 3130.39   99.39
  -2   0   4 3175.28   99.39
   2   0  -4 3131.39   99.59
  -2   0   4 3127.49   99.49
  -2   0   4 3306.97   99.49
  -1   0   4    0.30    1.70
   1   0  -4   -1.10    1.50
   1   0  -4    0.20    1.60
  -1   0   4   -0.20    1.60
  -1   0   4   -0.10    1.40
  -1   0   4   -0.10    1.70
   1   0  -4   -1.50    1.70
   1   0  -4   -0.50    1.60
   0   0   4 1012.50   31.80
   1   0   4    0.90    2.30
  -1   0  -4   -0.30    2.50
   1   0   4   -5.30    2.00
  -1   0  -4   -2.90    1.90
   1   0   4   -1.30    1.80
  -1   0  -4   -3.00    2.40
   1   0   4   -2.50    2.20
  -1   0  -4   -3.60    2.30
  -1   0  -4   -2.00    2.00
   2   0   4  386.16   13.30
  -2   0  -4  395.96   13.50
   2   0   4  409.56   13.50
   2   0   4  370.96   13.40
   2   0   4  390.46   13.30
  -2   0  -4  383.36   13.20
  -2   0  -4  390.96   13.40
  -2   0  -4  389.36   13.40
   2   0   4  381.86   13.30
  -2   0  -4  400.16   13.40
   3   0   4   -3.70    2.30
   3   0   4   -0.70    2.80
  -3   0  -4    1.70    2.70
  -3   0  -4   -3.20    2.30
  -3   0  -4   -1.80    2.30
   3   0   4   -3.70    2.20
  -3   0  -4    0.40    2.70
   3   0   4   -0.40    2.50
  -3   0  -4   -1.00    2.70
   4   0   4  858.61   29.00
   4   0   4  861.51   29.10
  -4   0  -4  896.41   29.30
  -4   0  -4  861.41   28.90
   4   0   4  885.11   29.30
  -4   0  -4  831.02   29.40
   4   0   4  913.41   29.20
  -4   0  -4  867.11   29.00
  -4   0  -4  898.71   29.40
   5   0   4    1.30    3.40
  -5   0  -4    0.50    3.50
  -5   0  -4    0.10    3.50
  -5   0  -4   -3.20    3.40
   5   0   4   -0.90    3.00
  -5   0  -4   -0.50    3.70
   5   0   4   -1.30    3.50
   5   0   4    3.60    3.50
  -5   0  -4    2.60    3.50
  -6   0  -4  851.81   31.00
   6   0   4  907.01   31.00
   6   0   4  951.50   31.50
  -6   0  -4  863.11   30.60
  -6   0  -4  877.31   31.50
  -6   0  -4  918.31   31.40
   6   0   4  932.71   31.20
   6   0   4  974.00   31.10
  -6   0  -4  778.02   30.60
  -7   0  -4   -0.50    6.20
  -7   0  -4    8.80    5.40
   7   0   4    8.10    4.80
  -7   0  -4    7.00    5.00
   7   0   4   -0.90    6.50
   7   0   4    3.50    5.90
   7   0   4   -3.80    5.00
  -7   0  -4   -3.90    5.70
  -7   0  -4    9.00    5.50
  -8   0  -4   14.60    6.80
  -8   0  -4    8.80    7.60
   8   0   4   20.90    7.00
  -8   0  -4   14.30    6.60
   8   0   4   15.20    6.80
  -8   0  -4    6.70    6.40
  -8   0  -4   12.00    6.00
   8   0   4    9.10    6.00
   8   0   4    9.50    6.80
  -9   0  -4   -3.30    7.60
  -9   0  -4    1.40    8.30
   9  -1  -4  -18.30    6.30
  -9  -1   4    6.60    5.80
   9  -1  -4    0.50    5.10
  -9  -1   4    8.50    7.50
  -9  -1   4    5.00    7.70
   9  -1  -4  -10.10    6.00
  -9  -1   4    3.80    5.50
   9  -1  -4   -6.20    5.30
  -9   1   4   13.10    7.90
  -9   1   4    6.50    6.00
   9   1  -4   11.50    7.40
  -9   1   4   -5.90    5.70
   9   1  -4    5.50    6.30
   9   1  -4   -6.10    6.20
   9   1  -4    3.00    8.40
  -9   1   4    4.60    7.40
  -9   1   4   -8.90    5.70
   8  -1  -4    9.90    5.30
  -8  -1   4    1.70    6.30
  -8  -1   4    7.40    7.60
  -8  -1   4   -2.90    7.00
   8  -1  -4   11.90    6.30
   8  -1  -4   13.10    5.80
   8  -1  -4    8.50    4.90
   8   1  -4   11.50    6.40
  -8   1   4   11.90    5.40
  -8   1   4    2.40    7.30
   8   1  -4    7.20    6.40
  -8   1   4   -7.80    5.30
  -8   1   4    3.40    4.80
   8   1  -4    2.30    6.40
   8   1  -4   18.40    7.60
   7  -1  -4  134.19    8.60
  -7  -1   4  133.19    9.80
   7  -1  -4  128.49    8.60
   7  -1  -4  130.29    9.10
  -7  -1   4  143.09    9.80
   7  -1  -4  141.59    9.80
  -7  -1   4  135.59   10.10
   7   1  -4  143.29   10.80
  -7   1   4  136.49   10.10
   7   1  -4  104.79    9.60
   7   1  -4  145.89   10.90
  -7   1   4  145.49   11.30
   7   1  -4  150.28   10.40
  -7   1   4  142.39    8.80
  -7   1   4  122.49    8.40
   6  -1  -4  146.39    8.60
   6  -1  -4  135.19    7.80
  -6  -1   4  142.59    8.90
  -6  -1   4  148.09    9.10
   6  -1  -4  133.79    8.60
  -6  -1   4  141.89    9.30
  -6  -1   4  150.88    8.90
   6  -1  -4  135.39    8.60
   6   1  -4  132.79    9.00
  -6   1   4  144.59    8.00
  -6   1   4  146.29    8.80
  -6   1   4  143.29   11.50
   6   1  -4  129.79    8.90
   6   1  -4  143.49   10.20
  -6   1   4  137.89    7.50
  -6   1   4  153.98    8.40
   6   1  -4  146.89    9.60
   6   1  -4  139.89    8.70
  -5  -1   4  132.39    7.70
  -5  -1   4  125.59    7.50
   5  -1  -4  128.09    7.10
  -5  -1   4  117.99    7.80
   5  -1  -4  137.99    7.00
  -5  -1   4  122.99    8.10
   5  -1  -4  135.09    7.30
   5  -1  -4  132.29    7.10
   5  -1  -4  145.69   10.10
   5   1  -4  132.99    7.70
   5   1  -4  132.49    7.60
  -5   1   4  136.39    6.70
  -5   1   4  132.99    9.50
  -5   1   4  130.89    7.00
  -5   1   4  142.79    7.80
   5   1  -4  143.79    8.10
   5   1  -4  126.09    7.90
  -5   1   4  138.79    7.60
   4  -1  -4    4.10    2.20
  -4  -1   4   -1.70    2.50
   4  -1  -4    0.70    2.40
  -4  -1   4   -2.00    3.20
  -4  -1   4    1.90    2.90
   4  -1  -4    2.60    2.30
  -4  -1   4   -1.40    2.60
   4  -1  -4    0.90    6.00
   4  -1  -4    0.10    2.40
  -4   1   4   -2.40    2.60
  -4   1   4    1.10    1.80
   4   1  -4    2.60    4.70
   4   1  -4   -2.00    3.00
  -4   1   4   -2.60    3.80
  -4   1   4   -4.60    2.50
   4   1  -4    1.00    2.70
  -4   1   4    0.80    3.00
   4   1  -4   -1.80    2.40
   4   1  -4    2.00    3.50
   3  -1  -4   28.80    3.60
  -3  -1   4   23.50    2.90
  -3  -1   4   31.40    4.00
   3  -1  -4   30.00    3.40
  -3  -1   4   33.20    3.50
   3  -1  -4   28.40    3.30
  -3  -1   4   29.20    3.40
   3  -1  -4   30.60    3.40
  -3   1   4   39.00    2.90
   3   1  -4   31.30    3.60
   3   1  -4   26.90    3.30
  -3   1   4   28.40    3.80
  -3   1   4   27.80    3.50
  -3   1   4   26.20    3.40
   3   1  -4   35.00    3.90
   3   1  -4   35.30    4.30
  -3   1   4   38.30    5.70
   2  -1  -4   86.79    4.00
   2  -1  -4   89.19    4.30
  -2  -1   4   92.29    4.80
   2  -1  -4   91.59    4.00
   2  -1  -4   91.99    4.20
  -2  -1   4   92.39    4.60
  -2  -1   4   82.89    4.70
  -2  -1   4   88.09    4.60
   2   1  -4   87.69    4.40
  -2   1   4   88.49    3.90
   2   1  -4   88.59    4.70
   2   1  -4   88.89    4.60
  -2   1   4   85.19    4.30
   2   1  -4   80.99    7.80
  -2   1   4   82.49    5.80
  -2   1   4   93.49    4.20
   2   1  -4   87.79    4.60
  -2   1   4   94.49    3.60
   1  -1  -4 3302.47  105.79
   1  -1  -4 3419.36  105.99
  -1  -1   4 3390.66  106.09
  -1  -1   4 3504.75  106.19
  -1  -1   4 3479.25  106.19
   1  -1  -4 3386.76  106.49
  -1  -1   4 3419.86  105.99
   1   1  -4 3558.14  106.19
   1   1  -4 3467.65  105.99
   1   1  -4 3413.06  105.89
  -1   1   4 3338.87  106.39
  -1   1   4 3438.46  105.99
   1   1  -4 3472.35  107.99
  -1   1   4 3322.57  105.59
   1   1  -4 3456.85  106.19
  -1   1   4 3515.85  106.49
  -1   1   4 3275.67  105.99
   0  -1  -4 1143.59   35.30
   0  -1  -4 1124.69   35.20
   0  -1  -4 1101.49   35.30
   0  -1   4 1167.98   35.20
   0  -1  -4 1114.29   35.30
   0  -1   4 1140.69   35.20
   0  -1   4 1099.79   35.20
   0  -1   4 1130.29   35.30
   0  -1  -4 1096.89   35.20
   0   1  -4 1114.39   34.90
   0   1  -4 1132.39   35.30
   0   1   4 1111.69   35.30
   0   1  -4 1167.68   35.40
   0   1   4 1130.29   35.80
   0   1   4 1119.69   35.00
   0   1   4 1151.38   35.30
   0   1   4 1094.59   35.00
   0   1  -4 1060.09   34.90
   0   1  -4 1168.68   37.70
   0   1   4 1128.49   35.30
   1  -1   4  503.15   15.60
  -1  -1  -4  482.55   15.90
  -1  -1  -4  485.05   16.00
   1  -1   4  489.25   15.70
  -1  -1  -4  479.35   16.00
   1  -1   4  471.15   15.60
  -1  -1  -4  485.25   16.00
   1  -1   4  488.45   15.70
   1   1   4  486.45   16.00
   1   1   4  479.65   15.80
   1   1   4  470.45   16.10
  -1   1  -4  497.85   15.80
   1   1   4  490.75   15.80
  -1   1  -4  481.25   15.30
   1   1   4  502.95   16.40
  -1   1  -4  455.45   15.70
  -1   1  -4  492.85   18.30
  -1   1  -4  498.75   15.30
  -2  -1  -4  643.64   21.70
  -2  -1  -4  670.23   21.80
  -2  -1  -4  681.43   21.70
  -2  -1  -4  624.84   21.70
   2  -1   4  647.24   22.70
   2  -1   4  669.53   21.40
   2  -1   4  670.93   21.50
   2  -1   4  652.73   21.40
  -2  -1  -4  615.24   23.10
   2   1   4  669.83   21.60
  -2   1  -4  678.43   21.10
  -2   1  -4  660.33   23.40
  -2   1  -4  682.63   21.50
   2   1   4  687.93   21.90
   2   1   4  683.23   21.70
   2   1   4  663.33   21.90
  -2   1  -4  684.33   21.50
  -2   1  -4  594.64   22.70
  -2   1  -4  656.13   21.10
  -3  -1  -4  340.47   13.20
  -3  -1  -4  351.76   13.20
   3  -1   4  353.06   12.80
   3  -1   4  373.66   12.70
   3  -1   4  350.96   12.60
  -3  -1  -4  352.56   13.10
   3  -1   4  366.76   12.80
   3  -1   4  362.66   14.20
  -3  -1  -4  370.46   13.40
   3   1   4  360.76   13.10
  -3   1  -4  360.06   12.80
  -3   1  -4  343.67   14.50
   3   1   4  363.96   13.50
  -3   1  -4  366.46   12.40
  -3   1  -4  364.26   12.90
  -3   1  -4  350.46   12.40
  -3   1  -4  386.36   14.50
   3   1   4  358.36   13.00
   3   1   4  368.56   13.10
  -4  -1  -4  348.37   13.90
  -4  -1  -4  390.36   14.40
   4  -1   4  399.16   13.70
  -4  -1  -4  380.76   14.20
   4  -1   4  366.56   13.50
   4  -1   4  387.76   15.40
   4  -1   4  380.36   13.70
   4  -1   4  347.37   13.50
  -4  -1  -4  372.46   14.10
  -4  -1  -4  316.97   14.80
   4   1   4  366.86   14.00
  -4   1  -4  394.26   13.30
  -4   1  -4  362.26   13.80
  -4   1  -4  432.86   14.60
  -4   1  -4  363.96   13.90
   4   1   4  361.76   14.20
  -4   1  -4  346.47   13.20
   4   1   4  373.56   14.00
   4   1   4  379.56   14.40
  -4   1  -4  375.96   15.40
  -5  -1  -4   29.20    4.70
  -5  -1  -4   30.80    4.70
   5  -1   4   33.30    4.10
  -5  -1  -4   33.60    4.90
  -5  -1  -4   37.60    5.80
   5  -1   4   32.70    4.20
   5  -1   4   31.20    4.00
  -5  -1  -4   39.40    5.40
   5  -1   4   29.60    4.40
  -5  -1  -4   41.00    7.00
  -5   1  -4   29.70    3.70
  -5   1  -4   28.30    3.80
  -5   1  -4   25.30    4.10
   5   1   4   34.30    4.40
   5   1   4   27.80    4.90
  -5   1  -4   34.70    5.90
  -5   1  -4   33.60    4.80
   5   1   4   32.30    4.70
   5   1   4   36.40    5.00
  -5   1  -4   34.10    6.00
  -6  -1  -4  226.98   11.40
  -6  -1  -4  209.08   11.80
  -6  -1  -4  184.48   11.80
   6  -1   4  206.18   10.50
   6  -1   4  208.88   10.50
   6  -1   4  222.28   10.60
  -6  -1  -4  214.58   11.30
   6  -1   4  217.28   11.00
  -6   1  -4  216.48   10.60
   6   1   4  222.28   11.80
  -6   1  -4  224.58   11.20
   6   1   4  210.88   12.60
  -6   1  -4  206.08   12.50
   6   1   4  207.58   11.10
   6   1   4  228.08   11.70
  -6   1  -4  221.78   10.00
  -7  -1  -4   95.19   10.40
   7  -1   4   84.39    8.00
   7  -1   4   84.29    7.40
   7  -1   4   85.79    7.70
   7  -1   4   77.79    9.00
  -7  -1  -4  102.89   10.40
  -7  -1  -4   85.59    9.40
  -7  -1  -4   90.09    9.90
  -7   1  -4   90.39    8.00
   7   1   4   88.79    9.10
  -7   1  -4   82.19   10.20
   7   1   4   89.29   10.80
  -7   1  -4   78.69    8.40
   7   1   4   92.39   10.20
  -8  -1  -4   70.29    9.20
  -8  -1  -4   77.19    9.30
  -8  -1  -4   59.39    9.00
   8  -1   4   67.29    8.10
   8  -1   4   54.89    7.10
   8  -1   4   79.09    9.40
   8  -1   4   67.49    8.30
  -8  -1  -4   70.59   10.30
  -8  -1  -4   67.69    8.80
   8   1   4   66.59    9.50
   8   1   4   78.69    9.50
   8   1   4   68.49   10.00
  -8   1  -4   55.89    8.80
  -8   1  -4   68.39    8.00
  -8   1  -4   69.29   10.40
  -8   1  -4   69.29    8.60
   8   1   4   56.69    8.50
  -8  -2   4   15.90    5.60
   8  -2  -4   32.30    7.10
   8  -2  -4   15.70    5.90
   8  -2  -4    6.90    5.20
  -8  -2   4   19.80    6.70
  -8  -2   4   12.40    8.30
  -8  -2   4   24.30    7.30
   8  -2  -4    6.00    5.10
   8   2  -4   29.60    8.50
  -8   2   4    4.30    3.60
  -8   2   4   22.30   10.30
  -8   2   4   12.50    7.00
   8   2  -4   14.90    6.50
   8   2  -4    5.70    7.70
  -8   2   4   22.10    6.60
   8   2  -4   14.20    7.20
   7  -2  -4   83.29    6.50
   7  -2  -4   77.39    7.70
  -7  -2   4   79.89    9.80
   7  -2  -4   67.29    6.90
  -7  -2   4   72.49    8.10
  -7  -2   4   77.59    9.80
   7  -2  -4   86.69    8.60
  -7  -2   4   97.99    9.70
  -7   2   4   58.59    4.80
   7   2  -4   69.49    8.80
  -7   2   4  101.09   11.90
   7   2  -4   64.89    8.10
  -7   2   4   86.69    7.90
   6  -2  -4  105.69    6.10
   6  -2  -4  100.59    7.00
  -6  -2   4  106.59    8.60
  -6  -2   4   86.89    8.50
   6  -2  -4  104.29    7.70
  -6  -2   4   91.39    8.90
  -6  -2   4   80.89    7.70
   6  -2  -4   99.69    7.80
   6   2  -4  109.29    8.10
  -6   2   4  104.19    4.60
  -6   2   4  113.69   11.90
   6   2  -4   84.09    8.70
  -6   2   4  111.39    7.30
   6   2  -4   82.79    9.40
  -6   2   4   90.89    7.70
   6   2  -4   97.59    9.30
   5  -2  -4  126.29    6.90
  -5  -2   4  112.19    8.10
   5  -2  -4  116.69    6.50
   5  -2  -4  126.09    7.00
  -5  -2   4  135.29    8.20
   5  -2  -4  123.29    5.90
  -5  -2   4   95.89    8.30
  -5  -2   4  116.99    7.30
   5   2  -4  125.69    7.80
   5   2  -4  103.89    9.50
  -5   2   4  113.39   10.90
   5   2  -4  105.19    8.60
  -5   2   4  116.89    6.80
   5   2  -4  116.59    8.40
   5   2  -4  129.69    7.40
  -5   2   4  113.49    7.00
  -4  -2   4   -2.10    3.20
   4  -2  -4    4.10    2.20
   4  -2  -4    3.90    2.30
  -4  -2   4    0.80    2.80
   4  -2  -4    2.80    2.10
  -4  -2   4    1.30    2.70
   4  -2  -4    2.50    2.40
  -4  -2   4    2.40    3.00
   4   2  -4    6.70    4.00
   4   2  -4    0.80    2.90
   4   2  -4    2.20    3.50
  -4   2   4    4.60    2.90
   4   2  -4    4.50    5.60
  -4   2   4    9.50    5.20
   4   2  -4    2.90    2.50
   3  -2  -4    7.60    2.00
  -3  -2   4    6.20    2.50
   3  -2  -4    6.90    1.70
  -3  -2   4    5.60    2.70
  -3  -2   4    2.50    2.30
  -3  -2   4    8.20    2.70
   3  -2  -4    2.20    1.70
   3  -2  -4    1.20    2.10
   3  -2  -4    9.80    4.10
   3   2  -4    7.00    2.00
   3   2  -4    4.30    5.70
  -3   2   4   10.60    4.90
   3   2  -4    4.90    3.20
   3   2  -4    6.20    2.30
  -3   2   4    4.30    2.40
  -3   2   4    5.00    2.10
   3   2  -4    6.70    2.90
   2  -2  -4  535.15   17.20
  -2  -2   4  534.85   18.10
  -2  -2   4  553.84   18.00
   2  -2  -4  562.84   17.30
  -2  -2   4  548.85   18.00
   2  -2  -4  527.85   17.30
   2  -2  -4  539.85   17.30
  -2  -2   4  531.05   18.00
   2  -2  -4  539.35   19.40
   2   2  -4  526.05   17.20
   2   2  -4  536.55   18.70
  -2   2   4  535.45   19.10
  -2   2   4  548.45   17.40
   2   2  -4  527.45   18.20
  -2   2   4  505.85   17.60
  -2   2   4  577.14   20.00
   2   2  -4  538.15   22.00
   2   2  -4  506.05   18.10
   2   2  -4  546.75   17.20
   1  -2  -4    9.90    2.90
  -1  -2   4    7.00    1.50
  -1  -2   4    6.80    1.80
  -1  -2   4    6.10    1.80
   1  -2  -4    7.70    1.20
   1  -2  -4    5.30    1.10
   1  -2  -4    7.30    1.20
  -1  -2   4    4.10    2.00
  -1   2   4    6.40    1.30
  -1   2   4   10.20    3.40
  -1   2   4    5.90    1.30
   1   2  -4    4.40    1.80
   1   2  -4   18.00    6.90
  -1   2   4    8.90    4.00
   1   2  -4    3.90    2.20
   1   2  -4   13.50    3.20
   0  -2   4   40.40    2.40
   0  -2   4   42.10    2.40
   0  -2  -4   38.30    2.90
   0  -2   4   41.10    2.20
   0  -2  -4   37.60    2.40
   0  -2   4   42.70    2.20
   0  -2  -4   39.00    4.00
   0  -2  -4   37.30    2.50
   0  -2  -4   40.10    2.90
   0   2  -4   45.80    7.70
   0   2   4   38.80    2.70
   0   2  -4   41.10    2.40
   0   2   4   37.80    4.40
   0   2  -4   47.30    4.30
   0   2  -4   42.80    2.60
   1  -2   4   16.20    1.60
   1  -2   4   23.80    1.70
   1  -2   4   18.30    1.90
   1  -2   4   15.20    5.20
  -1  -2  -4   19.70    2.40
  -1  -2  -4   23.20    3.60
  -1  -2  -4   18.90    2.20
   1  -2   4   19.50    1.60
  -1  -2  -4   18.10    2.10
  -1  -2  -4   21.60    2.50
  -1   2  -4   16.10    1.80
   1   2   4   19.50    4.00
  -1   2  -4   19.20    1.90
   1   2   4   16.60    2.40
  -1   2  -4   17.10    3.50
  -1   2  -4   16.50    6.40
   1   2   4   13.30    2.50
   2  -2   4   73.29    7.40
  -2  -2  -4   66.79    4.40
   2  -2   4   65.19    3.10
   2  -2   4   65.99    3.30
   2  -2   4   69.89    3.60
  -2  -2  -4   67.39    4.10
   2  -2   4   59.69    3.50
  -2  -2  -4   66.39    4.30
  -2  -2  -4   66.29    4.60
   2   2   4   66.49    3.80
   2   2   4   71.09    3.50
   2   2   4   63.19    4.90
   2   2   4   63.89    4.50
  -2   2  -4   65.79    3.60
  -2   2  -4   68.19    8.30
   2   2   4   62.79    5.70
   3  -2   4  193.48    7.60
   3  -2   4  194.38    7.80
  -3  -2  -4  199.28    8.50
  -3  -2  -4  200.48    8.60
  -3  -2  -4  198.38    8.50
   3  -2   4  215.48    7.60
   3  -2   4  201.08    7.60
  -3  -2  -4  183.28    8.50
   3  -2   4  184.58   10.60
   3   2   4  200.98    8.80
   3   2   4  187.58    8.90
  -3   2  -4  197.18    7.90
   3   2   4  193.28    8.00
   3   2   4  203.28    8.20
  -3   2  -4  196.68    7.90
  -3   2  -4  196.48   11.30
   4  -2   4  146.89    6.90
   4  -2   4  149.09   10.50
  -4  -2  -4  147.69    7.60
   4  -2   4  144.79    6.70
  -4  -2  -4  143.09    8.00
   4  -2   4  150.58    6.60
  -4  -2  -4  146.89    8.20
   4  -2   4  133.49    6.90
  -4  -2  -4  151.68    7.90
  -4   2  -4  153.78   10.60
  -4   2  -4  140.49   11.80
   4   2   4  130.79    7.50
  -4   2  -4  138.09    7.20
   4   2   4  135.59    8.30
  -4   2  -4  137.29    7.20
   4   2   4  151.48    7.70
   4   2   4  141.09    8.50
  -5  -2  -4   35.30    5.50
   5  -2   4   33.80    4.20
  -5  -2  -4   30.40    4.50
   5  -2   4   37.30    4.30
  -5  -2  -4   27.70    5.00
   5  -2   4   29.60    4.10
   5  -2   4   32.60    3.40
   5  -2   4   35.60    8.00
  -5  -2  -4   35.00    4.80
  -5   2  -4   49.00    7.80
   5   2   4   36.80    5.10
   5   2   4   32.60    5.80
  -5   2  -4   34.40    2.70
  -5   2  -4   38.10    2.40
   5   2   4   27.80    6.10
  -5   2  -4   36.00    4.50
  -5   2  -4   55.59    8.70
  -5   2  -4   36.90    4.80
   5   2   4   35.10    5.00
  -6  -2  -4  -10.50    5.30
   6  -2   4    4.10    3.40
   6  -2   4   -1.30    2.60
  -6  -2  -4    0.30    5.00
   6  -2   4    1.70    4.40
  -6  -2  -4   12.10    5.70
  -6  -2  -4    2.10    4.00
   6  -2   4    0.50    3.70
  -6   2  -4   -1.10    1.90
  -6   2  -4   -4.80    7.00
   6   2   4    3.90    4.70
  -6   2  -4   -1.60    2.30
  -6   2  -4    1.50    4.10
  -6   2  -4   -0.50    4.50
   6   2   4   -5.50    4.40
   6   2   4   -3.10    6.00
  -7  -2  -4   28.50    6.70
  -7  -2  -4   36.50    7.90
  -7  -2  -4   34.90    7.20
   7  -2   4   26.20    4.50
  -7  -2  -4   28.00    5.70
   7  -2   4   35.50    5.60
   7  -2   4   31.10    5.80
   7  -2   4   26.80    6.20
  -7  -2  -4   28.10    7.50
   7   2   4   20.50    6.00
  -7   2  -4   30.50    5.90
   7   2   4   38.70    8.10
   7   2   4   28.70    6.80
  -7   2  -4   28.90    3.90
  -7   2  -4   25.50    9.50
  -7   2  -4   27.70    6.80
  -8  -2  -4    8.70    8.20
   8  -2   4   -3.50    4.90
  -8  -2  -4   -1.30    7.20
  -8  -2  -4    0.30    7.10
  -8  -2  -4    2.60    5.80
   8  -2   4    0.70    4.40
  -8  -2  -4   -0.10    8.40
   8  -2   4    1.00    5.60
   8  -2   4    1.20    6.50
   8   2   4   -1.90    7.60
   8   2   4   -3.40    7.80
  -8   2  -4    8.60    3.90
   8   2   4   -7.30    6.80
  -8   2  -4    3.20    9.10
  -8   2  -4   17.40    8.10
  -8   2  -4   -0.80    3.20
  -8   2  -4    1.00    5.80
   7  -3  -4  110.99    5.40
  -7  -3   4  105.19   10.60
   7  -3  -4   85.89    8.90
  -7  -3   4   77.69    9.30
  -7  -3   4   85.09    8.40
   7  -3  -4   83.49    7.30
  -7  -3   4   79.69    9.10
   7  -3  -4   97.19    8.50
   7   3  -4   95.89   12.20
  -7   3   4  111.89   10.00
  -7   3   4   88.09   12.90
   7   3  -4   78.29    9.70
   7   3  -4   84.19    9.00
   7   3  -4   87.29    9.00
   6  -3  -4   -3.80    4.50
   6  -3  -4    1.60    4.60
  -6  -3   4    2.30    4.70
   6  -3  -4   -3.70    4.50
  -6  -3   4    4.10    6.30
   6  -3  -4   -1.70    3.10
  -6  -3   4   -0.90    4.90
  -6  -3   4    8.70    5.10
  -6   3   4   -1.70    3.70
   6   3  -4   -1.00    3.90
  -6   3   4    1.20    4.20
   6   3  -4   -2.20    6.20
   6   3  -4   -1.90    4.00
  -6   3   4    5.50   11.20
   6   3  -4    1.40    5.50
   6   3  -4   -4.10   13.10
   5  -3  -4   37.90    4.40
  -5  -3   4   53.59    6.50
   5  -3  -4   50.59    5.50
   5  -3  -4   36.90    4.60
  -5  -3   4   50.29    5.60
  -5  -3   4   48.20    5.90
   5  -3  -4   43.60    5.70
  -5   3   4   46.10    4.70
   5   3  -4   54.59    5.10
   5   3  -4   52.49    5.00
   5   3  -4   63.79   13.90
  -5   3   4   63.89   10.50
   5   3  -4   46.20    5.90
  -4  -3   4   23.20    4.20
   4  -3  -4   23.70    2.60
  -4  -3   4   22.50    4.40
   4  -3  -4   21.20    2.00
  -4  -3   4   15.40    4.40
   4  -3  -4   26.70    7.30
   4  -3  -4   27.50    2.40
   4  -3  -4   28.40    3.60
  -4   3   4   33.10    8.90
   4   3  -4   23.50    5.20
  -4   3   4   22.40    2.50
   4   3  -4   24.60    5.00
   4   3  -4   23.10    2.50
   4   3  -4   23.10    2.10
   4   3  -4   24.60    4.50
  -4   3   4   21.20    2.90
   4   3  -4   26.30   12.20
  -3  -3   4    1.90    2.90
   3  -3  -4    0.10    2.20
  -3  -3   4   -0.40    3.00
   3  -3  -4    0.20    1.40
  -3  -3   4    3.40    2.40
  -3  -3   4   -1.00    2.90
   3  -3  -4   10.90    6.00
   3   3  -4    2.20    4.30
  -3   3   4    1.70    1.50
  -3   3   4   -1.20    1.20
   3   3  -4   -1.80   11.40
   3   3  -4   -7.10    3.50
  -3   3   4    0.40    7.30
   3   3  -4   -2.50    3.20
  -2  -3   4   35.20    4.10
   2  -3  -4   48.90    7.60
  -2  -3   4   55.59    4.30
   2  -3  -4   50.89    2.60
   2  -3  -4   48.30    3.10
  -2  -3   4   50.49    4.70
  -2  -3   4   39.50    4.00
   2   3  -4   46.20    5.90
  -2   3   4   45.40    5.90
   2   3  -4   45.20    5.20
   2   3  -4   43.40    4.60
   2   3  -4   56.29   12.60
  -1  -3   4  153.98    5.70
  -1  -3   4  152.88    5.70
   1  -3  -4  147.69    5.50
  -1  -3   4  149.49    6.60
   1  -3  -4  159.48    9.00
  -1  -3   4  157.48    6.20
   1   3  -4  170.58   16.50
  -1   3   4  158.08    9.00
   1   3  -4  157.78    6.30
   1   3  -4  156.58    6.10
   1   3  -4  152.18    8.50
   0  -3   4  171.58    6.40
   0  -3  -4  169.78    6.90
   0  -3  -4  176.38    6.30
   0  -3   4  172.38    6.20
   0  -3   4  183.18   12.10
   0  -3  -4  181.78    9.20
   0   3   4  171.08    6.40
   0   3  -4  159.68    8.90
   0   3   4  174.68    6.20
   0   3  -4  180.58   16.50
   0   3   4  162.88    8.90
   1  -3   4  139.29    5.30
  -1  -3  -4  149.19    6.90
  -1  -3  -4  142.89    6.20
  -1  -3  -4  163.28    8.50
  -1  -3  -4  147.39    6.10
   1  -3   4  146.49    5.20
   1  -3   4  144.19   11.40
  -1  -3  -4  147.79    5.90
   1   3   4  145.79    8.40
  -1   3  -4  150.98   15.80
  -1   3  -4  134.79    8.10
   1   3   4  147.99    6.60
   2  -3   4   12.30    6.70
  -2  -3  -4    4.70    2.40
  -2  -3  -4    8.00    2.10
  -2  -3  -4    6.40    2.50
  -2  -3  -4    9.90    4.00
   2  -3   4    3.90    1.90
   2  -3   4    4.80    1.30
  -2  -3  -4    6.20    3.10
   2   3   4    2.60    3.20
   2   3   4    9.90    3.10
  -2   3  -4    7.00   11.30
   2   3   4    6.20    4.20
  -3  -3  -4    4.50    3.30
   3  -3   4    3.60    1.70
  -3  -3  -4    5.40    2.50
   3  -3   4    1.40    2.40
  -3  -3  -4    2.40    3.20
  -3  -3  -4    0.20    3.10
   3  -3   4    1.70    6.60
  -3   3  -4    2.30    1.40
   3   3   4    3.60    3.90
   3   3   4    5.20    3.50
  -3   3  -4    6.70    2.00
   3   3   4    0.20    4.50
  -3   3  -4    0.40   11.60
  -4  -3  -4   44.20    4.80
  -4  -3  -4   53.29    5.80
  -4  -3  -4   40.50    5.30
   4  -3   4   39.00    3.40
   4  -3   4   40.60    5.00
  -4  -3  -4   36.00    4.50
   4  -3   4   42.50    3.40
   4  -3   4   51.59    4.60
   4  -3   4   44.00    8.60
  -4   3  -4   63.09   15.60
   4   3   4   53.29    6.30
  -4   3  -4   39.10    3.50
   4   3   4   42.70    5.30
   4   3   4   46.30    4.00
   4   3   4   58.39    7.10
  -4   3  -4   43.20    4.50
   4   3   4   46.00    4.30
   5  -3   4   10.00    3.30
   5  -3   4   13.90    3.60
  -5  -3  -4    8.20    4.50
  -5  -3  -4   11.50    5.90
  -5  -3  -4    4.80    4.40
   5  -3   4   12.00    4.00
   5  -3   4   12.10    3.30
  -5  -3  -4   11.30    4.30
   5   3   4   12.80    3.70
   5   3   4   12.00    5.80
   5   3   4   14.40    6.20
   5   3   4    6.90    4.80
  -5   3  -4   -2.30   15.00
  -5   3  -4   -0.90    3.70
   5   3   4   10.90    3.60
  -5   3  -4   13.00    4.20
   6  -3   4   17.00    4.00
  -6  -3  -4   26.90    6.00
  -6  -3  -4   23.30    5.70
   6  -3   4   11.10    4.80
  -6  -3  -4   21.70    5.90
   6  -3   4   21.70    4.80
  -6  -3  -4   15.30    7.10
   6  -3   4   19.60    2.90
   6  -3   4    4.20   11.00
  -6   3  -4    7.00    9.50
   6   3   4   21.80    6.80
   6   3   4   18.30    5.10
  -6   3  -4   11.80    4.20
   6   3   4   16.40    5.10
   6   3   4    2.20    6.80
   4  -4  -4    2.80    2.60
  -4  -4   4    5.20    5.20
  -4  -4   4   -0.40    5.30
   4  -4  -4    8.90    3.20
   4  -4  -4   -2.70    9.50
  -4  -4   4    2.30    3.90
   4   4  -4    1.60    5.60
   4   4  -4   -0.20    4.30
   4   4  -4   -2.00   13.20
   4   4  -4   -0.60    7.90
  -3  -4   4    2.60    3.30
   3  -4  -4    3.50    1.60
  -3  -4   4   -0.30    3.10
   3  -4  -4   20.80    8.70
  -3  -4   4   -2.00    4.90
   3  -4  -4    3.80    2.50
  -3  -4   4    0.60    3.90
   3   4  -4    8.40    5.20
   3   4  -4    4.60    4.40
   3   4  -4    9.40   11.40
   3   4  -4   -1.00    4.30
   2  -4  -4   17.80    7.50
  -2  -4   4   24.60    4.00
   2  -4  -4   18.60    1.90
  -2  -4   4   19.80    3.40
   2   4  -4   19.70    3.60
   2   4  -4   18.50    6.20
   2   4  -4   20.60   12.30
  -2   4   4   14.90    6.40
   1  -4  -4   64.79    3.00
   1  -4  -4   64.19    3.80
  -1  -4   4   57.89    4.20
  -1  -4   4   65.89    5.10
   1  -4  -4   71.69    9.80
  -1  -4   4   91.99   12.10
   1   4  -4   76.79    7.70
  -1   4   4   59.99    7.50
   1   4  -4   54.59   13.90
   0  -4  -4    0.50    2.90
   0  -4  -4    2.70    1.70
   0  -4   4    1.40    1.50
   0  -4   4   -7.00    7.80
   0  -4   4   -2.30    2.20
   0  -4  -4   -1.00    5.90
   0   4  -4    0.30   13.20
   0   4   4    7.00    5.20
   0   4  -4   -5.00    4.30
  -1  -4  -4    1.60    3.20
  -1  -4  -4   -1.80    2.40
   1  -4   4    2.60    1.20
  -1  -4  -4   -2.60    5.90
   1  -4   4   -2.80    8.70
   1   4   4   -2.60    2.20
  -1   4  -4   -5.50   12.90
   1   4   4   -1.30    5.00
  -1   4  -4   -1.10    5.10
   1   4   4    1.60    1.50
  -2  -4  -4   26.00    3.80
   2  -4   4   28.10   10.60
  -2  -4  -4   33.00    6.10
   2  -4   4   31.10    2.00
  -2  -4  -4   22.80    4.50
  -2  -4  -4   18.10    2.80
   2   4   4   16.20    4.30
   2   4   4   16.20    7.80
  -2   4  -4   33.80   16.50
  -3  -4  -4   28.00    6.20
   3  -4   4   21.30    3.00
  -3  -4  -4   20.80    5.30
  -3  -4  -4   27.80    5.00
  -3  -4  -4   21.20    5.00
   3  -4   4   33.30   10.60
  -3  -4  -4   16.50    3.90
  -3   4  -4   26.20   18.30
   3   4   4   19.20    8.50
  -4  -4  -4   22.50    3.10
   4  -4   4   21.50    9.00
  -4  -4  -4   22.20    5.00
   4  -4   4   35.30    3.80
   4  -4   4   40.10    4.70
  -4  -4  -4   30.00    5.90
  -4  -4  -4   21.60    5.50
  -4  -4  -4   27.90    7.00
   4   4   4    8.10    4.60
  -4   4  -4   30.70   18.20
   4   4   4   30.20    9.90
   4   4   4   24.70    6.70
  -9   0   5    2.60    7.10
   9   0  -5    7.90    7.70
   9   0  -5    2.30    6.40
  -9   0   5   -3.40    8.50
   9   0  -5   -2.60    5.80
  -9   0   5    6.90    6.80
   9   0  -5   -2.70    6.90
  -9   0   5    1.10    6.60
  -9   0   5   -3.20    8.70
  -8   0   5   -2.70    6.20
  -8   0   5   -3.10    5.10
   8   0  -5   -5.00    5.70
   8   0  -5   -4.80    6.60
   8   0  -5    0.20    5.70
   8   0  -5    5.80    6.00
  -8   0   5   -2.10    6.10
  -8   0   5  -11.50    6.00
   7   0  -5   15.50    5.30
  -7   0   5   20.30    6.10
  -7   0   5   21.80    5.30
   7   0  -5   20.90    5.60
   7   0  -5   21.20    5.20
  -7   0   5   26.20    5.20
   7   0  -5   15.50    5.40
  -7   0   5   15.60    6.10
  -7   0   5   17.60    5.60
   6   0  -5   -2.80    4.10
  -6   0   5    2.00    4.20
   6   0  -5   -2.20    3.70
   6   0  -5   -0.60    4.60
  -6   0   5   -3.80    4.20
   6   0  -5   -4.70    3.20
  -6   0   5    2.30    3.70
  -6   0   5   -0.40    4.30
   5   0  -5   -0.40    3.00
  -5   0   5   -2.10    3.40
  -5   0   5   -5.40    2.90
   5   0  -5   -2.10    3.00
  -5   0   5    2.80    2.90
   5   0  -5   -0.30    3.20
   5   0  -5    2.20    3.40
  -5   0   5   -2.40    3.10
   4   0  -5   -0.90    2.80
   4   0  -5   -1.80    2.60
   4   0  -5    2.90    2.60
  -4   0   5   -1.20    2.90
   4   0  -5    0.00    2.90
  -4   0   5   -0.50    2.50
  -4   0   5    2.40    2.70
  -4   0   5    1.70    2.60
   3   0  -5 2704.13   84.69
  -3   0   5 2620.44   84.59
  -3   0   5 2701.83   84.89
  -3   0   5 2635.74   84.79
   3   0  -5 2773.72   84.89
   3   0  -5 2696.33   84.69
  -3   0   5 2820.12   84.69
   3   0  -5 2690.33   84.89
  -2   0   5   -0.60    1.90
  -2   0   5   -0.20    1.80
   2   0  -5    0.90    1.90
  -2   0   5   -0.60    1.90
   2   0  -5   -0.20    2.00
   2   0  -5    0.80    2.10
  -2   0   5    1.00    2.20
   2   0  -5    0.50    2.10
  -1   0   5   29.90    3.20
   1   0  -5   18.80    2.20
   1   0  -5   24.80    3.20
   1   0  -5   24.90    3.00
  -1   0   5   26.40    3.10
  -1   0   5   27.70    2.90
   1   0  -5   26.30    2.70
  -1   0   5   24.90    3.20
   0   0   5   -0.20    1.70
   0   0   5    2.00    1.90
   0   0   5    0.50    1.70
   0   0  -5    1.50    1.90
   0   0  -5    3.50    2.00
   1   0   5   25.30    3.80
  -1   0  -5   31.70    3.00
   1   0   5   24.80    3.20
  -1   0  -5   21.80    2.90
  -1   0  -5   15.90    2.40
   1   0   5   27.40    3.10
  -1   0  -5   22.40    2.90
   1   0   5   25.00    2.90
   1   0   5   22.70    2.60
  -2   0  -5   -1.60    2.40
   2   0   5   -0.10    2.00
   2   0   5    0.90    2.20
   2   0   5   -1.60    1.90
  -2   0  -5   -0.50    2.30
  -2   0  -5   -2.20    1.70
  -2   0  -5   -1.10    2.40
   2   0   5   -3.40    1.80
   2   0   5    0.10    2.00
  -3   0  -5 3125.09   96.19
  -3   0  -5 3087.29   95.89
  -3   0  -5 2911.51   96.09
   3   0   5 3166.28   96.19
  -3   0  -5 3094.69   95.89
  -3   0  -5 3036.60   96.09
   3   0   5 2981.60   95.89
   3   0   5 3234.98   96.29
   3   0   5 2962.20   95.89
   4   0   5   -0.20    2.60
  -4   0  -5    0.40    3.50
   4   0   5    0.80    2.70
  -4   0  -5   -0.90    3.10
   4   0   5   -1.50    2.80
  -4   0  -5    0.50    2.40
  -4   0  -5   -0.70    3.10
   4   0   5   -1.50    2.80
  -4   0  -5   -0.80    3.10
   5   0   5  414.66   15.80
  -5   0  -5  425.06   16.20
  -5   0  -5  427.76   16.10
   5   0   5  414.76   15.90
  -5   0  -5  398.76   16.00
   5   0   5  410.06   15.90
   5   0   5  406.26   15.90
  -5   0  -5  400.66   15.80
  -5   0  -5  407.36   15.60
   6   0   5   -1.30    3.90
  -6   0  -5    4.30    5.50
  -6   0  -5    0.60    5.10
  -6   0  -5    1.30    4.10
  -6   0  -5    6.60    4.80
   6   0   5    1.20    4.20
   6   0   5   -1.50    3.90
   6   0   5    1.90    4.70
  -6   0  -5   -0.60    4.30
   7   0   5    9.90    5.50
   7   0   5    4.40    4.90
   7   0   5    5.20    5.90
  -7   0  -5    8.40    5.10
  -7   0  -5   12.40    5.70
  -7   0  -5    7.90    6.50
  -7   0  -5    6.50    5.70
  -7   0  -5    4.50    6.50
   8   0   5   17.80    7.10
  -8   0  -5    4.90    6.90
   8   0   5    5.80    6.90
  -8   0  -5   -0.80    6.50
  -8   0  -5   -5.60    6.60
   8   0   5    7.20    6.80
  -8   0  -5   -8.40    6.20
   8   0   5   -1.10    6.10
  -8   0  -5   -2.10    6.50
   9  -1  -5   -5.20    6.60
  -9  -1   5   -3.90    5.60
   9  -1  -5   -5.60    6.30
  -9  -1   5  -12.50    7.10
   9  -1  -5   -4.30    5.20
  -9  -1   5   -5.80    7.50
   9  -1  -5   -3.20    5.30
  -9  -1   5    0.50    5.20
  -9   1   5   -2.20    8.30
   9   1  -5   -4.50    7.00
   9   1  -5    6.90    6.50
  -9   1   5   -0.30    5.70
  -9   1   5  -10.10    5.80
   9   1  -5   -4.40    6.10
  -9   1   5   13.80    6.50
   9   1  -5   -2.10    8.50
  -9   1   5   -7.60    7.70
   8  -1  -5    5.60    5.30
   8  -1  -5    0.50    5.50
  -8  -1   5   -0.40    7.20
   8  -1  -5   16.10    5.20
  -8  -1   5    3.00    7.20
   8  -1  -5    6.40    6.40
  -8  -1   5   -4.60    5.80
   8   1  -5   21.30    8.40
  -8   1   5   -0.10    7.00
   8   1  -5   -4.50    5.80
  -8   1   5    1.80    6.30
   8   1  -5   -4.20    5.80
   8   1  -5   -2.90    6.30
  -8   1   5   -4.80    4.80
  -8   1   5    4.60    5.00
  -7  -1   5  411.26   17.30
  -7  -1   5  426.16   17.80
   7  -1  -5  414.46   16.70
  -7  -1   5  406.36   17.30
   7  -1  -5  387.86   16.50
   7  -1  -5  398.66   16.30
   7  -1  -5  430.46   16.80
  -7   1   5  432.76   17.30
   7   1  -5  403.56   17.70
   7   1  -5  404.26   17.30
   7   1  -5  421.46   17.50
  -7   1   5  399.26   19.00
  -7   1   5  424.26   16.20
  -7   1   5  349.87   15.80
   6  -1  -5    2.70    8.90
   6  -1  -5   -0.20    4.10
  -6  -1   5   -5.40    4.10
  -6  -1   5    1.40    4.10
  -6  -1   5    0.30    4.10
   6  -1  -5   -0.50    3.60
   6  -1  -5   -3.80    3.30
  -6  -1   5   -0.70    3.80
   6  -1  -5   -0.50    3.90
   6   1  -5    0.90    4.60
  -6   1   5   -0.70    4.00
  -6   1   5    0.80    3.20
   6   1  -5   -0.10    4.00
   6   1  -5   -1.00    4.60
   6   1  -5    9.60    5.60
  -6   1   5    0.60    3.40
  -6   1   5    1.90    4.40
   6   1  -5   -2.50    5.10
  -6   1   5   -3.80    6.00
   5  -1  -5    9.00    3.10
   5  -1  -5    5.80    2.90
   5  -1  -5   11.80    3.40
  -5  -1   5    5.40    3.80
   5  -1  -5    7.80    3.10
  -5  -1   5    8.20    3.60
  -5  -1   5    5.40    3.20
   5  -1  -5    9.50    7.40
  -5  -1   5    2.60    3.30
  -5   1   5    8.00    5.20
   5   1  -5    7.60    3.60
  -5   1   5    7.20    2.70
   5   1  -5    2.80    3.30
  -5   1   5    6.70    3.10
   5   1  -5    1.60    3.60
  -5   1   5    7.70    3.50
   5   1  -5    1.70    5.00
   5   1  -5   10.00    4.40
  -5   1   5    6.20    3.80
  -4  -1   5   -2.40    2.90
   4  -1  -5    6.70    2.40
   4  -1  -5   -1.60    2.20
  -4  -1   5   -3.30    2.50
  -4  -1   5   -0.10    3.30
   4  -1  -5   -0.80    2.40
  -4  -1   5   -0.90    2.50
   4  -1  -5   -0.80    2.10
  -4   1   5   -1.70    2.90
  -4   1   5   -0.90    2.50
   4   1  -5   -0.50    2.80
   4   1  -5   -0.20    2.80
  -4   1   5    0.40    4.50
   4   1  -5    0.20    3.50
   4   1  -5   -1.70    2.50
  -4   1   5   -1.70    1.80
  -4   1   5    1.00    2.50
   4   1  -5   -5.80    5.00
   3  -1  -5  182.08    7.20
   3  -1  -5  189.28    7.30
  -3  -1   5  177.68    7.70
  -3  -1   5  182.08    7.80
   3  -1  -5  184.78    7.40
  -3  -1   5  174.98    7.80
   3  -1  -5  173.88    7.30
  -3  -1   5  167.48    7.60
   3   1  -5  182.78    7.90
  -3   1   5  171.88    9.00
  -3   1   5  180.58    7.60
   3   1  -5  187.68    8.30
  -3   1   5  170.68    7.10
   3   1  -5  181.98    8.00
  -3   1   5  199.48    7.00
   3   1  -5  176.48    7.60
   2  -1  -5   10.50    2.00
  -2  -1   5    9.30    2.50
   2  -1  -5   13.00    1.90
  -2  -1   5    9.80    2.30
  -2  -1   5   11.10    2.40
   2  -1  -5   10.90    1.90
   2  -1  -5    9.60    2.10
  -2  -1   5   10.90    2.20
  -2   1   5   13.30    1.60
   2   1  -5    9.50    2.40
  -2   1   5   11.00    2.30
  -2   1   5   12.50    1.80
   2   1  -5   13.30    2.50
  -2   1   5    5.60    3.00
   2   1  -5   16.40    2.10
   2   1  -5    7.10    2.20
  -2   1   5   11.60    2.10
   1  -1  -5  377.86   12.30
  -1  -1   5  374.36   12.50
  -1  -1   5  380.06   12.60
  -1  -1   5  352.56   12.50
  -1  -1   5  376.56   12.50
   1  -1  -5  366.96   12.30
   1  -1  -5  378.36   12.40
   1  -1  -5  372.26   12.30
  -1   1   5  381.36   12.40
  -1   1   5  383.36   12.90
   1   1  -5  357.96   12.50
   1   1  -5  376.86   12.30
  -1   1   5  370.86   12.90
   1   1  -5  367.56   12.40
   1   1  -5  373.56   12.60
  -1   1   5  374.56   12.00
  -1   1   5  374.76   12.40
  -1   1   5  365.86   12.10
   0  -1  -5  152.88    6.00
   0  -1  -5  163.38    6.00
   0  -1   5  159.38    5.90
   0  -1   5  163.78    6.00
   0  -1  -5  162.18    6.20
   0  -1  -5  165.28    6.10
   0  -1   5  177.58    6.00
   0  -1   5  151.08    5.90
   0   1  -5  151.88    5.70
   0   1   5  172.28    6.00
   0   1   5  159.28    5.80
   0   1   5  163.48    5.90
   0   1   5  166.08    6.10
   0   1  -5  156.68    6.00
   0   1  -5  152.78    5.60
   0   1   5  158.88    6.10
   0   1   5  161.18    6.60
   0   1  -5  167.88    6.10
   0   1  -5  156.88    5.90
  -1  -1  -5  428.26   13.90
   1  -1   5  414.56   13.60
   1  -1   5  394.86   15.10
  -1  -1  -5  401.96   14.00
  -1  -1  -5  413.06   14.00
   1  -1   5  408.66   13.60
  -1  -1  -5  418.36   14.00
   1  -1   5  408.16   13.70
   1  -1   5  428.26   13.80
  -1   1  -5  420.46   16.50
  -1   1  -5  417.16   13.80
   1   1   5  407.46   14.30
  -1   1  -5  423.16   13.80
   1   1   5  411.86   14.10
  -1   1  -5  417.66   13.40
   1   1   5  419.46   13.80
  -1   1  -5  413.56   13.40
   1   1   5  417.26   14.00
   1   1   5  417.96   13.80
   2  -1   5  496.65   16.30
   2  -1   5  495.55   16.30
  -2  -1  -5  494.85   16.80
  -2  -1  -5  476.65   16.60
   2  -1   5  464.55   17.70
  -2  -1  -5  492.85   16.80
  -2  -1  -5  490.55   16.70
   2  -1   5  482.55   16.20
   2  -1   5  510.55   16.50
   2   1   5  491.95   16.50
  -2   1  -5  490.05   16.40
  -2   1  -5  493.45   16.00
  -2   1  -5  504.05   16.00
  -2   1  -5  476.85   16.40
   2   1   5  489.75   16.80
  -2   1  -5  489.25   18.00
   2   1   5  487.05   16.60
  -2   1  -5  491.75   18.70
   2   1   5  485.65   16.70
   3  -1   5  124.59    7.50
  -3  -1  -5  111.99    6.20
  -3  -1  -5  126.59    6.20
   3  -1   5  113.49    5.50
  -3  -1  -5  118.69    6.10
   3  -1   5  118.99    5.80
   3  -1   5  116.29    5.90
  -3  -1  -5  122.99    6.50
   3  -1   5  117.29    5.80
  -3   1  -5  118.09    5.40
  -3   1  -5  112.19    6.00
   3   1   5  117.09    6.50
   3   1   5  120.49    6.30
  -3   1  -5  109.39    6.00
  -3   1  -5  133.39    8.40
  -3   1  -5  119.09    5.60
  -3   1  -5  104.89    7.80
   3   1   5  118.49    6.30
   3   1   5  119.29    6.40
  -4  -1  -5   96.19    6.70
   4  -1   5  103.39    5.60
  -4  -1  -5   97.79    6.40
   4  -1   5  102.39    5.90
  -4  -1  -5   77.99    8.20
  -4  -1  -5   87.79    6.10
  -4  -1  -5   88.09    6.70
  -4  -1  -5   82.39    6.70
   4  -1   5  114.19    8.00
   4  -1   5   97.79    5.90
   4  -1   5   98.49    5.90
  -4   1  -5   97.89    5.40
  -4   1  -5   97.69    5.70
  -4   1  -5  115.69    7.40
   4   1   5  101.29    6.60
   4   1   5  100.29    6.50
  -4   1  -5   93.99    7.80
   4   1   5  101.49    6.70
  -4   1  -5  104.69    6.30
  -4   1  -5   99.69    6.30
   4   1   5   83.79    6.60
  -5  -1  -5   11.80    4.00
   5  -1   5    8.80    3.30
   5  -1   5    2.00    3.20
  -5  -1  -5   -0.70    3.80
  -5  -1  -5    8.00    5.70
   5  -1   5    4.20    5.50
   5  -1   5    5.30    2.90
  -5  -1  -5    3.60    4.60
   5  -1   5    5.20    3.30
  -5  -1  -5    6.20    3.80
  -5  -1  -5    1.60    4.20
  -5   1  -5    8.50    3.20
  -5   1  -5    4.50    4.00
  -5   1  -5   10.00    4.90
   5   1   5    4.80    4.20
  -5   1  -5    7.30    3.10
   5   1   5    8.90    4.10
   5   1   5    7.70    4.20
  -5   1  -5    3.50    5.20
  -5   1  -5    7.00    4.10
   5   1   5    8.50    4.10
  -6  -1  -5   90.89    8.40
   6  -1   5   98.99    7.70
  -6  -1  -5   89.59    9.20
   6  -1   5   92.39    7.50
   6  -1   5   84.29    7.40
  -6  -1  -5   94.89    8.10
   6  -1   5   94.79    8.30
  -6  -1  -5   90.69    8.40
  -6   1  -5   95.49    7.10
  -6   1  -5  100.49    8.50
  -6   1  -5   96.49    7.00
   6   1   5  104.29    8.60
   6   1   5   94.29    9.90
  -6   1  -5  103.19    9.50
  -6   1  -5  102.09    7.60
   6   1   5   84.79    8.10
   6   1   5  111.19    9.10
   7  -1   5  203.48   11.10
  -7  -1  -5  208.08   12.90
  -7  -1  -5  201.58   12.20
   7  -1   5  209.98   12.40
   7  -1   5  189.08   10.90
  -7  -1  -5  197.28   12.70
   7  -1   5  210.48   11.00
  -7  -1  -5  193.38   12.10
  -7   1  -5  164.58   10.40
  -7   1  -5  202.78   12.00
   7   1   5  187.78   12.50
  -7   1  -5  201.08   13.00
   7   1   5  185.48   12.90
   7   1   5  187.88   12.30
  -7   1  -5  199.78   11.10
   8  -1   5   17.50    5.50
   8  -1   5   11.70    5.60
  -8  -1  -5   20.90    8.10
  -8  -1  -5   13.90    7.30
  -8  -1  -5    5.80    7.10
   8  -1   5   12.20    5.80
  -8  -1  -5    9.20    6.70
   8  -1   5    6.40    6.50
  -8  -1  -5    2.80    8.30
   8   1   5   13.80    7.10
  -8   1  -5    4.20    6.30
  -8   1  -5    9.90    4.90
   8   1   5   20.20    7.20
   8   1   5    4.40    7.40
  -8   1  -5   15.90    8.50
   8   1   5   13.40    8.30
  -8   1  -5    4.90    7.70
  -8   1  -5   -2.60    6.90
  -8  -2   5    4.40    5.00
   8  -2  -5   -2.30    4.90
  -8  -2   5   17.50    7.20
   8  -2  -5    8.10    5.90
  -8  -2   5    7.10    7.80
   8  -2  -5    7.20    6.30
   8  -2  -5   11.80    5.00
  -8  -2   5    3.10    6.10
  -8   2   5    2.40    3.10
   8   2  -5    6.90    6.30
   8   2  -5   -4.90    7.20
   8   2  -5    6.10    7.00
  -8   2   5    1.00    8.50
   8   2  -5    6.50    7.20
  -8   2   5    8.80    6.40
  -7  -2   5   39.70    7.00
   7  -2  -5   42.30    4.90
  -7  -2   5   52.39    7.50
  -7  -2   5   43.60    5.80
  -7  -2   5   50.99    7.50
   7  -2  -5   49.80    6.10
   7  -2  -5   54.69    6.00
   7  -2  -5   52.39    6.50
  -7   2   5   51.69    9.80
  -7   2   5   54.69    6.60
   7   2  -5   55.19    7.90
   7   2  -5   40.50    6.30
  -7   2   5   33.50    4.10
   7   2  -5   47.00    8.40
   6  -2  -5   68.59    5.20
   6  -2  -5   58.09    5.90
   6  -2  -5   62.39    7.00
  -6  -2   5   53.89    6.90
  -6  -2   5   66.99    7.10
   6  -2  -5   70.09    7.20
  -6  -2   5   62.69    6.90
  -6  -2   5   69.29    7.90
  -6   2   5   70.29    9.00
  -6   2   5   66.59    3.80
   6   2  -5   74.29    8.60
  -6   2   5   54.19    6.70
   6   2  -5   81.49    7.60
   6   2  -5   69.19    8.10
   6   2  -5   67.39    7.50
   5  -2  -5   90.29    6.00
  -5  -2   5  100.19    7.40
   5  -2  -5  101.49    6.40
  -5  -2   5   87.89    7.10
  -5  -2   5   79.39    7.80
  -5  -2   5   89.59    7.40
   5  -2  -5   86.69    6.20
   5  -2  -5   87.09    4.90
   5   2  -5   90.59    7.60
   5   2  -5   85.79    8.00
  -5   2   5   87.69    6.50
   5   2  -5   85.79    7.10
   5   2  -5   96.59   10.00
   5   2  -5   87.09    6.50
  -5   2   5   97.59   10.60
  -4  -2   5   94.79    6.70
  -4  -2   5  104.99    6.50
   4  -2  -5  104.29    5.40
   4  -2  -5   97.59    5.70
   4  -2  -5  102.99    5.10
   4  -2  -5  102.39    5.60
  -4  -2   5  100.49    6.80
  -4  -2   5  115.99    6.40
  -4   2   5  103.79    9.30
   4   2  -5  101.89    9.60
   4   2  -5  113.99    7.40
  -4   2   5  106.59    5.90
   4   2  -5  105.69    6.00
  -4   2   5  106.19    6.10
   4   2  -5   98.99    6.40
   4   2  -5  110.19    7.10
   3  -2  -5   15.80    2.40
  -3  -2   5   14.40    3.00
   3  -2  -5   22.40    4.70
   3  -2  -5   14.60    2.10
  -3  -2   5   13.10    2.90
  -3  -2   5   25.20    3.10
   3  -2  -5   18.70    2.40
   3  -2  -5   14.70    2.20
  -3   2   5   22.90    5.40
  -3   2   5   15.60    2.80
   3   2  -5   19.40    2.80
  -3   2   5   18.50    2.50
   3   2  -5   16.60    3.40
   3   2  -5   27.20    6.80
   3   2  -5   20.50    2.40
   3   2  -5   15.60    3.30
   2  -2  -5  978.90   32.40
  -2  -2   5  940.91   31.20
  -2  -2   5  947.81   31.10
  -2  -2   5  952.30   31.10
   2  -2  -5  955.10   30.50
   2  -2  -5  970.50   30.50
   2  -2  -5  957.80   30.50
   2  -2  -5  982.20   30.60
  -2  -2   5  966.20   31.10
  -2   2   5  955.40   30.60
   2   2  -5  947.01   31.70
   2   2  -5  966.70   30.40
  -2   2   5  941.31   32.20
   2   2  -5  949.80   30.40
   2   2  -5  982.80   35.00
   2   2  -5  971.00   31.40
   2   2  -5  990.00   31.30
  -2   2   5 1015.00   32.80
   1  -2  -5  530.25   17.00
  -1  -2   5  520.75   17.30
   1  -2  -5  521.05   17.00
  -1  -2   5  523.75   17.30
   1  -2  -5  530.65   17.00
  -1  -2   5  534.05   17.30
  -1  -2   5  528.95   17.30
   1  -2  -5  522.25   18.40
   1  -2  -5  518.35   17.00
   1   2  -5  558.94   18.20
  -1   2   5  540.25   18.80
   1   2  -5  525.65   17.50
   1   2  -5  511.45   21.60
  -1   2   5  516.75   18.60
  -1   2   5  531.85   17.10
   1   2  -5  535.15   17.40
   0  -2   5    3.90    1.30
   0  -2   5    3.50    1.60
   0  -2  -5    4.80    2.20
   0  -2  -5    1.20    1.90
   0  -2   5    4.70    1.40
   0  -2  -5    4.90    1.70
   0  -2  -5    3.70    1.40
   0  -2  -5    1.80    1.50
   0  -2   5    4.90    1.30
   0   2   5    1.00    1.70
   0   2  -5    5.60    1.50
   0   2   5    3.40    3.10
   0   2  -5   10.20    6.00
   0   2   5    2.50    1.70
   0   2  -5    4.60    2.90
  -1  -2  -5  225.88    8.40
   1  -2   5  235.78   11.40
   1  -2   5  223.88    7.70
  -1  -2  -5  228.18    8.40
   1  -2   5  220.98    7.70
  -1  -2  -5  238.28    8.50
  -1  -2  -5  225.98    8.30
   1  -2   5  232.68    7.70
  -1  -2  -5  229.98    8.50
   1  -2   5  227.58    7.80
   1   2   5  214.98    8.70
  -1   2  -5  222.48    9.20
   1   2   5  228.68   10.00
   1   2   5  225.38    8.60
  -1   2  -5  200.58    8.20
  -1   2  -5  231.98    7.90
  -1   2  -5  230.08   13.10
   2  -2   5   15.70    1.70
   2  -2   5    9.30    2.20
  -2  -2  -5    8.30    2.40
   2  -2   5   12.90    2.00
   2  -2   5   11.00    1.80
  -2  -2  -5   15.20    2.60
  -2  -2  -5   13.10    2.50
   2  -2   5   13.30    4.80
  -2  -2  -5   15.40    2.50
   2   2   5    9.80    2.70
   2   2   5   11.70    3.00
   2   2   5    9.00    3.50
   2   2   5   11.50    1.90
   2   2   5   12.40    2.30
  -2   2  -5    9.20    6.30
  -2   2  -5   10.90    2.00
  -3  -2  -5   46.80    4.80
  -3  -2  -5   41.20    4.40
   3  -2   5   36.00    3.60
  -3  -2  -5   44.80    4.60
   3  -2   5   46.30    7.10
   3  -2   5   37.50    3.40
   3  -2   5   41.50    3.90
   3  -2   5   44.80    3.20
  -3  -2  -5   36.90    4.50
   3   2   5   40.20    4.20
  -3   2  -5   54.59    7.70
   3   2   5   47.70    5.30
   3   2   5   41.50    4.40
   3   2   5   45.00    5.00
  -3   2  -5   36.90    3.90
  -3   2  -5   40.00    4.20
  -4  -2  -5  112.59    7.80
  -4  -2  -5  130.29    7.30
   4  -2   5  122.69    5.90
   4  -2   5  134.89    6.80
  -4  -2  -5  143.09    7.90
   4  -2   5  123.79    6.70
   4  -2   5  125.69   10.40
   4  -2   5  130.69    6.40
  -4  -2  -5  135.09    7.70
   4   2   5  134.49    7.30
  -4   2  -5  112.69   11.80
   4   2   5  137.19    8.30
  -4   2  -5  128.59    6.90
   4   2   5  122.69    8.10
  -4   2  -5  141.59   10.20
   4   2   5  125.29    7.20
  -4   2  -5  130.79    7.00
   5  -2   5   -1.60    3.10
   5  -2   5   -2.90    3.10
   5  -2   5    2.30    3.20
   5  -2   5    0.30    2.30
  -5  -2  -5    2.00    3.30
   5  -2   5    2.50    6.30
  -5  -2  -5    2.60    4.40
  -5  -2  -5    0.20    3.60
  -5  -2  -5    1.80    4.20
   5   2   5    3.50    3.80
  -5   2  -5   -2.20    3.60
  -5   2  -5    0.40    1.30
  -5   2  -5   -1.50    6.30
   5   2   5   -5.20    4.40
   5   2   5    3.10    4.00
  -5   2  -5    2.00    1.80
  -5   2  -5   -3.40    6.60
  -5   2  -5   -0.90    3.80
   6  -2   5   30.00    5.10
  -6  -2  -5   28.50    6.70
  -6  -2  -5   23.90    4.70
   6  -2   5   39.00    4.60
   6  -2   5   22.60    4.10
  -6  -2  -5   24.00    6.20
  -6  -2  -5   40.30    6.30
   6  -2   5   32.20    4.90
  -6   2  -5   28.60    3.30
   6   2   5   26.10    7.40
  -6   2  -5   26.40    3.40
  -6   2  -5   26.30    7.30
   6   2   5   40.10    6.30
   6   2   5   34.80    5.60
  -6   2  -5   33.30    5.20
  -7  -2  -5   -4.90    6.20
   7  -2   5    4.70    4.60
  -7  -2  -5   -2.00    5.20
  -7  -2  -5    2.20    6.40
   7  -2   5    2.00    4.00
  -7  -2  -5    5.20    6.90
   7  -2   5   -0.50    5.00
  -7  -2  -5   -5.60    5.80
   7  -2   5    5.70    5.80
  -7   2  -5    3.50    6.50
  -7   2  -5  -11.50    8.10
   7   2   5   -5.00    5.80
   7   2   5    6.50    5.70
  -7   2  -5    5.60    3.30
  -7   2  -5    4.00    2.50
   7   2   5   12.30    7.80
   7   2   5    4.90    7.30
  -7   2  -5   -0.20    5.60
   8  -2   5    0.70    6.50
   8   2   5  -10.70    6.30
   7  -3  -5    3.60    5.20
  -7  -3   5   19.40    5.10
  -7  -3   5   14.90    7.80
   7  -3  -5    3.40    4.30
  -7  -3   5   11.10    4.90
   7  -3  -5    3.80    4.90
  -7   3   5    5.10    6.10
  -7   3   5    4.90    4.00
   7   3  -5    4.00    8.00
   7   3  -5   -5.50    5.90
  -7   3   5    5.00   10.10
   7   3  -5    5.70   15.10
   7   3  -5    3.60    5.00
   7   3  -5    4.50    5.50
  -6  -3   5   26.50    6.60
  -6  -3   5   25.20    5.60
   6  -3  -5   33.10    4.50
   6  -3  -5   37.10    5.50
   6  -3  -5   30.20    4.10
  -6  -3   5   35.10    5.70
   6  -3  -5   31.10    5.60
   6   3  -5   38.80    7.60
   6   3  -5   42.30   14.20
  -6   3   5   26.70   11.30
   6   3  -5   30.90    4.90
   6   3  -5   26.40    4.70
   6   3  -5   38.70    6.70
   5  -3  -5    5.40    3.10
  -5  -3   5   -4.60    4.00
   5  -3  -5    0.60    3.40
  -5  -3   5   -1.20    3.90
   5  -3  -5   -4.50    2.90
   5  -3  -5   -2.70    2.80
  -5  -3   5    6.10    4.90
  -5   3   5    1.40    4.00
   5   3  -5   -7.20    4.60
   5   3  -5    1.80    2.90
  -5   3   5   -2.50    8.40
  -5   3   5   -3.20    3.30
   5   3  -5    3.00    3.10
   5   3  -5   -6.30   11.30
   4  -3  -5    1.20    6.70
   4  -3  -5   -0.90    2.30
  -4  -3   5   -3.50    3.60
  -4  -3   5    4.80    2.80
  -4  -3   5   -4.20    3.80
   4  -3  -5    3.10    2.80
   4  -3  -5    1.20    1.80
   4  -3  -5   -0.30    1.70
  -4  -3   5   -2.70    3.70
  -4   3   5   -2.40    1.90
  -4   3   5    0.10    2.40
  -4   3   5    0.80    7.80
   4   3  -5    1.80    2.00
   4   3  -5    0.30    3.80
   4   3  -5   -1.30    1.50
   4   3  -5   19.10   11.50
   4   3  -5   -5.50    3.80
   4   3  -5   -2.40    4.40
  -3  -3   5   64.49    6.10
  -3  -3   5   63.29    4.60
  -3  -3   5   75.19    5.80
  -3  -3   5   66.79    5.90
   3  -3  -5   74.69    4.60
   3  -3  -5   86.29    9.90
   3  -3  -5   61.49    3.60
  -3   3   5   78.39    3.80
   3   3  -5   65.29    6.40
   3   3  -5   73.79   13.70
   3   3  -5   58.59    6.50
   3   3  -5   67.99    6.00
  -3   3   5   71.49    3.40
  -3   3   5   72.79    9.20
   2  -3  -5  203.98    7.40
  -2  -3   5  192.18    8.30
  -2  -3   5  195.48    8.10
   2  -3  -5  207.48   11.00
   2  -3  -5  203.58    7.10
  -2  -3   5  201.78    8.70
  -2  -3   5  203.08    8.50
   2   3  -5  195.28    8.40
   2   3  -5  215.28   18.40
   2   3  -5  208.58    9.90
   2   3  -5  199.88    8.80
  -2   3   5  194.08    6.70
  -2   3   5  197.38    6.70
  -2   3   5  209.98   10.70
  -1  -3   5   -1.20    2.20
  -1  -3   5    1.30    1.70
   1  -3  -5    1.10    1.90
   1  -3  -5    4.10    4.10
   1  -3  -5    0.60    1.20
  -1  -3   5    0.00    1.60
  -1  -3   5    0.00    1.60
  -1   3   5    1.90    1.20
   1   3  -5    1.00    2.10
   1   3  -5    2.40    1.90
   1   3  -5   -1.40    3.80
  -1   3   5   -0.80    1.10
  -1   3   5    2.30    3.80
   1   3  -5    0.10   10.40
   0  -3  -5  122.69    5.00
   0  -3  -5  121.09    5.90
   0  -3   5  125.89    5.20
   0  -3  -5  124.09    7.50
   0  -3   5  126.29   11.20
   0  -3   5  120.69    4.80
   0   3  -5  108.49   15.30
   0   3  -5  109.59    7.30
   0   3  -5  115.19    4.60
   0   3   5  117.39    5.00
   0   3   5  108.89    7.50
   0   3   5  122.39    5.20
   0   3  -5  123.49    4.60
   1  -3   5  366.86   12.20
   1  -3   5  405.46   17.80
  -1  -3  -5  370.56   13.10
  -1  -3  -5  402.06   14.50
  -1  -3  -5  360.56   12.80
   1  -3   5  365.56   12.40
  -1  -3  -5  369.56   13.40
  -1  -3  -5  368.26   13.00
   1   3   5  376.06   13.20
   1   3   5  360.96   15.10
  -1   3  -5  367.56   14.80
  -1   3  -5  370.86   21.80
   2  -3   5    9.10    6.80
  -2  -3  -5    7.20    2.80
   2  -3   5    6.50    1.40
  -2  -3  -5    8.10    3.90
  -2  -3  -5   10.00    2.30
  -2  -3  -5    5.60    2.60
  -2  -3  -5    7.00    3.00
   2  -3   5    6.70    2.10
  -2   3  -5    5.60    1.40
  -2   3  -5    8.50   11.00
  -2   3  -5    4.10    1.20
   2   3   5    3.60    3.10
   2   3   5    7.20    3.40
   2   3   5    0.60    3.90
  -3  -3  -5   93.09    6.80
  -3  -3  -5  105.59    5.60
  -3  -3  -5   93.89    6.50
   3  -3   5   98.99    5.70
  -3  -3  -5  107.39    7.10
   3  -3   5   98.79   10.90
   3   3   5   99.59    7.10
  -3   3  -5   96.39    4.90
   3   3   5   99.19    6.90
  -3   3  -5   98.69    4.50
  -3   3  -5  106.39   16.30
   3   3   5  100.59    8.10
   4  -3   5   -1.70    2.00
   4  -3   5    2.10    2.70
  -4  -3  -5   -5.00    4.20
   4  -3   5   -1.20    2.10
  -4  -3  -5    5.00    3.60
  -4  -3  -5   -3.70    3.20
  -4  -3  -5    3.40    3.60
   4  -3   5    1.90    3.00
   4   3   5   -2.40    4.70
   4   3   5    3.90    2.50
   4   3   5    0.00    2.60
  -4   3  -5    7.50   14.20
  -4   3  -5    4.20    3.20
   4   3   5   -6.00    3.90
   4   3   5   -3.20    4.50
   5  -3   5   -1.40    3.80
   5  -3   5    2.40    3.20
  -5  -3  -5    1.90    5.30
  -5  -3  -5   -7.20    4.30
  -5  -3  -5    5.20    4.10
  -5  -3  -5    2.40    4.20
   5  -3   5   -0.30    3.30
   5  -3   5    3.50    4.20
   5   3   5    2.60    5.30
   5   3   5   -3.60    3.50
   5   3   5    2.80    5.10
   5   3   5    5.00    3.70
  -5   3  -5    5.30    4.20
  -5   3  -5    0.20   16.40
  -5   3  -5    2.80    3.70
   5   3   5   -6.00    5.90
   6  -3   5  118.79    8.80
  -6  -3  -5  125.49    9.60
   6  -3   5  112.49    7.50
   6  -3   5  115.29    5.40
   6  -3   5  103.19    8.50
   6  -3   5  114.89   14.50
  -6  -3  -5  114.09    9.80
  -6  -3  -5  123.79   10.50
  -6  -3  -5   88.89   11.80
   6   3   5   83.39    9.30
   6   3   5  107.09   11.60
   6   3   5  102.19    8.90
   6   3   5  110.19   11.70
  -6   3  -5  101.99   11.10
   4  -4  -5    3.20    2.70
   4  -4  -5    7.10    9.90
  -4  -4   5    2.90    5.30
   4  -4  -5    6.40    3.30
  -4  -4   5   -2.30    4.00
  -4  -4   5    1.40    4.90
   4   4  -5    3.10   12.40
   4   4  -5    3.80    8.10
   4   4  -5    1.50    4.20
   4   4  -5    5.70    5.80
   3  -4  -5   81.49   10.90
  -3  -4   5   62.19    7.90
  -3  -4   5   57.59    5.80
   3  -4  -5   60.89    4.50
  -3  -4   5   46.90    5.30
   3  -4  -5   58.09    3.50
  -3  -4   5   64.69    7.10
   3   4  -5   60.19   14.00
   3   4  -5   42.50    5.30
   3   4  -5   56.79    7.60
  -2  -4   5    2.10    2.90
   2  -4  -5    7.40    1.40
  -2  -4   5   11.30    3.80
   2  -4  -5    6.50    2.20
   2  -4  -5    6.10    6.90
  -2   4   5    2.00    6.30
   2   4  -5    1.00    3.20
   2   4  -5   17.60   11.90
   2   4  -5    1.20    5.20
   1  -4  -5    0.10    1.30
   1  -4  -5    2.70    2.30
   1  -4  -5    3.80    5.80
  -1  -4   5   -4.10    2.90
  -1  -4   5    7.50    9.20
  -1  -4   5    2.60    2.40
   1   4  -5    3.00    4.30
  -1   4   5   -0.20    5.00
   1   4  -5    2.30   11.30
   0  -4   5   56.29    4.30
   0  -4   5   61.29   10.50
   0  -4  -5   64.19    7.90
   0  -4   5   62.29    3.40
   0  -4  -5   55.49    3.60
   0   4   5   63.59    8.30
   0   4  -5   49.80    6.70
   0   4  -5   61.59   14.60
  -1  -4  -5   29.80    4.10
  -1  -4  -5   38.70    5.90
   1  -4   5   28.20    3.20
  -1  -4  -5   25.70    3.30
   1  -4   5   18.70    9.70
   1  -4   5   27.80    2.20
   1   4   5   24.90    3.20
   1   4   5   21.80    6.00
  -1   4  -5   28.60    6.10
  -1   4  -5   23.50   13.20
   2  -4   5   40.80    3.70
  -2  -4  -5   36.60    6.10
  -2  -4  -5   41.40    5.30
  -2  -4  -5   37.40    3.80
  -2  -4  -5   44.30    5.20
   2  -4   5   39.50    2.40
   2  -4   5   40.00   10.80
   2   4   5   34.70    4.90
   2   4   5   43.90    8.80
  -2   4  -5   26.90   14.40
  -3  -4  -5    1.30    3.60
   3  -4   5    0.70    2.80
  -3  -4  -5    3.10    3.30
  -3  -4  -5    2.00    4.40
   3  -4   5    3.30    2.30
  -3  -4  -5   -1.40    4.50
  -3  -4  -5    6.60    5.10
   3  -4   5   -7.60    9.70
   3   4   5    1.10    8.60
  -3   4  -5    1.10   16.70
   3   4   5    6.40    3.90
   4  -4   5   32.90    9.30
   4  -4   5   40.30    5.00
  -4  -4  -5   35.00    4.30
  -4  -4  -5   18.60    5.00
  -4  -4  -5   36.90    6.20
   4  -4   5   28.60    3.80
  -4  -4  -5   23.40    6.10
   4   4   5   34.60    7.40
  -4   4  -5   36.00   20.50
   4   4   5   39.30   10.10
   9   0  -6    1.90    5.90
   9   0  -6    0.10    6.70
  -9   0   6  -11.80    6.70
  -9   0   6   -0.20    8.70
  -9   0   6   -1.80    7.80
  -9   0   6   -7.30    6.30
  -9   0   6    8.40    6.40
   9   0  -6   -4.80    6.00
   9   0  -6  -12.80    7.10
   8   0  -6   16.20    7.10
  -8   0   6    8.40    6.00
  -8   0   6   11.20    7.40
   8   0  -6    0.60    6.30
   8   0  -6   28.00    6.40
  -8   0   6   26.40    6.70
   8   0  -6   26.90    6.10
  -8   0   6   12.20    7.20
  -7   0   6    0.20    4.60
   7   0  -6    1.20    4.80
  -7   0   6   -5.70    5.80
  -7   0   6   -9.20    4.80
   7   0  -6   -3.50    4.80
   7   0  -6   -1.30    4.20
  -7   0   6   -2.70    4.70
   7   0  -6   -5.80    4.80
   6   0  -6   14.20    4.80
   6   0  -6   26.30    5.00
  -6   0   6   13.10    4.50
  -6   0   6   27.60    5.00
  -6   0   6   16.20    4.80
  -6   0   6   16.10    4.20
   6   0  -6   18.10    4.30
   6   0  -6   20.40    4.90
   5   0  -6   -5.90    3.30
  -5   0   6    2.90    3.10
  -5   0   6    4.90    3.30
   5   0  -6    1.50    3.20
   5   0  -6   -6.00    3.00
   5   0  -6   -3.60    3.60
  -5   0   6    0.30    3.50
  -5   0   6   -0.90    3.10
   4   0  -6   44.60    4.80
  -4   0   6   44.40    4.90
   4   0  -6   45.10    4.90
   4   0  -6   44.80    5.00
  -4   0   6   50.59    4.90
  -4   0   6   48.60    4.80
   4   0  -6   45.90    4.80
  -4   0   6   47.70    5.10
   3   0  -6   -0.50    2.10
   3   0  -6   -1.20    2.80
  -3   0   6   -2.10    2.50
  -3   0   6   -2.50    2.90
  -3   0   6   -2.20    2.10
   3   0  -6   -2.90    2.60
   3   0  -6   -0.90    2.20
  -2   0   6    1.70    2.40
  -2   0   6    2.10    2.00
   2   0  -6    3.90    1.90
  -2   0   6    2.90    2.10
   2   0  -6    3.80    2.40
  -2   0   6   -0.60    2.10
   2   0  -6    1.80    2.00
   2   0  -6    4.40    2.00
  -1   0   6    3.00    2.10
  -1   0   6    1.90    2.10
   1   0  -6    1.30    2.20
  -1   0   6    4.20    2.40
  -1   0   6    4.20    2.30
   1   0  -6   -1.60    1.90
   1   0  -6    3.50    2.40
   1   0  -6   -1.30    1.90
   0   0   6   28.80    3.50
   0   0  -6   30.00    3.60
   0   0  -6   19.90    2.70
   0   0  -6   27.30    3.50
   0   0   6   16.20    2.00
   0   0   6   34.50    3.50
   0   0  -6   27.80    3.50
   0   0   6   18.80    2.60
   0   0   6   27.70    3.40
  -1   0  -6   -2.20    2.10
   1   0   6    0.50    1.80
   1   0   6   -0.10    1.90
  -1   0  -6    1.00    2.20
  -1   0  -6   -0.80    2.10
  -1   0  -6   -1.50    1.70
   1   0   6    1.20    2.30
   1   0   6   -2.20    1.80
   1   0   6   -0.50    2.10
   2   0   6 2103.79   65.49
  -2   0  -6 2051.09   65.39
  -2   0  -6 2154.08   65.59
  -2   0  -6 2094.39   65.59
  -2   0  -6 2093.09   65.39
   2   0   6 2136.29   65.69
   2   0   6 2146.69   65.59
  -2   0  -6 1873.41   65.39
   2   0   6 2117.89   65.49
   2   0   6 2074.49   65.39
  -3   0  -6    1.40    2.60
  -3   0  -6    2.90    2.30
  -3   0  -6   -1.40    2.80
  -3   0  -6   -1.00    2.70
   3   0   6   -0.80    2.40
   3   0   6   -0.90    2.70
   3   0   6   -1.70    2.80
   3   0   6    1.10    2.80
   3   0   6    2.70    2.80
   4   0   6   61.79    5.50
   4   0   6   68.19    5.20
  -4   0  -6   81.49    6.30
  -4   0  -6   72.69    5.90
  -4   0  -6   66.99    5.60
  -4   0  -6   62.09    5.80
  -4   0  -6   76.99    6.00
   4   0   6   69.89    5.60
   4   0   6   74.09    5.70
  -5   0  -6    0.50    2.90
  -5   0  -6   -3.00    3.90
  -5   0  -6   -1.60    3.60
   5   0   6    2.40    3.50
  -5   0  -6    0.50    3.90
  -5   0  -6    4.10    3.80
   5   0   6    4.80    4.10
   5   0   6   -1.40    3.30
   5   0   6   -0.90    3.20
   6   0   6   83.09    8.60
  -6   0  -6   87.49    8.20
   6   0   6   98.99    8.60
  -6   0  -6   99.69    8.20
  -6   0  -6   85.99    8.60
  -6   0  -6   88.59    8.50
  -6   0  -6   97.49    9.40
   6   0   6   97.29    8.40
   6   0   6   84.29    8.30
   7   0   6    3.90    5.50
  -7   0  -6    9.00    5.70
   7   0   6    2.10    5.10
  -7   0  -6    5.20    5.50
  -7   0  -6   -1.10    5.30
   7   0   6   -7.00    5.00
  -7   0  -6   -3.30    5.60
  -7   0  -6   -5.90    6.20
  -8   0  -6    5.50    7.00
   8   0   6   -6.40    6.40
  -8   0  -6    5.60    7.30
  -8   0  -6    1.60    6.80
   8   0   6   12.60    7.00
   8   0   6   -3.80    5.50
  -8   0  -6   12.50    6.60
  -8   0  -6   -6.20    7.20
   8   0   6    3.30    6.20
  -9  -1   6   -1.90    5.40
   9  -1  -6   -0.70    5.20
   9  -1  -6   -0.10    6.50
  -9  -1   6  -14.00    7.20
  -9  -1   6    4.90    5.70
   9  -1  -6   -2.10    5.40
   9  -1  -6   -0.30    6.60
  -9  -1   6    0.70    7.60
   9   1  -6   -4.90    8.30
  -9   1   6    7.10    6.70
   9   1  -6   -9.40    6.20
  -9   1   6   -0.50    6.30
   9   1  -6   -1.90    7.10
  -9   1   6   -9.50    6.30
  -9   1   6   10.70    8.70
   9   1  -6   -5.40    5.80
  -9   1   6    4.90    7.00
   8  -1  -6   68.79    7.20
   8  -1  -6   65.19    8.40
   8  -1  -6   68.99    7.80
  -8  -1   6   50.39    7.60
  -8  -1   6   61.59    8.60
   8  -1  -6   55.89    7.80
  -8  -1   6   71.49    8.90
  -8   1   6   69.59    8.40
   8   1  -6   76.89    9.10
   8   1  -6   81.39    9.00
   8   1  -6   78.39    9.20
  -8   1   6   66.89    9.90
   8   1  -6   84.99   10.20
  -8   1   6   70.99    8.00
  -8   1   6   60.49    7.50
  -7  -1   6  115.59    9.20
   7  -1  -6  105.09    7.60
  -7  -1   6  104.09    9.20
  -7  -1   6   89.49    9.60
   7  -1  -6   76.49    7.00
   7  -1  -6   89.59    8.80
   7  -1  -6   95.49    7.60
  -7   1   6   97.79    8.40
   7   1  -6   98.69    9.80
  -7   1   6   96.29   10.90
   7   1  -6   88.69    9.40
  -7   1   6   88.39    7.80
   7   1  -6   87.09    8.30
  -7   1   6   88.19    7.70
   7   1  -6   88.29    9.30
   6  -1  -6   64.69    6.40
  -6  -1   6   65.49    7.60
  -6  -1   6   53.09    7.00
   6  -1  -6   59.29    5.80
   6  -1  -6   60.89    6.20
  -6  -1   6   52.19    6.40
  -6  -1   6   52.39    7.00
   6  -1  -6   78.09    6.80
   6  -1  -6   54.39   10.30
   6   1  -6   53.49    5.60
  -6   1   6   55.49    7.20
   6   1  -6   61.69    7.80
  -6   1   6   48.90    5.60
  -6   1   6   46.80    6.10
  -6   1   6   65.69    8.50
   6   1  -6   48.10    5.70
   6   1  -6   52.89    6.60
  -6   1   6   56.99    5.70
   5  -1  -6    0.30    2.70
  -5  -1   6    4.10    3.40
   5  -1  -6   -1.10    2.60
  -5  -1   6    2.60    3.70
  -5  -1   6   -1.80    3.30
  -5  -1   6    0.30    3.60
   5  -1  -6    1.60    3.20
   5  -1  -6    0.10    3.30
  -5   1   6   -0.40    3.00
   5   1  -6    6.80    3.60
  -5   1   6    2.90    2.70
  -5   1   6    3.30    5.50
   5   1  -6   -2.40    3.40
   5   1  -6    0.30    4.00
  -5   1   6   -0.30    3.20
  -5   1   6    0.90    3.70
   5   1  -6    0.50    3.20
  -4  -1   6    3.80    2.80
  -4  -1   6    4.30    3.40
   4  -1  -6    3.30    2.60
   4  -1  -6    3.80    2.40
   4  -1  -6    1.30    2.20
  -4  -1   6    4.20    2.80
  -4  -1   6    1.60    3.00
   4  -1  -6   -4.00    1.90
  -4   1   6    2.70    4.30
  -4   1   6    0.10    2.40
   4   1  -6   -1.10    2.70
   4   1  -6   -1.20    2.90
   4   1  -6    2.00    3.60
  -4   1   6    6.40    3.00
  -4   1   6    6.90    2.20
   4   1  -6    2.30    2.70
   3  -1  -6   16.10    2.50
  -3  -1   6   16.20    3.20
  -3  -1   6   12.40    2.70
   3  -1  -6   18.00    2.50
   3  -1  -6   12.60    2.80
  -3  -1   6   19.50    3.20
   3  -1  -6   16.10    2.60
  -3   1   6   16.10    3.00
  -3   1   6   10.70    2.60
  -3   1   6   18.90    4.50
  -3   1   6   18.80    2.30
   3   1  -6   18.20    3.10
   3   1  -6   13.90    3.20
  -3   1   6   13.10    2.40
   3   1  -6   20.00    2.90
   3   1  -6   10.80    2.90
   2  -1  -6  603.64   19.70
  -2  -1   6  610.84   20.00
  -2  -1   6  615.54   20.10
   2  -1  -6  614.44   19.70
   2  -1  -6  590.54   19.60
  -2  -1   6  595.64   20.10
  -2  -1   6  583.54   19.90
   2  -1  -6  605.24   19.80
   2   1  -6  596.14   19.80
  -2   1   6  628.14   19.90
   2   1  -6  606.94   20.10
  -2   1   6  581.04   20.60
  -2   1   6  593.04   19.50
   2   1  -6  614.94   20.20
   2   1  -6  585.34   19.90
  -2   1   6  610.74   19.80
  -2   1   6  604.84   19.40
  -1  -1   6  194.58    7.30
  -1  -1   6  191.28    7.40
   1  -1  -6  196.28    7.30
  -1  -1   6  205.28    7.30
   1  -1  -6  194.68    7.30
   1  -1  -6  198.58    7.20
   1  -1  -6  193.28    7.10
  -1  -1   6  196.68    7.40
  -1   1   6  200.68    7.90
  -1   1   6  194.88    7.00
   1   1  -6  192.98    7.50
  -1   1   6  200.98    7.30
   1   1  -6  197.08    7.40
   1   1  -6  195.78    7.30
   1   1  -6  204.48    7.10
  -1   1   6  186.18    7.70
  -1   1   6  187.98    7.20
  -1   1   6  195.68    6.80
   0  -1  -6 1156.88   37.60
   0  -1  -6 1163.38   37.60
   0  -1   6 1175.48   37.50
   0  -1   6 1159.88   37.50
   0  -1   6 1186.28   37.60
   0  -1  -6 1208.08   37.70
   0  -1   6 1211.78   37.60
   0  -1  -6 1175.08   37.70
   0   1  -6 1216.98   37.70
   0   1   6 1196.58   37.80
   0   1  -6 1169.18   37.40
   0   1   6 1329.07   37.30
   0   1   6 1216.38   38.00
   0   1   6 1210.98   37.50
   0   1  -6 1151.98   37.30
   0   1  -6 1157.68   37.60
   0   1   6 1187.88   37.70
   0   1  -6 1180.48   37.40
   0   1   6 1203.38   37.50
   1  -1   6  914.01   29.30
   1  -1   6  937.91   29.40
   1  -1   6  883.71   29.40
  -1  -1  -6  940.01   29.60
   1  -1   6  924.01   29.30
  -1  -1  -6  929.51   29.60
  -1  -1  -6  911.01   29.70
  -1  -1  -6  887.41   29.60
  -1   1  -6  922.51   29.10
  -1   1  -6  992.20   29.60
   1   1   6  913.61   29.50
  -1   1  -6  908.41   29.50
   1   1   6  936.01   29.70
   1   1   6  907.51   29.50
   1   1   6  943.81   29.80
  -1   1  -6  938.81   29.20
   1   1   6  890.21   29.90
   2  -1   6   10.60    2.00
   2  -1   6    9.40    2.20
  -2  -1  -6    6.10    2.40
  -2  -1  -6    4.80    2.70
  -2  -1  -6    6.30    1.70
   2  -1   6    9.80    2.40
  -2  -1  -6    7.60    2.50
  -2  -1  -6    4.80    2.10
   2  -1   6    8.30    3.90
   2  -1   6    8.40    2.10
  -2   1  -6    8.30    2.00
  -2   1  -6    9.50    4.70
   2   1   6    3.40    2.20
   2   1   6    7.20    2.40
   2   1   6    8.60    3.00
   2   1   6    8.10    2.30
  -2   1  -6    6.70    2.40
  -2   1  -6   11.70    1.80
  -2   1  -6    9.70    2.60
  -3  -1  -6  322.77   12.80
   3  -1   6  359.86   12.60
   3  -1   6  361.16   14.00
  -3  -1  -6  353.66   13.20
   3  -1   6  343.97   12.70
  -3  -1  -6  351.86   13.10
   3  -1   6  356.96   12.50
   3  -1   6  349.07   12.60
  -3  -1  -6  344.77   12.30
  -3  -1  -6  352.76   13.00
   3   1   6  366.46   13.00
  -3   1  -6  347.97   12.30
  -3   1  -6  353.46   12.30
   3   1   6  354.16   12.90
  -3   1  -6  336.97   14.20
  -3   1  -6  358.26   14.70
   3   1   6  339.47   13.00
  -3   1  -6  338.77   12.80
  -3   1  -6  359.76   12.80
   3   1   6  335.17   13.30
   4  -1   6  416.56   15.00
  -4  -1  -6  425.66   15.80
   4  -1   6  398.06   14.90
  -4  -1  -6  374.16   14.90
  -4  -1  -6  410.56   15.50
  -4  -1  -6  434.36   15.70
  -4  -1  -6  391.56   15.60
   4  -1   6  439.06   15.30
   4  -1   6  414.36   16.70
   4  -1   6  387.06   15.00
  -4   1  -6  401.86   15.30
  -4   1  -6  409.36   14.70
   4   1   6  408.86   15.50
  -4   1  -6  388.76   16.60
   4   1   6  415.96   15.70
   4   1   6  440.66   16.10
  -4   1  -6  471.05   16.60
  -4   1  -6  419.16   14.80
   4   1   6  418.76   15.50
  -4   1  -6  423.86   15.40
  -5  -1  -6  216.48   10.80
   5  -1   6  225.58   12.50
   5  -1   6  201.58   10.40
   5  -1   6  218.58   10.00
  -5  -1  -6  202.68   11.50
  -5  -1  -6  235.98   10.80
  -5  -1  -6  201.38   10.20
   5  -1   6  238.38   10.20
   5  -1   6  222.88   10.10
  -5  -1  -6  236.18   11.30
  -5  -1  -6  203.28   11.10
  -5   1  -6  225.18   12.10
  -5   1  -6  239.68    9.90
   5   1   6  216.88   10.70
  -5   1  -6  242.98   10.70
  -5   1  -6  238.38    9.80
   5   1   6  230.18   11.10
   5   1   6  236.98   11.10
  -5   1  -6  195.68   10.50
   5   1   6  225.58   10.90
   6  -1   6  492.85   18.70
   6  -1   6  473.15   18.80
  -6  -1  -6  491.95   19.60
  -6  -1  -6  490.05   19.50
  -6  -1  -6  481.05   19.20
   6  -1   6  505.35   18.70
  -6  -1  -6  474.75   18.80
   6  -1   6  519.15   18.70
   6   1   6  461.45   19.40
  -6   1  -6  478.05   20.80
   6   1   6  489.85   19.30
   6   1   6  486.65   19.20
  -6   1  -6  485.65   19.00
  -6   1  -6  511.45   18.20
  -6   1  -6  456.55   17.90
   6   1   6  488.35   19.30
  -7  -1  -6   11.70    6.90
  -7  -1  -6    2.10    5.80
  -7  -1  -6    7.20    6.80
  -7  -1  -6    8.20    6.20
   7  -1   6   10.50    5.70
   7  -1   6    5.80    5.10
   7  -1   6    8.60    5.00
   7  -1   6    6.20    4.00
  -7   1  -6    0.60    4.50
  -7   1  -6    5.70    7.30
   7   1   6   -3.90    5.60
   7   1   6   12.30    6.10
  -7   1  -6   10.10    4.80
   7   1   6    1.30    6.20
   7   1   6   -4.30    7.20
  -7   1  -6    1.00    6.10
   8  -1   6    2.10    5.80
  -8  -1  -6   11.20    8.40
  -8  -1  -6   -9.40    6.90
   8  -1   6   -5.60    5.90
   8  -1   6   -0.60    6.80
  -8  -1  -6   -7.60    8.00
   8  -1   6    4.20    4.50
  -8  -1  -6    1.50    6.50
  -8  -1  -6    5.60    6.50
  -8   1  -6    6.30    5.10
   8   1   6   11.10    7.60
   8   1   6    0.50    7.20
  -8   1  -6    3.80    6.80
   8   1   6  -11.70    6.50
   8   1   6   -5.20    6.40
  -8   1  -6    0.80    8.60
  -8   1  -6   -8.10    7.10
   8  -2  -6  197.78   11.70
   8  -2  -6  196.78   12.90
  -8  -2   6  205.58   13.90
   8  -2  -6  207.78   13.20
  -8  -2   6  250.57   14.20
   8  -2  -6  230.88   11.50
  -8  -2   6  191.28   13.80
  -8  -2   6  190.28   12.20
  -8   2   6  240.58   13.20
   8   2  -6  241.08   14.50
   8   2  -6  222.88   13.60
   8   2  -6  185.08   13.80
  -8   2   6  209.98   16.40
   8   2  -6  240.48   15.30
   7  -2  -6   -1.80    4.70
  -7  -2   6    5.30    5.40
   7  -2  -6    1.00    4.20
  -7  -2   6   -3.50    5.00
  -7  -2   6    0.70    4.90
   7  -2  -6   -4.40    4.30
   7  -2  -6   -5.20    3.70
  -7  -2   6   -2.40    6.10
  -7   2   6   18.50    8.00
   7   2  -6   -1.00    5.10
   7   2  -6    2.50    6.10
   7   2  -6   -0.90    6.70
  -7   2   6   -2.80    4.70
  -7   2   6    0.80    2.60
   6  -2  -6  329.67   12.80
  -6  -2   6  333.97   14.10
   6  -2  -6  315.67   13.60
  -6  -2   6  315.57   14.40
   6  -2  -6  313.17   13.00
  -6  -2   6  298.37   14.60
  -6  -2   6  293.67   14.20
   6  -2  -6  328.77   13.80
  -6   2   6  322.57   13.50
   6   2  -6  344.57   14.10
   6   2  -6  352.96   14.70
   6   2  -6  334.37   14.70
  -6   2   6  332.87   11.40
   6   2  -6  334.17   16.00
  -6   2   6  335.57   17.50
  -5  -2   6   22.80    4.60
  -5  -2   6   27.40    4.60
   5  -2  -6   24.40    3.80
   5  -2  -6   35.20    4.30
  -5  -2   6   35.80    5.10
   5  -2  -6   25.90    3.00
  -5  -2   6   31.70    4.90
   5  -2  -6   29.40    3.90
  -5   2   6   22.80    4.30
   5   2  -6   37.00    5.80
   5   2  -6   30.60    5.10
   5   2  -6   26.40    7.70
  -5   2   6   27.90    2.10
  -5   2   6   28.70    7.10
  -5   2   6   28.40    4.20
   5   2  -6   24.00    4.40
   5   2  -6   35.50    4.50
   4  -2  -6   22.60    2.70
  -4  -2   6   13.20    3.80
   4  -2  -6   18.70    3.00
   4  -2  -6   21.30    3.10
   4  -2  -6   15.60    2.70
  -4  -2   6   17.20    3.60
  -4  -2   6   17.50    3.60
  -4   2   6   18.60    3.40
  -4   2   6   20.70    3.30
   4   2  -6   18.90    3.50
   4   2  -6   16.30    6.90
   4   2  -6   20.40    4.40
   4   2  -6   24.20    3.30
  -4   2   6   18.90    5.90
   4   2  -6   19.90    4.30
   3  -2  -6   77.49    4.20
   3  -2  -6   73.99    4.50
  -3  -2   6   73.09    5.10
  -3  -2   6   77.39    5.00
   3  -2  -6   73.99    3.90
  -3  -2   6   81.49    5.20
  -3  -2   6   78.49    5.40
   3  -2  -6   76.99    4.20
   3   2  -6   73.09    5.40
   3   2  -6   83.09    9.10
  -3   2   6   77.19    4.90
  -3   2   6   70.89    4.50
   3   2  -6   72.29    4.40
   3   2  -6   74.09    5.70
  -3   2   6   91.29    7.90
   3   2  -6   72.79    4.80
   2  -2  -6 1792.92   57.79
  -2  -2   6 1791.62   56.79
   2  -2  -6 1788.52   56.29
  -2  -2   6 1838.02   56.79
   2  -2  -6 1813.72   56.29
  -2  -2   6 1837.52   56.79
  -2  -2   6 1827.52   56.89
   2  -2  -6 1537.45   56.19
   2  -2  -6 1790.72   56.19
   2   2  -6 1796.12   56.09
  -2   2   6 1809.92   57.89
  -2   2   6 1913.11   58.19
   2   2  -6 1882.41   56.99
   2   2  -6 1831.82   57.19
   2   2  -6 1783.02   56.09
   2   2  -6 1836.62   56.99
   2   2  -6 1724.23   60.09
  -2   2   6 1764.42   56.29
   1  -2  -6  534.05   17.40
  -1  -2   6  523.95   17.60
  -1  -2   6  530.55   17.50
  -1  -2   6  537.15   17.60
   1  -2  -6  537.85   17.30
   1  -2  -6  530.65   18.50
   1  -2  -6  538.25   17.30
   1  -2  -6  519.65   17.20
  -1  -2   6  508.35   17.50
  -1   2   6  532.75   17.40
   1   2  -6  536.15   17.70
  -1   2   6  518.65   18.80
   1   2  -6  555.94   22.10
   1   2  -6  512.35   17.80
  -1   2   6  557.44   18.90
   1   2  -6  542.05   18.20
   0  -2  -6  197.78    7.50
   0  -2  -6  199.38    7.50
   0  -2   6  205.18    7.30
   0  -2  -6  202.08    7.90
   0  -2  -6  199.68    7.30
   0  -2   6  201.28    7.50
   0  -2   6  205.48    7.20
   0  -2   6  212.18    7.40
   0   2  -6  195.58    8.20
   0   2   6  196.38    7.50
   0   2   6  194.48    8.90
   0   2  -6  196.38    7.40
   0   2   6  205.28    7.80
   0   2  -6  205.18   12.30
  -1  -2  -6  197.18    8.00
   1  -2   6  195.48    7.40
  -1  -2  -6  218.88    7.60
   1  -2   6  200.18    7.20
  -1  -2  -6  202.28    7.80
  -1  -2  -6  199.48    7.80
  -1  -2  -6  198.78    7.80
   1  -2   6  196.58    7.30
   1  -2   6  205.48    7.10
   1  -2   6  208.28   10.90
   1   2   6  197.58    8.00
   1   2   6  205.08    9.10
   1   2   6  198.28    6.80
   1   2   6  197.38    8.20
  -1   2  -6  213.58   12.30
  -1   2  -6  194.98    7.40
   1   2   6  196.58    7.00
   2  -2   6    2.30    1.50
   2  -2   6    1.90    1.90
  -2  -2  -6    0.60    2.20
  -2  -2  -6    1.80    2.40
   2  -2   6   -1.50    1.40
  -2  -2  -6    3.90    2.10
   2  -2   6    1.50    4.80
  -2  -2  -6   -0.90    2.00
   2  -2   6    0.40    1.80
  -2   2  -6   -1.80    2.20
   2   2   6   -2.00    2.00
   2   2   6   -0.20    2.50
  -2   2  -6    1.80    6.70
  -2   2  -6    3.20    2.00
   2   2   6    0.80    3.50
   2   2   6    0.30    2.80
   2   2   6    1.10    1.60
  -3  -2  -6   -0.30    2.80
  -3  -2  -6    0.40    2.70
   3  -2   6    2.00    2.10
  -3  -2  -6   -3.00    2.50
   3  -2   6   -2.40    4.70
  -3  -2  -6   -0.30    2.70
   3  -2   6   -1.90    1.60
   3  -2   6    0.40    2.00
   3   2   6   -1.40    2.70
  -3   2  -6    2.80    6.00
  -3   2  -6    1.80    2.50
   3   2   6    2.40    3.30
   3   2   6    2.80    2.50
  -3   2  -6    1.80    2.60
   3   2   6   -3.60    2.80
   4  -2   6   36.30    6.80
  -4  -2  -6   34.40    4.70
   4  -2   6   30.70    3.80
  -4  -2  -6   32.80    4.80
   4  -2   6   36.20    3.70
  -4  -2  -6   26.90    4.20
  -4  -2  -6   43.00    4.90
   4  -2   6   30.40    3.60
   4  -2   6   34.10    4.30
  -4   2  -6   34.30    4.20
   4   2   6   29.00    4.50
   4   2   6   30.20    4.20
  -4   2  -6   41.80    7.70
  -4   2  -6   32.30    4.20
   4   2   6   30.50    4.70
  -4   2  -6   40.70    8.20
   4   2   6   39.30    4.30
   5  -2   6  255.37   15.30
   5  -2   6  271.87   11.50
  -5  -2  -6  265.57   12.70
  -5  -2  -6  279.07   13.00
   5  -2   6  272.87   11.70
  -5  -2  -6  276.57   12.20
   5  -2   6  280.37   11.70
  -5  -2  -6  253.07   12.00
   5  -2   6  282.27   11.00
  -5   2  -6  280.57    9.60
   5   2   6  224.88   12.10
  -5   2  -6  287.17   12.30
  -5   2  -6  286.07   15.40
  -5   2  -6  262.67    9.60
   5   2   6  298.67   13.30
  -5   2  -6  306.97   14.70
  -5   2  -6  291.97   11.80
   5   2   6  262.17   12.40
   6  -2   6   71.29    7.20
   6  -2   6   72.39    7.10
  -6  -2  -6   58.69    7.40
  -6  -2  -6   56.69    7.50
  -6  -2  -6   52.59    7.30
  -6  -2  -6   58.19    7.70
   6  -2   6   50.09    6.20
  -6  -2  -6   73.59    7.70
   6  -2   6   63.89    5.90
  -6   2  -6   57.19    7.00
   6   2   6   50.09    6.20
   6   2   6   69.79    8.50
  -6   2  -6   57.59    4.60
  -6   2  -6   74.29    9.50
   6   2   6   63.59    7.70
  -6   2  -6   68.29    9.40
  -6   2  -6   61.09    4.30
  -7  -2  -6   -0.10    5.50
  -7  -2  -6    8.50    6.30
  -7  -2  -6    2.90    6.70
   7  -2   6   -4.20    4.60
  -7  -2  -6    7.00    5.20
  -7  -2  -6    3.60    5.90
   7  -2   6    0.00    5.50
   7  -2   6    3.60    4.90
   7   2   6    0.10    7.30
   7   2   6    7.20    7.20
  -7   2  -6   -2.10    6.40
   7   2   6   -1.40    5.60
  -7   2  -6   13.70    8.70
  -7   2  -6   -0.70    2.70
   7   2   6   -1.30    6.50
  -7   2  -6    1.50    3.30
  -7   2  -6   -1.10    5.60
   7  -3  -6    7.40    5.40
  -7  -3   6   15.60    5.10
   7  -3  -6   24.20    4.90
  -7  -3   6   17.20    5.40
  -7  -3   6   12.80    7.30
   7  -3  -6   26.60    5.80
  -7   3   6   19.80    6.40
   7   3  -6    7.40    8.10
  -7   3   6   22.20   11.30
  -7   3   6    4.50    4.10
   7   3  -6   15.50    6.40
   7   3  -6    1.30    5.90
   7   3  -6   17.70   14.00
   7   3  -6   11.80    5.30
   6  -3  -6   25.80    3.90
  -6  -3   6   31.00    6.80
   6  -3  -6   41.60    5.00
  -6  -3   6   30.20    5.80
  -6  -3   6   24.30    5.70
   6  -3  -6   23.00    5.20
   6  -3  -6   19.80    4.90
   6   3  -6   22.50    4.80
  -6   3   6   29.40   11.20
   6   3  -6   21.80    4.70
   6   3  -6   22.40    6.70
   6   3  -6   23.50    7.10
   6   3  -6   30.00   12.80
   5  -3  -6   -1.50    3.00
   5  -3  -6   -5.10    3.00
  -5  -3   6    4.60    4.00
  -5  -3   6   -4.20    3.70
  -5  -3   6    3.30    4.80
  -5  -3   6   -3.50    3.90
   5  -3  -6   -2.30    3.50
   5  -3  -6    4.00    3.30
   5   3  -6   -0.60    3.00
  -5   3   6    2.70    3.70
  -5   3   6    1.60    8.40
   5   3  -6   -2.50   11.40
  -5   3   6   -0.20    3.50
   5   3  -6   -2.20    4.80
   5   3  -6    0.30    3.00
  -4  -3   6   59.29    6.10
  -4  -3   6   61.49    7.30
   4  -3  -6   53.29    3.80
   4  -3  -6   54.79    5.30
  -4  -3   6   68.39    5.20
   4  -3  -6   53.59    3.80
   4  -3  -6   63.09    4.70
  -4  -3   6   51.39    6.50
   4   3  -6   58.89    3.90
   4   3  -6   84.99   14.60
   4   3  -6   57.39    6.10
   4   3  -6   55.29    6.30
  -4   3   6   69.49    9.20
  -4   3   6   67.39    4.00
  -4   3   6   57.19    4.50
   4   3  -6   53.89    3.30
   4   3  -6   56.09    6.60
   3  -3  -6  122.29    5.40
  -3  -3   6  117.79    7.20
   3  -3  -6  128.79    6.20
  -3  -3   6  120.79    7.10
   3  -3  -6  125.19   10.60
  -3  -3   6  119.99    7.10
  -3  -3   6  125.99    6.20
   3   3  -6  132.59    7.50
   3   3  -6  135.79    7.80
   3   3  -6  123.59   16.20
  -3   3   6  124.39    5.20
  -3   3   6  122.29   11.60
   3   3  -6  124.09    8.20
  -3   3   6  125.09    5.50
   2  -3  -6  509.75   19.60
  -2  -3   6  492.85   17.10
  -2  -3   6  520.15   17.50
  -2  -3   6  515.75   17.50
   2  -3  -6  499.15   16.50
  -2  -3   6  500.15   17.20
   2  -3  -6  499.35   16.60
  -2   3   6  500.95   16.20
  -2   3   6  476.25   19.10
   2   3  -6  509.45   18.70
   2   3  -6  496.75   17.60
   2   3  -6  530.85   17.50
  -2   3   6  491.95   16.20
   2   3  -6  490.35   25.70
  -1  -3   6   28.20    3.30
  -1  -3   6   25.30    2.40
   1  -3  -6   28.60    2.30
   1  -3  -6   28.00    2.80
   1  -3  -6   26.30    4.90
  -1  -3   6   27.70    2.90
  -1  -3   6   29.00    3.10
  -1   3   6   26.20    2.30
  -1   3   6   24.10    2.70
   1   3  -6   30.70    4.70
   1   3  -6   27.40    3.00
  -1   3   6   27.30    4.80
   1   3  -6   32.80   11.80
   0  -3  -6   69.09    3.70
   0  -3  -6   58.49    3.40
   0  -3   6   68.09    9.10
   0  -3  -6   62.99    3.50
   0  -3   6   63.49    3.40
   0  -3  -6   65.09    6.00
   0  -3   6   67.19    4.00
   0  -3  -6   59.49    5.00
   0   3   6   67.59    3.70
   0   3  -6   70.19   13.40
   0   3   6   62.29    6.50
   0   3  -6   59.99    3.60
   0   3   6   66.39    4.20
   0   3  -6   63.79    3.40
   0   3  -6   65.09    6.00
   1  -3   6    8.50    2.10
  -1  -3  -6    6.40    2.90
  -1  -3  -6   10.30    2.40
  -1  -3  -6    4.90    3.30
   1  -3   6   15.50    7.10
  -1  -3  -6   10.70    2.30
  -1  -3  -6    8.40    3.30
  -1   3  -6    7.60    1.60
   1   3   6    5.00    3.10
  -1   3  -6    8.50    1.30
  -1   3  -6   14.00   10.70
  -1   3  -6    8.30    4.40
   1   3   6   11.00    2.80
   1   3   6    7.10    4.20
   2  -3   6  114.49   11.70
  -2  -3  -6  124.89    6.40
  -2  -3  -6  112.79    6.80
   2  -3   6  107.99    4.60
  -2  -3  -6  103.79    6.30
   2  -3   6  103.99    5.30
  -2  -3  -6  109.69    6.00
  -2  -3  -6  112.69    5.70
  -2   3  -6  100.29   15.40
   2   3   6  115.89    6.90
   2   3   6  104.39    7.80
   2   3   6  108.99    6.50
  -2   3  -6  102.79    4.70
  -2   3  -6  103.09    4.40
  -3  -3  -6    9.80    3.80
  -3  -3  -6   13.30    3.90
  -3  -3  -6   14.40    3.60
  -3  -3  -6   15.50    3.10
   3  -3   6    9.70    2.90
   3  -3   6   16.70    7.60
   3  -3   6    6.90    1.50
   3   3   6    6.30    4.80
   3   3   6    7.80    3.80
  -3   3  -6    8.70    2.10
  -3   3  -6    8.20   11.60
  -3   3  -6   10.80    2.60
   3   3   6    4.90    4.20
   4  -3   6   28.50    3.20
  -4  -3  -6   31.00    4.10
   4  -3   6   29.10    3.80
  -4  -3  -6   35.80    5.20
   4  -3   6   39.50    4.90
  -4  -3  -6   31.30    5.50
  -4  -3  -6   29.20    4.40
   4  -3   6   35.10    4.20
  -4   3  -6   28.30   13.80
   4   3   6   36.80    3.70
  -4   3  -6   31.20    4.20
   4   3   6   29.20    5.20
   4   3   6   30.80    6.60
   4   3   6   31.60    3.40
   5  -3   6   -0.20    4.30
   5  -3   6    4.10    3.40
  -5  -3  -6   -1.30    5.80
  -5  -3  -6   -0.60    4.40
   5  -3   6   -0.30    3.40
   5  -3   6    2.80    4.60
  -5  -3  -6   -6.20    4.40
  -5  -3  -6   12.90    4.60
   5   3   6    6.30    6.20
   5   3   6    5.70    3.90
  -5   3  -6    1.00    3.50
   5   3   6    2.60    3.60
   5   3   6    1.50    5.20
  -5   3  -6   11.40   15.00
   5   3   6   -4.60    6.20
  -5   3  -6    4.10    4.40
  -6  -3  -6   16.40    5.80
   6  -3   6    6.60   10.30
  -6  -3  -6   10.00    6.70
  -6  -3  -6    2.70    6.10
   6  -3   6   17.30    2.60
  -6  -3  -6   15.40    5.80
   6  -3   6   13.80    4.10
   6  -3   6   10.80    5.00
   6  -3   6    8.90    4.70
   6   3   6   20.30    7.40
  -6   3  -6   -0.20    4.10
  -6   3  -6   13.40    5.90
   6   3   6   12.00    6.20
   6   3   6    2.50    7.00
   6   3   6   18.80    5.40
  -4  -4   6   12.10    5.40
   4  -4  -6    9.00    3.00
  -4  -4   6   15.70    5.70
  -4  -4   6    9.50    4.20
   4  -4  -6   22.50    3.90
   4   4  -6   13.80    6.90
   4   4  -6    5.80    5.80
   4   4  -6   15.30   12.00
   4   4  -6    3.30    4.40
  -3  -4   6  305.07   13.10
  -3  -4   6  267.37   12.90
   3  -4  -6  274.57   10.50
  -3  -4   6  262.07   11.00
   3  -4  -6  295.97   17.20
   3  -4  -6  276.77   10.10
  -3  -4   6  292.57   11.50
   3   4  -6  294.17   21.30
   3   4  -6  273.67   13.80
  -2  -4   6  107.99    7.00
   2  -4  -6  115.59   11.90
  -2  -4   6  114.19    6.70
   2  -4  -6  109.19    5.30
   2  -4  -6  113.29    4.60
   2   4  -6   96.29    6.50
  -2   4   6  108.79   10.00
   2   4  -6  111.29   16.90
   2   4  -6  100.59    8.70
  -1  -4   6   -4.40    2.80
  -1  -4   6  -13.70    8.70
   1  -4  -6    2.10    1.70
   1  -4  -6   -2.00    2.30
  -1  -4   6   -1.60    2.40
   1  -4  -6   -1.40    5.80
   1   4  -6    4.50   12.10
  -1   4   6    4.80    5.50
   1   4  -6    3.40    1.40
   1   4  -6    2.20    1.80
   1   4  -6    6.80    4.60
   0  -4   6   10.20    1.90
   0  -4  -6    7.70    5.60
   0  -4   6   -1.40    8.70
   0  -4   6    1.40    2.40
   0  -4  -6    9.30    2.20
   0   4  -6    9.00   12.20
   0   4   6   10.50    5.80
   0   4  -6   -1.80    4.50
   1  -4   6   37.30   10.60
  -1  -4  -6   27.10    3.40
  -1  -4  -6   28.90    5.30
  -1  -4  -6   24.20    4.30
   1  -4   6   24.80    2.60
   1  -4   6   32.70    2.40
   1   4   6   13.60    6.00
  -1   4  -6   20.70    5.30
   1   4   6   25.80    3.70
  -1   4  -6   22.80   13.10
  -2  -4  -6   -3.00    4.70
  -2  -4  -6    1.80    3.00
   2  -4   6   -3.90    9.50
  -2  -4  -6    1.20    4.50
  -2  -4  -6    2.70    3.80
   2  -4   6    1.90    2.30
   2  -4   6    2.70    1.60
  -2  -4  -6   -4.60    3.10
   2   4   6    4.70    4.20
  -2   4  -6    5.30   13.30
   2   4   6   -0.40    7.90
  -3  -4  -6    0.40    4.80
  -3  -4  -6   -1.00    3.70
   3  -4   6   -4.00    2.50
  -3  -4  -6   -2.90    4.60
   3  -4   6   -1.10    2.80
  -3  -4  -6    8.70    4.50
   3  -4   6   -2.90    9.70
   3   4   6   -6.10    3.80
  -3   4  -6    8.40   15.90
   3   4   6   -4.70    8.50
   3   4   6   -4.70    5.80
   4  -4   6    2.30    3.30
  -4  -4  -6   10.40    3.80
  -4  -4  -6    2.40    5.20
  -4  -4  -6   17.80    4.60
  -4  -4  -6    8.50    5.80
   4  -4   6    7.10    3.00
  -4  -4  -6    7.00    4.80
  -4   4  -6   -8.50   17.90
   4   4   6    7.20    4.50
   4   4   6   -0.90    6.40
   4   4   6    7.00    8.40
  -9   0   7   -5.60    6.70
   9   0  -7    1.70    7.50
  -9   0   7    3.00    6.50
   9   0  -7   -6.50    5.60
   9   0  -7   10.30    7.90
  -9   0   7    0.40    8.20
   9   0  -7    3.80    5.60
  -9   0   7  -15.70    8.20
  -9   0   7   -3.70    6.90
   8   0  -7    0.20    6.60
   8   0  -7   10.10    6.50
  -8   0   7   12.30    7.60
   8   0  -7    7.90    5.40
  -8   0   7    0.60    6.20
   8   0  -7    0.00    5.80
  -8   0   7   -3.10    5.40
  -8   0   7    1.20    5.90
  -7   0   7  267.47   13.20
  -7   0   7  282.97   13.60
   7   0  -7  271.77   13.90
  -7   0   7  284.97   13.80
   7   0  -7  290.87   13.50
   7   0  -7  286.47   13.70
  -7   0   7  288.57   14.20
  -6   0   7   -0.60    4.50
  -6   0   7   -1.30    4.10
   6   0  -7   -7.90    3.50
   6   0  -7   -2.10    4.10
  -6   0   7   -0.20    3.60
   6   0  -7    4.90    4.50
  -6   0   7    1.60    4.40
   6   0  -7   -0.60    4.10
  -5   0   7  161.98    8.50
  -5   0   7  166.18    8.70
  -5   0   7  155.58    9.00
   5   0  -7  171.68    9.00
   5   0  -7  168.98    8.70
   5   0  -7  155.98    8.70
   5   0  -7  177.28    8.50
  -5   0   7  175.28    8.50
  -4   0   7   -2.60    3.00
  -4   0   7    1.00    2.80
   4   0  -7   -0.70    2.50
   4   0  -7    1.60    2.60
   4   0  -7   -3.20    2.50
  -4   0   7   -2.60    2.20
   4   0  -7    0.20    3.00
   3   0  -7   77.59    5.30
  -3   0   7   75.59    5.20
  -3   0   7   69.19    5.10
  -3   0   7   76.29    5.00
   3   0  -7   68.99    5.00
   3   0  -7   82.39    5.00
  -3   0   7   78.59    5.10
   3   0  -7   74.79    5.10
  -2   0   7   -1.00    2.00
   2   0  -7    1.00    1.80
   2   0  -7    1.70    1.90
   2   0  -7   -0.80    1.90
  -2   0   7   -1.00    2.20
  -2   0   7    0.90    2.30
  -2   0   7    0.60    1.70
   2   0  -7   -4.30    2.30
  -1   0   7   37.30    3.40
   1   0  -7   40.80    3.50
  -1   0   7   39.30    3.40
  -1   0   7   40.90    3.30
   1   0  -7   42.50    3.60
   1   0  -7   41.20    3.50
   1   0  -7   44.20    3.70
  -1   0   7   42.60    3.50
   0   0   7   -0.70    1.20
   0   0  -7    1.10    2.10
   0   0  -7    3.70    1.80
   0   0   7    3.10    2.00
   0   0   7    3.00    2.10
   0   0  -7    3.00    2.10
   0   0   7    1.10    2.10
   0   0  -7    1.20    2.20
  -1   0  -7 3206.68  102.59
   1   0   7 3394.76  102.69
  -1   0  -7 3371.16  102.69
   1   0   7 3314.57  102.49
  -1   0  -7 3363.96  102.49
  -1   0  -7 3223.68  102.39
   1   0   7 3218.68  102.39
   1   0   7 3242.88  102.59
   2   0   7   -3.50    1.90
  -2   0  -7   -3.50    2.80
   2   0   7   -2.40    2.20
   2   0   7    0.00    2.20
  -2   0  -7   -2.20    2.00
  -2   0  -7   -1.50    2.60
   2   0   7    0.60    2.70
  -2   0  -7   -2.60    1.90
  -2   0  -7   -3.30    2.30
   2   0   7    0.40    2.20
  -3   0  -7   20.60    3.20
  -3   0  -7   12.40    2.90
  -3   0  -7   15.70    2.90
   3   0   7   16.20    3.00
   3   0   7   14.20    3.30
   3   0   7   14.40    2.90
  -3   0  -7   18.50    3.80
  -3   0  -7    9.30    3.20
   3   0   7   15.10    3.30
   3   0   7   15.50    3.20
  -4   0  -7   -1.40    3.20
   4   0   7   -1.20    3.00
  -4   0  -7   -2.20    2.60
  -4   0  -7    2.20    3.50
   4   0   7    3.00    3.00
   4   0   7    1.50    2.90
  -4   0  -7    0.30    3.20
   4   0   7    3.70    3.20
   5   0   7   67.99    7.20
  -5   0  -7   70.29    7.20
   5   0   7   56.99    6.80
  -5   0  -7   65.09    6.90
  -5   0  -7   60.09    6.60
  -5   0  -7   58.19    6.80
  -5   0  -7   65.09    6.40
   5   0   7   55.29    6.40
   5   0   7   64.19    6.40
  -6   0  -7   -1.70    5.50
  -6   0  -7   -3.00    5.00
   6   0   7   -3.30    4.10
   6   0   7    2.50    4.10
  -6   0  -7   -0.50    6.00
   6   0   7   -3.90    4.50
  -6   0  -7   -2.90    4.60
   6   0   7   -3.10    4.90
  -6   0  -7    1.80    4.10
  -7   0  -7  192.18   12.20
  -7   0  -7  214.48   12.20
  -7   0  -7  194.58   12.60
   7   0   7  181.38   12.50
   7   0   7  197.48   12.00
   7   0   7  197.38   11.50
  -8   0  -7    6.00    7.70
   8   0   7    0.60    6.00
  -8   0  -7    6.90    6.70
  -8   0  -7   11.60    7.70
   8   0   7    7.50    7.10
  -8   0  -7   -2.00    7.60
   8   0   7   -1.40    7.10
   8   0   7   -1.40    6.70
  -9  -1   7   18.20    6.30
   9  -1  -7   11.50    5.40
  -9  -1   7    4.70    7.40
  -9  -1   7   15.60    8.70
   9  -1  -7   26.60    5.40
   9  -1  -7   19.80    7.20
  -9  -1   7   15.10    5.90
   9  -1  -7   14.80    6.90
   9   1  -7   12.80    7.70
  -9   1   7   12.90    8.80
  -9   1   7   19.70    7.20
  -9   1   7   -7.90    7.80
   9   1  -7   12.70    6.50
   9   1  -7   21.20    9.50
   9   1  -7   11.00    6.90
  -9   1   7   15.10    7.50
  -9   1   7   10.60    6.60
   8  -1  -7    3.20    5.80
  -8  -1   7    6.60    9.10
   8  -1  -7   -0.80    4.90
  -8  -1   7   -8.00    6.90
  -8  -1   7   -7.90    6.30
  -8  -1   7   -1.00    5.50
   8  -1  -7    0.40    5.60
   8  -1  -7    1.20    5.70
   8   1  -7    8.40    7.40
  -8   1   7   -0.50    5.10
  -8   1   7    5.20    4.70
   8   1  -7   -3.90    6.00
   8   1  -7    1.10    5.90
  -8   1   7    9.00    6.30
  -8   1   7   -5.50    7.00
   8   1  -7   -1.10    7.10
  -7  -1   7   -0.40    6.10
   7  -1  -7    1.30    3.90
   7  -1  -7   -1.00    4.50
   7  -1  -7    9.70    4.20
   7  -1  -7    4.50    4.40
  -7  -1   7    6.60    4.80
   7  -1  -7  -14.30   10.30
  -7  -1   7    7.60    5.40
  -7   1   7    1.30    4.30
   7   1  -7   12.50    6.80
  -7   1   7    9.00    4.40
   7   1  -7    7.70    5.70
  -7   1   7   -3.10    7.00
   7   1  -7    2.80    5.30
   7   1  -7    2.80    4.30
   7   1  -7    4.60    5.70
  -7   1   7    2.80    5.60
  -6  -1   7   10.70    4.40
   6  -1  -7   11.40    4.50
  -6  -1   7   15.50    5.50
   6  -1  -7   13.60    4.30
   6  -1  -7   14.50    4.40
  -6  -1   7   13.00    4.90
   6  -1  -7   15.30    8.70
  -6  -1   7   17.50    5.30
   6  -1  -7    9.80    3.80
  -6   1   7   11.20    4.70
  -6   1   7   16.30    4.00
   6   1  -7   14.10    4.20
   6   1  -7   14.40    4.90
   6   1  -7   15.70    5.00
   6   1  -7    9.80    5.20
  -6   1   7   16.50    3.70
  -6   1   7   10.20    6.20
  -6   1   7   16.00    4.80
  -5  -1   7  226.28   11.00
  -5  -1   7  228.98   10.70
   5  -1  -7  226.48   10.00
  -5  -1   7  229.68   10.50
   5  -1  -7  236.38   10.30
   5  -1  -7  252.27   10.10
  -5  -1   7  233.08   10.70
   5  -1  -7  237.18   10.20
  -5   1   7  238.08    9.70
   5   1  -7  236.38   10.90
   5   1  -7  244.48   11.00
  -5   1   7  217.38   12.40
  -5   1   7  235.08   10.60
  -5   1   7  242.08   10.10
   5   1  -7  217.18   10.30
   5   1  -7  239.08   10.90
  -4  -1   7  795.32   26.90
  -4  -1   7  800.12   26.80
   4  -1  -7  798.52   26.50
  -4  -1   7  786.02   26.80
   4  -1  -7  806.02   26.60
   4  -1  -7  809.22   26.50
   4  -1  -7  763.22   26.30
   4   1  -7  796.12   26.70
  -4   1   7  802.12   26.60
   4   1  -7  849.12   26.70
  -4   1   7  809.52   26.10
  -4   1   7  806.12   26.60
  -4   1   7  760.82   26.10
  -4   1   7  745.73   27.70
   4   1  -7  818.22   27.10
   4   1  -7  773.32   27.00
  -3  -1   7  493.05   16.70
  -3  -1   7  479.95   16.70
  -3  -1   7  461.15   16.60
   3  -1  -7  466.95   16.30
   3  -1  -7  485.85   16.30
  -3  -1   7  482.75   16.70
   3  -1  -7  457.95   16.20
   3  -1  -7  475.05   16.40
  -3   1   7  492.55   16.60
  -3   1   7  498.55   16.50
   3   1  -7  460.35   16.40
  -3   1   7  452.35   17.50
   3   1  -7  480.65   16.60
  -3   1   7  474.15   16.10
  -3   1   7  477.65   15.90
   3   1  -7  475.55   17.00
   3   1  -7  484.25   16.80
  -2  -1   7    4.80    2.30
  -2  -1   7    7.00    2.70
   2  -1  -7    7.90    2.40
  -2  -1   7    6.10    2.20
  -2  -1   7    5.90    2.20
   2  -1  -7    9.20    2.10
   2  -1  -7    6.20    2.00
   2  -1  -7    7.10    2.10
  -2   1   7    6.40    2.50
  -2   1   7    9.80    2.30
  -2   1   7    8.40    1.70
   2   1  -7    6.20    2.30
   2   1  -7    9.30    2.80
  -2   1   7    8.20    3.40
   2   1  -7    5.60    2.60
  -2   1   7    6.40    1.90
   2   1  -7    9.50    2.30
  -1  -1   7  759.22   24.90
   1  -1  -7  758.02   24.70
  -1  -1   7  784.02   24.70
   1  -1  -7  777.12   24.60
  -1  -1   7  820.42   24.90
   1  -1  -7  762.12   24.70
  -1  -1   7  762.22   24.70
   1  -1  -7  779.82   24.60
  -1   1   7  711.03   24.90
   1   1  -7  780.42   24.60
   1   1  -7  795.32   24.90
   1   1  -7  756.92   24.60
  -1   1   7  758.92   24.70
   1   1  -7  794.62   24.30
  -1   1   7  738.43   24.90
   1   1  -7  763.42   24.90
  -1   1   7  746.13   24.80
  -1   1   7  755.02   24.50
  -1   1   7  751.52   24.40
   0  -1   7    5.90    1.80
   0  -1   7    5.90    1.90
   0  -1   7    3.80    1.80
   0  -1  -7   14.20    2.40
   0  -1  -7    5.00    1.90
   0  -1  -7    4.90    1.90
   0  -1   7    4.50    2.00
   0  -1  -7    8.00    1.90
   0   1   7    5.50    1.80
   0   1   7    9.40    2.10
   0   1  -7    5.20    2.10
   0   1   7    6.80    2.00
   0   1  -7    2.90    1.60
   0   1   7    6.40    2.60
   0   1   7    7.40    2.30
   0   1  -7    4.80    1.50
   0   1  -7    5.50    1.80
   0   1  -7    3.70    1.90
   0   1   7    6.20    1.50
   1  -1   7  228.88    8.60
  -1  -1  -7  244.68    8.80
   1  -1   7  230.08    8.70
   1  -1   7  241.88    8.50
   1  -1   7  243.18   10.30
   1  -1   7  224.98    8.60
  -1  -1  -7  228.18    9.00
  -1  -1  -7  226.88    8.90
   1   1   7  231.58    8.70
  -1   1  -7  240.18    8.90
   1   1   7  232.48    8.90
   1   1   7  229.38    9.10
  -1   1  -7  239.68    8.40
   1   1   7  251.77    9.30
   1   1   7  233.38    8.70
  -1   1  -7  233.68    8.30
  -1   1  -7  234.78    8.70
   2  -1   7  620.94   20.30
  -2  -1  -7  593.64   20.60
   2  -1   7  594.04   20.30
   2  -1   7  618.34   21.80
   2  -1   7  632.24   20.40
  -2  -1  -7  620.64   20.80
   2  -1   7  629.04   20.50
  -2  -1  -7  649.54   20.70
  -2  -1  -7  618.14   20.70
  -2  -1  -7  552.04   19.50
   2   1   7  613.04   20.50
   2   1   7  584.04   20.70
  -2   1  -7  617.54   20.10
   2   1   7  629.14   20.60
  -2   1  -7  617.14   20.10
  -2   1  -7  644.24   20.60
   2   1   7  614.84   20.70
  -2   1  -7  617.14   20.50
  -3  -1  -7    8.30    2.80
  -3  -1  -7    4.40    3.10
   3  -1   7    8.00    2.30
   3  -1   7    6.70    2.30
  -3  -1  -7    2.80    2.80
   3  -1   7    5.50    3.90
   3  -1   7    5.40    2.60
  -3  -1  -7    3.40    2.20
   3  -1   7    6.80    2.40
  -3  -1  -7    3.20    2.90
  -3   1  -7    5.90    2.10
   3   1   7    1.50    2.80
   3   1   7    4.20    3.00
   3   1   7    1.90    2.60
  -3   1  -7    0.60    4.10
  -3   1  -7    7.60    2.40
  -3   1  -7    4.10    2.80
  -3   1  -7    4.40    5.90
  -3   1  -7    5.80    3.00
   3   1   7    3.00    3.40
  -4  -1  -7   31.90    4.40
   4  -1   7   36.70    5.60
  -4  -1  -7   43.80    5.40
   4  -1   7   31.80    4.20
   4  -1   7   32.90    4.10
  -4  -1  -7   38.60    5.10
  -4  -1  -7   37.60    4.50
   4  -1   7   34.10    3.90
   4  -1   7   39.60    4.60
  -4  -1  -7   27.30    7.50
  -4  -1  -7   32.10    4.50
   4   1   7   34.10    4.70
  -4   1  -7   38.00    4.40
  -4   1  -7   39.40    4.70
   4   1   7   30.60    4.20
  -4   1  -7   39.20    4.80
  -4   1  -7   26.00    5.10
  -4   1  -7   45.30    6.90
   4   1   7   37.00    4.60
  -4   1  -7   34.60    4.60
   4   1   7   33.10    4.30
   5  -1   7  169.98    9.20
  -5  -1  -7  181.28   10.30
   5  -1   7  184.08    9.20
  -5  -1  -7  176.98    9.80
  -5  -1  -7  186.18    9.30
  -5  -1  -7  183.28    9.90
  -5  -1  -7  176.48    9.60
   5  -1   7  181.38    9.60
   5  -1   7  177.48   11.60
   5  -1   7  184.28    9.00
   5   1   7  173.28   10.00
  -5   1  -7  172.68    8.70
   5   1   7  176.78   10.20
  -5   1  -7  189.18    9.80
  -5   1  -7  182.48   11.40
   5   1   7  185.88   10.80
  -5   1  -7  181.48    9.70
  -5   1  -7  183.88    8.80
   5   1   7  169.38   10.20
  -6  -1  -7   13.40    5.10
   6  -1   7    3.90    4.20
   6  -1   7    7.90    4.20
   6  -1   7    2.20    3.60
  -6  -1  -7    2.10    5.10
  -6  -1  -7    4.50    4.80
  -6  -1  -7    8.00    5.40
   6  -1   7    7.60    4.00
   6   1   7   11.40    5.70
   6   1   7    3.00    4.90
  -6   1  -7    5.00    5.70
  -6   1  -7    2.50    5.30
   6   1   7    3.00    4.70
  -6   1  -7    9.90    4.00
  -6   1  -7    9.10    4.20
   6   1   7    2.60    4.50
  -7  -1  -7   56.49    8.50
   7  -1   7   59.19    7.00
  -7  -1  -7   60.39    7.40
   7  -1   7   47.00    6.00
  -7  -1  -7   75.39    8.40
  -7  -1  -7   44.00    7.00
   7  -1   7   49.00    6.00
   7  -1   7   72.39    7.50
   7   1   7   76.79    8.80
   7   1   7   67.49    8.80
   7   1   7   50.89    7.50
  -7   1  -7   55.99    8.20
  -7   1  -7   72.59    6.80
  -7   1  -7   62.99    6.60
  -7   1  -7   64.89    9.40
   7   1   7   66.99    8.00
  -8  -1  -7   15.10    7.90
  -8  -1  -7    7.40    7.10
   8  -1   7    6.10    6.30
   8  -1   7    9.60    5.60
   8  -1   7    9.90    6.00
  -8  -1  -7   12.40    7.80
  -8  -1  -7    5.10    7.10
  -8  -1  -7   11.50    6.40
   8  -1   7    0.70    6.80
  -8   1  -7   11.30    7.00
  -8   1  -7   12.90    8.50
   8   1   7    8.40    8.60
   8   1   7   28.60    8.30
  -8   1  -7   10.40    5.80
   8   1   7    2.00    6.70
   8   1   7   11.70    7.20
  -8   1  -7   -4.00    6.30
   8  -2  -7   12.50    5.30
  -8  -2   7   20.00    7.70
  -8  -2   7   15.60    7.20
  -8  -2   7    9.60    5.50
   8  -2  -7   18.80    6.70
   8  -2  -7   12.70    5.80
   8  -2  -7    8.60    5.20
  -8  -2   7   23.60    7.30
  -8   2   7    2.90    4.40
   8   2  -7   22.80    6.60
   8   2  -7   14.70    7.10
  -8   2   7   17.30    7.10
  -8   2   7   27.10    7.30
  -8   2   7   27.70   10.10
   8   2  -7   11.70    7.90
   8   2  -7   15.70    7.20
   8   2  -7    4.20    7.30
   7  -2  -7   45.80    6.00
   7  -2  -7   48.40    5.90
   7  -2  -7   51.79    6.10
  -7  -2   7   68.79    7.90
  -7  -2   7   42.90    6.90
   7  -2  -7   59.29    6.40
  -7  -2   7   56.99    7.60
  -7  -2   7   62.59    8.00
  -7   2   7   56.09    7.30
   7   2  -7   65.29    8.10
  -7   2   7   56.79    6.30
  -7   2   7   46.20    4.50
   7   2  -7   44.00    7.60
   7   2  -7   56.09    7.00
  -7   2   7   50.39    6.50
  -7   2   7   66.29   10.40
  -6  -2   7   24.90    5.20
  -6  -2   7   32.60    5.90
   6  -2  -7   31.90    5.20
  -6  -2   7   30.30    5.70
   6  -2  -7   30.60    4.50
  -6  -2   7   19.80    4.20
   6  -2  -7   26.80    4.30
   6  -2  -7   28.30    3.80
  -6   2   7   29.90    5.30
  -6   2   7   34.00    3.60
   6   2  -7   32.40    6.40
  -6   2   7   30.00    7.70
   6   2  -7   26.70    5.30
  -6   2   7   30.50    5.40
  -6   2   7   26.80    3.30
   6   2  -7   37.30    5.20
   5  -2  -7   67.59    4.50
   5  -2  -7   78.09    6.30
   5  -2  -7   77.39    6.10
  -5  -2   7   73.19    7.80
  -5  -2   7   67.39    6.90
   5  -2  -7   70.19    6.10
  -5  -2   7   77.59    6.90
   5   2  -7   76.79    6.40
   5   2  -7   86.79    8.00
  -5   2   7   82.19    6.40
  -5   2   7   68.69    6.40
   5   2  -7   72.99    7.50
  -5   2   7   71.09   10.20
   5   2  -7   70.19    6.80
  -5   2   7   71.39    3.40
  -5   2   7   81.39    4.40
  -4  -2   7   20.20    4.30
  -4  -2   7   16.00    3.40
   4  -2  -7   20.80    3.20
  -4  -2   7   18.40    3.70
   4  -2  -7   24.20    3.20
  -4  -2   7   26.50    3.90
   4  -2  -7   21.20    2.90
   4  -2  -7   27.80    3.10
   4   2  -7   10.60    7.00
  -4   2   7   22.40    3.50
   4   2  -7   23.50    3.60
  -4   2   7   25.50    3.60
   4   2  -7   15.50    3.20
  -4   2   7   30.70    6.30
   4   2  -7   18.90    4.30
   4   2  -7   18.10    4.30
   3  -2  -7  129.29    5.60
  -3  -2   7  127.39    6.60
  -3  -2   7  124.79    6.60
   3  -2  -7  134.69    6.10
  -3  -2   7  127.19    6.30
  -3  -2   7  133.09    6.80
   3  -2  -7  132.19    5.80
   3  -2  -7  136.49    5.80
   3   2  -7  128.39    6.30
  -3   2   7  130.89    6.10
  -3   2   7  132.89    6.30
   3   2  -7  133.69    7.20
   3   2  -7  124.19    6.80
  -3   2   7  139.29    8.90
   3   2  -7  106.99   10.60
   3   2  -7  127.59    5.90
  -2  -2   7  998.00   31.40
   2  -2  -7  979.90   30.90
  -2  -2   7  985.50   31.40
  -2  -2   7  971.00   31.40
   2  -2  -7  990.60   30.90
   2  -2  -7  952.80   30.80
   2  -2  -7  970.20   30.90
  -2  -2   7  982.70   31.40
  -2   2   7  965.00   31.00
   2   2  -7  991.00   31.50
   2   2  -7  950.50   31.50
   2   2  -7  974.10   31.60
  -2   2   7  968.80   31.10
   2   2  -7  961.70   30.60
   2   2  -7  847.32   34.80
  -2   2   7  999.90   32.60
   2   2  -7  957.90   30.70
  -2   2   7  957.60   32.40
   1  -2  -7 2330.47   71.79
  -1  -2   7 2320.87   71.99
  -1  -2   7 2326.77   71.99
   1  -2  -7 2259.27   71.79
   1  -2  -7 2295.57   72.59
   1  -2  -7 2224.48   71.79
   1  -2  -7 2251.07   71.79
  -1  -2   7 2261.77   71.99
  -1  -2   7 2272.27   71.99
  -1   2   7 2261.37   73.19
  -1   2   7 2258.17   71.89
  -1   2   7 2267.07   71.89
   1   2  -7 2330.37   72.19
   1   2  -7 2474.65   72.49
  -1   2   7 2459.95   72.89
   1   2  -7 2241.08   75.89
   1   2  -7 2268.87   72.09
   0  -2   7   25.50    2.70
   0  -2  -7   23.50    2.60
   0  -2   7   24.00    2.80
   0  -2  -7   27.00    3.00
   0  -2  -7   24.30    2.50
   0  -2   7   22.50    2.80
   0  -2   7   21.50    2.50
   0  -2  -7   23.40    2.70
   0   2  -7   31.40    3.50
   0   2   7   26.40    4.00
   0   2   7   25.00    3.00
   0   2  -7   23.80    2.90
   0   2   7   22.30    2.50
   0   2  -7   35.70    7.50
   0   2  -7   27.80    3.60
  -1  -2  -7   22.80    2.80
  -1  -2  -7   25.90    2.90
   1  -2   7   25.40    2.50
   1  -2   7   23.80    2.40
  -1  -2  -7   25.20    2.70
  -1  -2  -7   23.50    2.40
   1  -2   7   24.70    3.00
   1  -2   7   24.00    2.60
   1  -2   7   20.70    5.60
  -1  -2  -7   26.00    2.90
   1   2   7   22.40    2.20
  -1   2  -7   22.60    6.90
   1   2   7   28.10    4.30
   1   2   7   20.50    2.90
   1   2   7   23.40    2.30
  -1   2  -7   25.50    3.10
   1   2   7   23.00    3.20
  -1   2  -7   25.60    3.30
   2  -2   7  131.19    5.40
   2  -2   7  124.09    5.30
  -2  -2  -7  126.29    6.20
   2  -2   7  123.89    5.70
   2  -2   7  132.79    9.00
  -2  -2  -7  108.59    6.20
  -2  -2  -7  129.39    6.40
   2  -2   7  122.89    5.20
  -2  -2  -7  117.79    6.00
   2   2   7  113.69    6.70
   2   2   7  119.59    5.50
   2   2   7  119.69    7.40
   2   2   7  120.39    6.50
  -2   2  -7  125.99   10.40
   2   2   7  122.89    5.90
  -2   2  -7  130.79    6.00
  -2   2  -7  122.49    5.70
   3  -2   7  102.99    9.50
   3  -2   7  105.09    5.20
   3  -2   7   99.69    5.50
  -3  -2  -7  111.39    6.50
  -3  -2  -7  103.89    6.60
  -3  -2  -7  108.39    6.60
   3  -2   7  107.99    5.70
  -3  -2  -7  111.69    6.40
   3   2   7  111.89    6.90
   3   2   7  106.49    6.20
   3   2   7  118.89    7.20
  -3   2  -7  116.29   10.50
   3   2   7  102.19    6.10
  -3   2  -7  101.49    5.90
  -3   2  -7  108.39    6.00
   4  -2   7   62.49    4.10
   4  -2   7   59.39    8.90
   4  -2   7   53.89    5.20
   4  -2   7   59.89    5.40
  -4  -2  -7   57.49    6.80
  -4  -2  -7   61.69    6.60
  -4  -2  -7   45.80    5.40
   4  -2   7   63.69    5.10
  -4  -2  -7   63.69    6.50
  -4   2  -7   54.59    5.60
   4   2   7   55.89    6.00
  -4   2  -7   61.19    9.20
   4   2   7   50.39    6.70
   4   2   7   57.59    6.10
   4   2   7   59.39    6.90
  -4   2  -7   64.29    6.20
  -4   2  -7   65.19   10.00
  -5  -2  -7  658.13   26.10
   5  -2   7  755.12   25.50
   5  -2   7  714.83   25.60
  -5  -2  -7  735.13   26.60
  -5  -2  -7  714.33   26.30
   5  -2   7  738.13   28.80
   5  -2   7  741.33   25.10
   5  -2   7  736.63   25.60
  -5  -2  -7  716.73   25.30
  -5  -2  -7  755.62   26.10
   5   2   7  789.52   26.20
   5   2   7  747.73   26.80
   5   2   7  758.32   26.20
  -5   2  -7  756.92   25.90
  -5   2  -7  659.83   28.10
  -5   2  -7  847.02   29.00
  -5   2  -7  736.13   23.80
  -5   2  -7  746.63   25.70
  -5   2  -7  696.93   23.80
   6  -2   7    4.40    4.30
  -6  -2  -7   10.20    6.20
   6  -2   7    6.80    4.30
  -6  -2  -7    2.40    5.40
   6  -2   7    3.70    3.80
   6  -2   7    5.00    3.70
  -6  -2  -7    6.20    4.50
  -6  -2  -7    1.90    6.10
  -6  -2  -7    5.90    4.60
   6   2   7    6.80    5.00
  -6   2  -7    8.60    7.10
  -6   2  -7   10.10    7.00
  -6   2  -7    7.30    2.60
  -6   2  -7    6.70    4.80
  -6   2  -7    7.40    2.90
   6   2   7    1.60    6.10
   6   2   7    2.20    4.80
  -7  -2  -7  120.19   10.80
  -7  -2  -7  104.49    8.90
   7  -2   7  111.69   10.80
  -7  -2  -7  105.69   10.40
   7  -2   7  116.89    8.10
  -7  -2  -7   92.79   12.30
  -7  -2  -7   96.39   11.30
   7  -2   7   95.49    8.90
   7  -2   7  107.19   10.00
   7   2   7  102.09   10.70
  -7   2  -7  106.29   10.80
   7   2   7  111.59   11.30
   7   2   7  113.29   11.70
  -7   2  -7  113.19   13.60
   7   2   7  107.29   10.80
  -7   2  -7  104.99    9.80
  -7  -3   7   -4.30    6.20
   7  -3  -7    6.80    5.40
   7  -3  -7    0.40    4.50
  -7  -3   7   -6.10    4.80
  -7  -3   7   -1.50    6.60
   7  -3  -7    7.20    3.50
   7  -3  -7   -4.40    5.20
  -7  -3   7    2.80    5.50
  -7   3   7    5.20   10.50
   7   3  -7    0.60    8.40
   7   3  -7   -5.10    5.00
  -7   3   7   -1.60    6.30
   7   3  -7   -6.80   12.40
  -7   3   7   -5.50    4.30
   7   3  -7   -3.50    6.10
  -6  -3   7    3.30    4.90
   6  -3  -7    0.10    3.40
   6  -3  -7   -3.80    4.80
  -6  -3   7    1.40    4.80
  -6  -3   7    6.80    5.40
   6  -3  -7   -3.80    4.50
   6  -3  -7    2.40    2.40
  -6  -3   7  -10.30    5.70
  -6   3   7    9.40    9.80
   6   3  -7   -4.10    4.50
   6   3  -7   -2.00    6.20
  -6   3   7    3.20    4.00
   6   3  -7   -5.70    6.40
   6   3  -7   -4.40    4.30
   6   3  -7    0.80   12.20
   5  -3  -7   32.10    4.10
   5  -3  -7   32.80    3.80
   5  -3  -7   26.40    4.00
   5  -3  -7   28.40    4.60
  -5  -3   7   22.50    4.60
  -5  -3   7   30.90    4.80
  -5  -3   7   25.00    5.10
  -5  -3   7   16.30    5.50
   5   3  -7   24.80    5.50
   5   3  -7   31.60    4.00
  -5   3   7   28.60    4.20
   5   3  -7   27.20   12.40
  -5   3   7   33.30    9.30
   5   3  -7   27.20    3.80
   4  -3  -7    6.10    2.20
  -4  -3   7   -0.80    4.40
  -4  -3   7    2.50    3.60
  -4  -3   7    3.30    4.00
  -4  -3   7    1.80    2.90
   4  -3  -7    7.00    2.40
   4  -3  -7    8.10    2.70
   4  -3  -7   14.80    3.40
   4   3  -7    6.70    2.30
   4   3  -7    3.70    4.00
   4   3  -7    6.30    4.60
  -4   3   7    7.10    2.90
  -4   3   7   15.00    7.80
   4   3  -7    4.10   11.70
   4   3  -7    5.80    4.40
   4   3  -7    7.30    1.70
  -3  -3   7  126.39    7.60
   3  -3  -7  144.59    5.40
  -3  -3   7  142.59    6.70
  -3  -3   7  140.09    7.90
   3  -3  -7  165.78   11.00
   3  -3  -7  152.88    6.30
  -3  -3   7  149.88    7.80
   3  -3  -7  140.29    5.40
   3  -3  -7  150.08    6.90
  -3   3   7  145.99    6.30
   3   3  -7  146.19    8.10
   3   3  -7  146.19   17.40
   3   3  -7  142.49    8.30
   3   3  -7  139.39    8.40
  -3   3   7  147.99   11.60
  -3   3   7  145.09    6.10
   2  -3  -7    6.60    1.70
  -2  -3   7    4.00    2.50
  -2  -3   7    4.20    2.90
  -2  -3   7    0.70    1.90
   2  -3  -7   -1.80    4.50
   2  -3  -7    1.60    2.20
  -2  -3   7   -0.20    2.40
  -2   3   7    0.60    3.80
   2   3  -7   10.40    4.00
  -2   3   7   -0.40    1.70
   2   3  -7    0.10    3.00
   2   3  -7    9.20   11.30
  -2   3   7    0.00    1.80
   2   3  -7    8.00    3.20
  -1  -3   7   -0.60    1.80
  -1  -3   7    1.90    1.90
   1  -3  -7    1.40    1.40
  -1  -3   7   -0.10    2.20
   1  -3  -7    0.90    2.40
   1  -3  -7    1.50    1.30
   1  -3  -7    1.30    3.70
   1  -3  -7    1.70    1.60
  -1  -3   7   -0.50    2.50
  -1   3   7    1.40    2.00
  -1   3   7    1.30    1.60
  -1   3   7    5.20    4.10
   1   3  -7    0.80    2.20
   1   3  -7    4.50   11.40
   1   3  -7    2.40    3.70
   0  -3  -7    2.80    2.20
   0  -3   7   -1.60    6.90
   0  -3  -7    4.50    3.20
   0  -3   7   -0.90    1.50
   0  -3  -7    3.40    1.80
   0  -3   7    3.80    2.40
   0  -3  -7   -0.40    1.90
   0  -3   7    1.30    1.20
   0  -3   7    1.40    1.30
   0   3   7    1.10    4.10
   0   3  -7    2.00    3.90
   0   3   7    4.50    2.30
   0   3  -7    3.20    1.80
   0   3  -7   -0.40   10.70
   0   3  -7    2.70    2.10
  -1  -3  -7   98.49    5.80
  -1  -3  -7   93.89    5.20
   1  -3   7   87.69    4.20
  -1  -3  -7   98.09    5.30
  -1  -3  -7   97.59    5.70
  -1  -3  -7   93.29    6.10
   1  -3   7   91.99    5.00
   1  -3   7  106.99   11.10
   1   3   7   93.79    5.90
   1   3   7   91.09    7.00
  -1   3  -7   85.39    6.90
  -1   3  -7   88.89    4.30
   1   3   7   95.99    6.00
  -1   3  -7   86.19   15.80
  -2  -3  -7    6.30    3.30
   2  -3   7    9.60    7.50
  -2  -3  -7    4.80    2.30
   2  -3   7   11.00    2.80
  -2  -3  -7    8.20    3.00
  -2  -3  -7   14.70    3.00
   2  -3   7   12.30    1.80
  -2  -3  -7   11.10    3.60
   2   3   7   11.30    4.50
   2   3   7   12.10    3.30
  -2   3  -7   14.60    2.00
   2   3   7    7.10    3.90
  -2   3  -7   15.50    2.40
  -2   3  -7   14.30   11.20
  -3  -3  -7    7.00    4.00
  -3  -3  -7   -1.10    3.60
  -3  -3  -7   -1.70    2.80
  -3  -3  -7    3.90    2.60
   3  -3   7   -1.90    1.80
   3  -3   7   -2.10    1.90
   3  -3   7    1.50    2.60
  -3  -3  -7   -1.60    3.30
  -3   3  -7   -6.70   11.10
  -3   3  -7    0.90    1.90
   3   3   7   -0.60    4.10
  -3   3  -7   -3.00    2.50
   3   3   7    1.80    1.40
   3   3   7   -3.80    3.60
   3   3   7    1.20    1.80
   3   3   7   -3.60    4.70
  -4  -3  -7   20.30    4.00
  -4  -3  -7   10.20    3.80
   4  -3   7   11.80    3.00
   4  -3   7    9.00    2.80
   4  -3   7   15.40    3.80
  -4  -3  -7   24.80    4.70
   4  -3   7   10.80    3.20
  -4  -3  -7   13.20    4.80
  -4   3  -7    9.90    3.70
   4   3   7    8.80    4.50
  -4   3  -7    7.10   13.00
  -4   3  -7    1.90    4.60
   4   3   7   11.70    3.30
   4   3   7   17.80    5.80
   4   3   7    9.00    3.00
  -5  -3  -7   56.69    7.50
   5  -3   7   46.70    5.20
   5  -3   7   38.00    5.70
   5  -3   7   41.50    5.20
  -5  -3  -7   32.50    5.80
   5  -3   7   46.40   12.80
   5  -3   7   42.90    5.60
  -5  -3  -7   61.09    7.10
  -5  -3  -7   44.60    6.20
  -5   3  -7   44.20    5.60
   5   3   7   42.50    7.40
   5   3   7   50.59    5.20
  -5   3  -7   53.09   15.70
   5   3   7   47.50    7.00
   5   3   7   50.69    5.50
   5   3   7   37.30    8.30
  -6  -3  -7   -1.80    5.20
   6  -3   7   -1.30    4.40
  -6  -3  -7   -1.60    5.60
   6  -3   7   -4.40    4.00
   6  -3   7   -1.80    4.70
  -6  -3  -7    3.80    6.80
   6  -3   7    0.10    9.50
  -6  -3  -7   12.80    7.70
   6   3   7   -6.30    6.20
  -6   3  -7    4.10   15.90
  -6   3  -7    7.40    4.60
   6   3   7    6.60    5.30
   6   3   7   -4.10    7.70
   6   3   7   -0.10    5.90
  -6   3  -7    4.80    6.00
  -4  -4   7    6.20    5.30
  -4  -4   7    9.40    5.10
  -4  -4   7    7.30    4.20
   4  -4  -7    6.40    3.60
   4  -4  -7    7.30    3.20
   4   4  -7    3.90    4.20
   4   4  -7   -0.10   10.80
   4   4  -7    2.30    5.10
   4   4  -7    5.00    6.30
  -3  -4   7  110.79    8.40
   3  -4  -7  116.99   13.40
  -3  -4   7  104.79    7.50
   3  -4  -7   93.49    5.70
  -3  -4   7  109.29    6.30
   3  -4  -7   88.39    5.20
  -3  -4   7   98.59    8.50
   3   4  -7  104.49    9.00
   3   4  -7  100.09   16.20
  -2  -4   7  287.17   11.80
   2  -4  -7  279.77   10.40
   2  -4  -7  280.27   15.20
  -2  -4   7  287.97   11.90
   2  -4  -7  277.57   10.00
  -2  -4   7  288.47    9.60
  -2  -4   7  256.17    9.50
   2   4  -7  279.27   22.00
  -2   4   7  268.37   15.70
   2   4  -7  280.97   11.30
   2   4  -7  292.77   13.30
  -1  -4   7   15.50    3.30
   1  -4  -7   17.10    2.20
  -1  -4   7   -2.70    9.50
  -1  -4   7   17.50    2.80
   1  -4  -7   11.10    2.80
   1  -4  -7   11.90    6.40
  -1   4   7   15.80    6.60
   1   4  -7   16.40    5.00
   1   4  -7   16.70   12.50
   1   4  -7   15.90    2.40
   0  -4   7   48.20   11.00
   0  -4  -7   44.80    3.90
   0  -4  -7   40.30    4.90
   0  -4   7   44.00    4.40
   0  -4   7   49.30    3.50
   0  -4  -7   54.19    6.50
   0   4  -7   37.50    5.90
   0   4  -7   32.80   13.80
   0   4   7   43.20    3.30
   0   4   7   42.00    7.80
  -1  -4  -7    3.60    3.10
   1  -4   7   -2.50    2.40
   1  -4   7   -2.50    1.70
   1  -4   7   -4.30    9.70
  -1  -4  -7    1.30    4.40
  -1   4  -7    2.90   13.30
   1   4   7    5.50    6.50
   1   4   7    5.50    2.10
   1   4   7   -2.90    3.40
  -2  -4  -7   13.20    3.80
   2  -4   7   33.50   11.50
  -2  -4  -7   22.10    4.40
   2  -4   7   16.30    2.10
  -2  -4  -7   12.40    5.50
  -2  -4  -7   19.10    4.50
  -2  -4  -7   16.40    3.50
   2  -4   7   19.60    2.90
  -2   4  -7    8.70   13.20
   2   4   7   19.20    4.80
   2   4   7   17.40    8.80
  -3  -4  -7   22.10    4.40
   3  -4   7   28.20   10.50
  -3  -4  -7   25.60    5.80
  -3  -4  -7   18.90    4.80
   3  -4   7   22.30    3.70
  -3  -4  -7   22.10    5.20
  -3   4  -7   15.10   16.10
   3   4   7   15.30    5.90
   3   4   7   16.00    8.90
  -4   4  -7  107.29   21.80
  -9   0   8   -9.90    5.90
   9   0  -8    8.00    6.20
   9   0  -8   -8.30    7.00
  -9   0   8   -5.50    8.30
  -9   0   8   10.30    8.90
   9   0  -8   -1.60    5.50
  -9   0   8    3.80    7.20
  -9   0   8   -6.10    6.00
   9   0  -8    9.80    7.80
  -8   0   8  586.34   27.30
  -8   0   8  768.52   30.40
  -8   0   8  685.13   26.90
   8   0  -8  694.13   26.90
   8   0  -8  712.03   27.40
   8   0  -8  669.43   26.60
  -8   0   8  689.03   26.20
   8   0  -8  708.23   26.60
  -8   0   8  703.63   26.90
  -7   0   8   -0.60    4.30
   7   0  -8   -2.80    4.60
  -7   0   8   -0.60    4.60
   7   0  -8    3.10    5.40
   7   0  -8   -4.20    4.80
  -7   0   8   -5.80    5.70
  -7   0   8   -3.60    5.20
   6   0  -8   88.49    7.40
   6   0  -8   79.49    7.40
  -6   0   8   85.99    7.90
   6   0  -8   75.89    7.60
   6   0  -8   62.69    7.80
  -6   0   8   70.19    8.30
  -6   0   8   76.09    7.20
  -6   0   8   63.69    7.10
  -5   0   8    0.80    3.80
   5   0  -8    0.10    3.70
   5   0  -8   -4.50    3.00
  -5   0   8   -3.60    3.00
  -5   0   8    1.30    2.90
   5   0  -8    3.90    3.60
   5   0  -8   -1.60    2.80
   4   0  -8  165.08    7.70
  -4   0   8  167.98    7.90
  -4   0   8  167.58    8.40
   4   0  -8  162.18    8.00
   4   0  -8  160.88    8.20
  -4   0   8  165.48    7.80
   4   0  -8  165.38    7.80
  -4   0   8  160.48    7.80
  -3   0   8   -2.10    2.40
   3   0  -8   -2.10    2.40
   3   0  -8    0.60    2.40
   3   0  -8   -0.70    2.80
   3   0  -8   -4.70    2.30
  -3   0   8   -2.50    3.00
  -3   0   8   -3.60    2.50
  -3   0   8   -2.00    2.20
  -2   0   8  357.66   12.80
  -2   0   8  389.06   12.90
  -2   0   8  368.06   12.70
   2   0  -8  357.16   12.80
   2   0  -8  366.96   12.80
  -2   0   8  353.06   12.80
   2   0  -8  344.57   12.80
   2   0  -8  351.56   12.70
   1   0  -8   -0.40    2.00
  -1   0   8   -1.00    2.20
   1   0  -8   -0.10    2.00
   1   0  -8    0.40    2.20
  -1   0   8   -0.90    1.80
  -1   0   8   -1.40    1.90
   1   0  -8    0.90    1.70
  -1   0   8   -1.90    1.80
   0   0  -8 1690.03   52.49
   0   0   8 1575.34   51.79
   0   0  -8 1656.23   52.59
   0   0  -8 1687.63   52.49
   0   0   8 1693.53   52.49
   0   0   8 1682.73   52.59
   0   0   8 1658.23   52.59
   0   0  -8 1715.23   52.69
   1   0   8   -0.30    2.20
   1   0   8    0.20    2.30
  -1   0  -8   -0.60    2.40
  -1   0  -8   -1.50    1.70
   1   0   8   -2.80    2.30
   1   0   8   -1.00    1.90
  -1   0  -8    0.00    2.00
  -1   0  -8   -4.70    2.00
   1   0   8    0.90    2.10
   2   0   8  510.45   17.30
   2   0   8  502.95   17.60
   2   0   8  489.85   17.40
  -2   0  -8  512.45   17.60
  -2   0  -8  510.55   17.50
  -2   0  -8  499.65   17.40
  -2   0  -8  516.05   17.40
   2   0   8  530.95   17.80
   2   0   8  516.95   17.40
  -3   0  -8   -0.90    2.20
   3   0   8    0.80    2.70
   3   0   8   -2.00    2.70
  -3   0  -8   -2.70    2.90
  -3   0  -8   -0.10    3.10
   3   0   8    0.40    2.90
  -3   0  -8   -0.20    2.80
   3   0   8    3.70    2.70
   3   0   8    0.90    2.50
  -3   0  -8   -0.60    2.80
  -4   0  -8    2.50    3.50
   4   0   8    3.10    3.20
  -4   0  -8    2.60    3.10
  -4   0  -8    3.80    3.50
   4   0   8   -2.10    3.00
   4   0   8    2.40    3.10
  -4   0  -8    1.00    3.20
   4   0   8   -0.70    3.70
  -4   0  -8   -0.80    3.10
  -5   0  -8    3.80    4.70
  -5   0  -8    0.00    3.90
   5   0   8    2.90    4.20
   5   0   8    6.20    4.10
  -5   0  -8   -1.40    3.90
   5   0   8    1.30    3.80
   5   0   8   -3.20    3.60
  -5   0  -8    1.20    4.70
   6   0   8  480.15   19.30
   6   0   8  464.85   19.60
  -6   0  -8  498.05   19.40
   6   0   8  508.85   19.50
  -6   0  -8  482.65   19.90
  -6   0  -8  544.45   20.40
   6   0   8  466.25   19.50
  -6   0  -8  531.15   20.10
   7   0   8   11.30    5.90
   7   0   8    9.20    8.60
  -7   0  -8    3.80    6.50
   7   0   8    7.70    4.80
   7   0   8    4.70    5.20
  -7   0  -8   -4.40    5.60
  -7   0  -8    1.80    6.10
  -8   0  -8   15.00    7.80
  -8   0  -8   33.90    8.90
   8   0   8   32.80    6.40
   8   0   8   33.40    8.20
  -8   0  -8   38.40    8.30
  -8   0  -8   36.00    8.40
   8   0   8   31.00    7.60
   8   0   8   42.70    8.40
   9  -1  -8    3.20    6.60
  -9  -1   8   -5.20    5.90
   9  -1  -8    6.20    5.70
   9  -1  -8    1.80    5.70
  -9  -1   8    8.80    8.70
  -9  -1   8    6.90    6.50
   9  -1  -8    4.80    6.70
  -9  -1   8   16.00    7.90
  -9   1   8   -2.90    8.90
   9   1  -8    3.10    9.20
   9   1  -8   15.40    6.10
  -9   1   8   10.00    6.60
  -9   1   8   15.30    8.70
   9   1  -8    6.70    7.40
   9   1  -8   10.40    7.00
  -9   1   8    9.50    7.00
   8  -1  -8   -4.30    6.00
  -8  -1   8   10.50    7.10
   8  -1  -8    8.40    5.50
   8  -1  -8    4.30    5.20
  -8  -1   8    2.40    6.70
   8  -1  -8   11.50    6.30
  -8  -1   8  -14.40    6.60
  -8  -1   8   -1.80    6.20
   8   1  -8   -1.60    6.80
  -8   1   8   -6.30    8.70
  -8   1   8    5.20    4.70
  -8   1   8    4.90    5.60
   8   1  -8    3.40    7.30
   8   1  -8    7.80    6.60
  -8   1   8    5.50    6.30
   8   1  -8   -5.10    6.10
   7  -1  -8   29.50    4.90
   7  -1  -8   21.70    5.10
   7  -1  -8   29.90    9.00
  -7  -1   8   17.00    5.70
  -7  -1   8   19.00    6.00
  -7  -1   8   18.20    6.50
   7  -1  -8   13.60    4.90
   7  -1  -8   20.30    5.10
  -7   1   8   19.70    7.30
   7   1  -8   10.30    6.30
  -7   1   8   19.10    6.30
   7   1  -8   20.60    5.70
   7   1  -8   28.60    6.40
  -7   1   8   20.80    4.80
  -7   1   8   21.30    4.90
  -6  -1   8  178.18   10.40
  -6  -1   8  196.38   10.60
   6  -1  -8  183.88    9.60
   6  -1  -8  207.38   10.20
   6  -1  -8  180.98   10.30
  -6  -1   8  198.18   10.90
   6  -1  -8  192.78   10.00
  -6  -1   8  167.98   10.40
   6   1  -8  193.88   11.00
   6   1  -8  179.08   10.10
   6   1  -8  180.58   11.70
  -6   1   8  207.28    9.40
  -6   1   8  202.88   13.00
   6   1  -8  203.08   11.10
  -6   1   8  189.38    9.50
  -6   1   8  186.38   10.40
  -5  -1   8    2.70    3.40
   5  -1  -8    0.70    2.80
   5  -1  -8   -2.50    2.90
  -5  -1   8    1.40    3.80
   5  -1  -8   -0.80    3.40
   5  -1  -8    5.50    3.10
  -5  -1   8    2.90    3.60
   5   1  -8    0.30    3.50
  -5   1   8   -0.40    4.80
   5   1  -8    1.80    3.20
   5   1  -8    3.00    3.50
   5   1  -8   -2.50    3.90
  -5   1   8    1.30    2.80
  -5   1   8    1.90    3.60
  -5   1   8    4.00    3.20
  -5   1   8    1.80    3.70
  -4  -1   8  266.77   11.30
   4  -1  -8  265.77   10.50
  -4  -1   8  258.97   10.90
  -4  -1   8  259.97   10.90
   4  -1  -8  272.47   10.50
   4  -1  -8  264.17   10.50
  -4  -1   8  264.77   11.10
   4  -1  -8  280.77   10.80
  -4   1   8  272.87   11.00
   4   1  -8  261.47   11.10
  -4   1   8  262.77   12.30
   4   1  -8  271.87   10.80
  -4   1   8  257.07   10.70
  -4   1   8  247.68   10.30
   4   1  -8  268.97   11.50
   4   1  -8  269.97   11.10
  -4   1   8  274.67   10.20
  -3  -1   8    6.50    3.10
   3  -1  -8    4.90    2.20
   3  -1  -8    3.60    2.50
  -3  -1   8   11.30    2.90
   3  -1  -8    7.00    2.30
  -3  -1   8    4.00    2.90
   3  -1  -8    6.70    2.10
  -3  -1   8    6.90    2.80
   3   1  -8    6.30    2.90
  -3   1   8    4.80    2.60
   3   1  -8    4.70    3.00
   3   1  -8    5.90    2.80
  -3   1   8    6.10    3.00
  -3   1   8    3.10    3.90
  -3   1   8    2.00    2.20
  -3   1   8    3.40    1.90
   3   1  -8    8.00    2.60
   2  -1  -8   91.39    4.90
  -2  -1   8   88.59    5.20
  -2  -1   8   93.19    5.20
   2  -1  -8   96.39    4.80
   2  -1  -8   90.09    5.10
  -2  -1   8  100.29    5.30
  -2  -1   8   95.49    5.20
   2  -1  -8   93.49    4.90
  -2   1   8   94.39    4.90
  -2   1   8   89.59    4.70
  -2   1   8   95.09    4.50
  -2   1   8   94.59    5.30
   2   1  -8   89.49    5.20
   2   1  -8   94.39    5.10
   2   1  -8   97.99    5.40
   1  -1  -8  118.89    5.40
  -1  -1   8  115.59    5.40
  -1  -1   8  115.89    5.60
   1  -1  -8  106.79    5.20
   1  -1  -8  118.59    5.20
  -1  -1   8  114.89    5.40
   1  -1  -8  114.59    5.30
  -1  -1   8  116.09    5.40
  -1   1   8  118.69    5.40
  -1   1   8  108.29    5.70
   1   1  -8  115.59    5.50
   1   1  -8  118.69    5.40
  -1   1   8  109.19    5.20
  -1   1   8  113.49    4.90
   1   1  -8  115.99    5.80
   1   1  -8  114.79    5.10
   1   1  -8  122.19    4.60
  -1   1   8  112.29    5.50
   0  -1  -8  562.44   18.50
   0  -1   8  558.74   18.30
   0  -1   8  577.94   18.60
   0  -1   8  555.74   18.40
   0  -1  -8  556.44   18.40
   0  -1  -8  575.74   18.60
   0  -1   8  571.24   18.50
   0  -1  -8  549.45   18.40
   0   1  -8  553.94   18.50
   0   1  -8  545.35   18.20
   0   1   8  565.74   18.60
   0   1   8  547.45   17.80
   0   1  -8  583.94   18.20
   0   1   8  535.75   18.60
   0   1   8  570.94   18.30
   0   1  -8  581.74   18.60
   0   1   8  482.15   18.60
   0   1   8  558.94   18.40
  -1  -1  -8  485.35   16.30
  -1  -1  -8  491.85   16.50
  -1  -1  -8  478.05   16.40
  -1  -1  -8  468.55   16.20
   1  -1   8  493.35   17.60
   1  -1   8  472.35   16.10
   1  -1   8  469.45   16.00
   1  -1   8  477.35   16.10
   1  -1   8  473.85   16.20
  -1   1  -8  472.85   15.80
   1   1   8  488.65   16.50
   1   1   8  483.45   16.40
  -1   1  -8  461.75   16.20
  -1   1  -8  481.85   16.20
   1   1   8  489.15   16.20
   1   1   8  485.35   16.20
   1   1   8  437.86   16.30
  -1   1  -8  484.25   15.90
   2  -1   8  166.38    6.80
   2  -1   8  153.28    7.00
  -2  -1  -8  159.48    7.20
  -2  -1  -8  166.58    7.30
  -2  -1  -8  160.68    7.50
   2  -1   8  142.89    8.60
   2  -1   8  157.18    6.90
   2  -1   8  166.88    6.90
  -2   1  -8  162.48    7.10
   2   1   8  161.98    7.40
  -2   1  -8  158.98    6.60
   2   1   8  158.38    7.40
   2   1   8  162.38    7.20
  -2   1  -8  157.38    6.70
   2   1   8  157.28    7.40
  -2   1  -8  162.48    7.30
  -3  -1  -8 1004.70   33.20
   3  -1   8 1025.30   32.80
  -3  -1  -8 1008.10   33.00
  -3  -1  -8  918.71   31.90
   3  -1   8  973.40   33.80
  -3  -1  -8 1024.50   33.10
  -3  -1  -8 1008.80   33.20
   3  -1   8  985.60   32.60
   3  -1   8 1014.30   32.70
   3  -1   8 1019.20   32.90
  -3   1  -8 1008.20   32.90
  -3   1  -8 1039.90   33.00
  -3   1  -8  972.20   32.30
   3   1   8 1028.40   33.30
   3   1   8  978.50   32.80
   3   1   8 1008.50   33.20
  -3   1  -8 1015.60   32.40
   3   1   8  998.00   32.90
  -4  -1  -8  240.18   10.20
   4  -1   8  258.27   12.30
   4  -1   8  236.18   10.60
  -4  -1  -8  266.07   11.20
   4  -1   8  245.88   10.50
   4  -1   8  249.18   10.80
  -4  -1  -8  260.67   11.50
  -4  -1  -8  251.97   11.10
  -4  -1  -8  248.98   11.30
   4  -1   8  262.17   10.60
   4   1   8  253.77   11.20
  -4   1  -8  265.27   10.30
  -4   1  -8  276.07   12.90
   4   1   8  247.88   11.00
  -4   1  -8  256.77   10.70
   4   1   8  256.07   11.20
  -4   1  -8  272.37   10.90
  -4   1  -8  248.98   12.40
   4   1   8  264.07   11.80
  -4   1  -8  258.97   10.40
  -5  -1  -8    3.60    7.50
  -5  -1  -8    5.50    4.50
   5  -1   8    4.70    3.30
  -5  -1  -8   -4.20    4.10
  -5  -1  -8    2.40    4.30
   5  -1   8    8.30    3.90
  -5  -1  -8    1.50    4.80
   5  -1   8   12.80    4.20
   5  -1   8    2.70    4.00
   5  -1   8    7.70    6.40
  -5  -1  -8    5.40    3.80
  -5   1  -8   -0.30    3.30
  -5   1  -8    7.40    5.70
   5   1   8    3.50    4.30
  -5   1  -8    9.10    4.50
  -5   1  -8    8.20    6.00
  -5   1  -8    4.50    3.30
  -5   1  -8    4.60    4.50
   5   1   8    9.30    4.90
   5   1   8    6.60    4.90
   5   1   8    6.30    5.10
  -6  -1  -8  140.09    9.40
  -6  -1  -8  143.79   10.70
   6  -1   8  134.59    8.30
  -6  -1  -8  142.29   10.70
   6  -1   8  153.48    9.10
   6  -1   8  150.78    8.80
  -6  -1  -8  148.69    9.90
   6  -1   8  145.49    9.60
  -6  -1  -8  134.29   10.20
   6   1   8  139.29   10.10
   6   1   8  141.89   10.50
  -6   1  -8  119.79    8.30
  -6   1  -8  149.59   11.60
   6   1   8  143.99    9.90
   6   1   8  154.68   11.40
  -6   1  -8  149.88   10.20
  -6   1  -8  134.89    8.80
  -6   1  -8  114.29    8.80
   7  -1   8   -2.60    4.80
  -7  -1  -8   -4.40    6.00
  -7  -1  -8   -4.20    5.70
   7  -1   8   -1.30    5.50
  -7  -1  -8    0.00    6.30
   7  -1   8   10.30    5.00
  -7  -1  -8   10.30    7.50
   7  -1   8   30.40    7.00
   7   1   8    0.80    6.20
  -7   1  -8    6.00    6.90
  -7   1  -8   14.20    5.10
   7   1   8    2.70    6.50
  -7   1  -8    7.50    5.00
  -7   1  -8    3.10    5.60
   7   1   8    6.50    6.30
   7   1   8   -1.90    6.20
  -8  -1  -8   13.70    8.80
  -8  -1  -8   -1.00    6.30
  -8  -1  -8  -15.40    7.70
  -8  -1  -8   -1.40    5.40
   8  -1   8    2.10    5.00
  -8  -1  -8  -10.50    6.80
   8  -1   8   -2.00    7.10
   8  -1   8   -7.00    4.80
  -8   1  -8   -3.70    5.60
  -8   1  -8    5.30    5.60
   8   1   8    4.60    7.10
  -8   1  -8    7.40    8.80
   8   1   8   -1.30    8.20
   8   1   8   -4.30    6.70
   8   1   8    4.90    7.30
  -8   1  -8    0.00    7.80
   8  -2  -8    2.80    5.20
  -8  -2   8  -10.00    6.20
   8  -2  -8    8.40    5.80
  -8  -2   8    9.90    5.40
   8  -2  -8   -4.30    6.60
   8  -2  -8  -12.40    4.60
  -8  -2   8   -5.10    6.10
  -8   2   8   16.90    9.90
  -8   2   8   -4.70    6.80
  -8   2   8    3.10    6.70
  -8   2   8   -4.40    4.40
   8   2  -8    2.10    6.60
  -8   2   8    3.50    3.30
   8   2  -8    0.40    6.50
   8   2  -8   -7.50    6.90
   8   2  -8   -0.10    6.60
   8   2  -8   -2.40    8.20
  -7  -2   8    7.20    6.10
   7  -2  -8    4.90    4.50
  -7  -2   8    4.40    4.50
  -7  -2   8    0.70    5.30
   7  -2  -8    7.80    4.70
   7  -2  -8    2.10    4.90
   7  -2  -8    3.20    3.90
  -7   2   8    5.40    6.00
  -7   2   8   -0.40    3.70
   7   2  -8    7.70    9.30
  -7   2   8    4.80    9.20
   7   2  -8   -5.60    4.80
   7   2  -8    9.50    6.00
  -7   2   8    7.40    5.50
  -7   2   8   11.10    3.00
   7   2  -8    5.10    7.00
   6  -2  -8   36.40    5.40
  -6  -2   8   26.50    5.40
   6  -2  -8   31.50    4.40
   6  -2  -8   30.20    3.60
  -6  -2   8   35.40    5.30
   6  -2  -8   32.40    4.70
  -6  -2   8   25.70    5.50
  -6   2   8   28.30    3.50
  -6   2   8   38.20    8.60
  -6   2   8   32.80    3.00
   6   2  -8   28.50    5.00
  -6   2   8   21.80    5.00
   6   2  -8   32.20    5.80
  -6   2   8   25.80    5.30
   6   2  -8   16.90    5.70
  -5  -2   8   -1.60    3.20
   5  -2  -8    3.10    3.50
  -5  -2   8   -2.20    4.20
   5  -2  -8    0.80    3.10
   5  -2  -8   -2.50    3.20
   5  -2  -8   -3.40    2.10
  -5  -2   8    3.60    4.20
  -5  -2   8   -1.00    3.70
   5   2  -8    1.70    3.40
  -5   2   8   -4.10    3.60
  -5   2   8    0.10    1.40
   5   2  -8    1.30    4.40
   5   2  -8   -2.20    4.60
   5   2  -8   -1.30    3.70
  -5   2   8   -1.30    2.20
  -5   2   8   -1.90    3.50
  -5   2   8   -0.30    6.30
   5   2  -8    3.50    7.30
   4  -2  -8    0.40    2.50
  -4  -2   8    5.10    3.20
   4  -2  -8    3.80    2.60
  -4  -2   8    7.40    2.80
   4  -2  -8    5.70    2.00
   4  -2  -8    3.30    2.80
  -4  -2   8    1.30    3.40
  -4  -2   8    4.90    3.30
   4   2  -8    9.00    4.20
  -4   2   8   -0.30    5.30
  -4   2   8    8.00    2.90
   4   2  -8    6.70    3.90
   4   2  -8    4.80    3.10
   4   2  -8    7.20    7.50
  -4   2   8    3.80    3.10
   4   2  -8    7.80    2.90
  -3  -2   8   86.39    5.50
   3  -2  -8   84.49    4.80
  -3  -2   8   86.69    5.20
   3  -2  -8   82.79    4.90
  -3  -2   8   88.99    5.50
  -3  -2   8   80.69    5.90
   3  -2  -8   88.09    4.80
   3  -2  -8   81.39    4.40
  -3   2   8   81.69    5.30
   3   2  -8   70.69    9.70
   3   2  -8   86.09    4.70
  -3   2   8   76.09    5.00
   3   2  -8   83.79    5.30
   3   2  -8   85.49    6.00
   3   2  -8   82.49    6.30
  -3   2   8   83.69    7.90
  -2  -2   8  402.36   13.60
   2  -2  -8  381.36   13.10
  -2  -2   8  382.46   13.50
   2  -2  -8  375.46   13.00
   2  -2  -8  388.56   13.00
  -2  -2   8  385.46   13.60
  -2  -2   8  373.76   13.40
   2   2  -8  377.46   12.90
   2   2  -8  385.86   13.80
   2   2  -8  376.36   12.70
   2   2  -8  377.46   13.80
  -2   2   8  375.76   13.30
   2   2  -8  385.46   13.70
   2   2  -8  317.57   17.60
  -2   2   8  392.56   15.00
  -2   2   8  375.16   13.20
  -2   2   8  374.16   14.50
   1  -2  -8  246.18    9.40
  -1  -2   8  253.67    9.60
  -1  -2   8  256.47    9.70
  -1  -2   8  247.58    9.50
   1  -2  -8  253.57    9.40
   1  -2  -8  264.57    9.30
   1  -2  -8  257.67    9.30
  -1  -2   8  251.87    9.50
   1   2  -8  241.68    8.50
   1   2  -8  285.47   10.10
   1   2  -8  256.77    8.40
   1   2  -8  261.97    9.80
  -1   2   8  270.47   11.10
  -1   2   8  263.47    9.80
  -1   2   8  282.77   10.70
  -1   2   8  264.47    9.50
   1   2  -8  251.47   14.50
   0  -2   8   26.90    3.10
   0  -2  -8   31.90    3.40
   0  -2  -8   30.10    3.00
   0  -2  -8   34.90    3.10
   0  -2   8   32.10    3.20
   0  -2   8   32.70    2.90
   0  -2   8   31.80    2.80
   0  -2  -8   37.10    3.50
   0   2  -8   44.00    8.30
   0   2  -8   33.80    4.00
   0   2   8   35.20    4.50
   0   2  -8   26.70    3.40
   0   2   8   32.80    3.40
   0   2   8   33.60    3.90
   0   2   8   33.80    1.80
   0   2  -8   29.40    3.90
  -1  -2  -8  224.28    9.00
   1  -2   8  232.78    8.50
   1  -2   8  230.58    8.60
  -1  -2  -8  233.58    9.20
   1  -2   8  245.58   12.10
   1  -2   8  231.68    8.70
   1  -2   8  240.08    8.50
  -1  -2  -8  243.08    9.10
  -1  -2  -8  252.67    8.00
  -1   2  -8  224.08    8.90
   1   2   8  234.58    8.30
   1   2   8  224.18   10.00
  -1   2  -8  226.98    8.80
   1   2   8  225.88    8.50
   1   2   8  233.68    9.50
  -1   2  -8  236.38   13.80
   1   2   8  231.18    9.30
   2  -2   8   26.80    3.00
   2  -2   8   27.90    3.10
  -2  -2  -8   32.50    3.60
  -2  -2  -8   26.40    3.50
   2  -2   8   34.10    5.80
   2  -2   8   29.90    3.00
  -2  -2  -8   29.80    3.90
  -2  -2  -8   26.20    3.30
   2  -2   8   28.40    3.60
  -2   2  -8   25.50    3.00
   2   2   8   26.00    3.70
   2   2   8   31.90    3.90
  -2   2  -8   34.20    7.80
  -2   2  -8   28.10    3.30
   2   2   8   34.60    3.60
   2   2   8   22.30    4.20
   2   2   8   26.40    3.10
  -3  -2  -8   94.99    6.60
  -3  -2  -8   92.79    6.50
   3  -2   8   98.89    5.80
  -3  -2  -8   94.59    6.80
   3  -2   8  104.19    5.50
   3  -2   8   96.59    5.10
   3  -2   8  108.79    9.90
  -3  -2  -8  107.09    6.60
  -3   2  -8  105.29    6.20
   3   2   8  101.29    7.10
  -3   2  -8  100.69    6.10
  -3   2  -8  122.99   11.00
   3   2   8  108.39    7.30
   3   2   8  108.99    6.40
   3   2   8  107.99    6.30
  -4  -2  -8   98.89    7.90
   4  -2   8  101.49    6.60
  -4  -2  -8   96.19    7.00
   4  -2   8   93.69    6.40
  -4  -2  -8   93.79    7.20
   4  -2   8   88.79    9.70
  -4  -2  -8  101.29    7.90
   4  -2   8   87.49    6.20
   4  -2   8   91.39    5.10
  -4  -2  -8   91.59    5.60
   4   2   8  103.79    8.10
  -4   2  -8   93.79    6.70
   4   2   8  106.39    7.70
  -4   2  -8  106.19   10.20
  -4   2  -8   94.59    4.00
   4   2   8   90.99    7.00
  -4   2  -8   78.29    6.80
   4   2   8   94.39    7.10
  -4   2  -8   91.89    4.30
   5  -2   8    8.00    2.90
   5  -2   8    6.20    3.50
  -5  -2  -8    8.00    4.70
   5  -2   8   12.60    4.60
  -5  -2  -8    5.70    4.70
   5  -2   8    2.40    3.60
  -5  -2  -8    9.60    3.70
  -5  -2  -8   10.30    5.10
   5  -2   8    6.70    7.10
  -5  -2  -8    6.80    4.20
  -5   2  -8   12.10    2.20
   5   2   8   17.80    4.50
  -5   2  -8    5.30    2.40
   5   2   8   10.00    5.50
  -5   2  -8   10.30    4.70
  -5   2  -8    9.80    7.20
  -5   2  -8    5.90    6.60
   5   2   8    3.60    4.50
  -5   2  -8   11.90    4.40
  -6  -2  -8    8.00    5.60
   6  -2   8    4.50    4.30
  -6  -2  -8   -2.20    4.70
   6  -2   8   -1.80   10.40
   6  -2   8    3.20    4.00
  -6  -2  -8    1.30    5.70
   6  -2   8    8.40    3.70
  -6  -2  -8    2.50    4.30
  -6  -2  -8   -2.10    6.10
   6  -2   8    8.10    4.20
   6   2   8    0.50    4.90
  -6   2  -8    3.20    3.00
  -6   2  -8    0.30    6.90
  -6   2  -8    7.90    5.00
  -6   2  -8    2.00    2.60
  -6   2  -8   -0.80    7.20
   6   2   8   -0.90    6.60
   6   2   8   -0.20    4.70
  -7  -2  -8   10.90    7.60
  -7  -2  -8   10.50    5.50
   7  -2   8    8.80    6.20
  -7  -2  -8    3.40    7.60
  -7  -2  -8   -7.30    7.20
   7  -2   8    1.90    5.50
   7  -2   8    8.30    5.20
  -7  -2  -8   10.80    5.20
   7  -2   8   -0.40    5.00
   7   2   8    7.80    6.40
  -7   2  -8   -2.10    3.20
  -7   2  -8   -1.20    3.50
  -7   2  -8    7.70    7.00
  -7   2  -8    1.30    8.50
  -7   2  -8   -5.70    6.00
   7   2   8   10.70    6.90
   7   2   8   17.80    7.70
   7   2   8   18.10    8.00
  -7  -3   8   20.10    5.80
   7  -3  -8   23.30    5.80
   7  -3  -8   13.70    4.70
  -7  -3   8   14.10    6.90
  -7  -3   8   31.40    6.20
  -7  -3   8   18.20    7.90
   7   3  -8    7.10    8.80
  -7   3   8    7.20    5.20
  -7   3   8   16.60   11.00
   7   3  -8   21.70    6.10
   7   3  -8   28.30   13.50
  -7   3   8   19.80    6.90
   7   3  -8   21.80    6.80
   7   3  -8    4.80    9.30
  -6  -3   8   -6.40    4.90
   6  -3  -8   -3.50    3.60
  -6  -3   8    7.00    6.50
  -6  -3   8    1.40    5.10
  -6  -3   8    3.60    5.00
   6  -3  -8    5.50    2.40
   6  -3  -8   -1.90    4.70
   6  -3  -8    3.30    4.80
   6   3  -8    5.40    4.70
   6   3  -8    0.20    4.30
   6   3  -8    3.30    6.80
  -6   3   8   14.80    4.40
  -6   3   8    2.10   10.00
   6   3  -8   -0.40   11.80
   6   3  -8    1.30    6.90
   5  -3  -8   -2.30    4.20
  -5  -3   8   -2.30    3.80
   5  -3  -8    2.70    3.20
  -5  -3   8   -2.10    4.30
   5  -3  -8   -2.90    3.80
   5  -3  -8    1.60    3.20
  -5  -3   8   -7.70    3.90
  -5  -3   8   -2.00    4.80
   5   3  -8   -5.20    4.60
   5   3  -8   -4.60    3.10
   5   3  -8    0.40    2.90
  -5   3   8    2.60    3.80
  -5   3   8    1.20    3.60
   5   3  -8   -3.40   11.20
  -5   3   8  -13.20    8.30
   4  -3  -8   61.59    5.50
   4  -3  -8   67.19    4.70
   4  -3  -8   69.29    5.00
  -4  -3   8   58.59    6.90
  -4  -3   8   53.39    5.20
   4  -3  -8   60.69    4.60
  -4  -3   8   60.09    7.90
  -4  -3   8   59.59    6.20
   4   3  -8   65.79    3.70
   4   3  -8   71.49    7.90
  -4   3   8   76.99    9.80
   4   3  -8   59.59    4.20
   4   3  -8   70.69    6.70
  -4   3   8   70.89    5.40
   4   3  -8   59.19   13.10
   4   3  -8   67.79    7.10
  -3  -3   8   18.70    3.80
  -3  -3   8   21.20    3.90
   3  -3  -8   23.00    2.80
   3  -3  -8   20.90    3.10
  -3  -3   8   15.60    3.60
   3  -3  -8   15.60    2.40
  -3  -3   8   21.00    2.80
  -3   3   8   20.40    2.90
   3   3  -8   17.00    4.40
  -3   3   8   24.10    7.00
   3   3  -8   11.80    4.50
  -3   3   8   14.80    2.50
  -2  -3   8    6.00    2.80
   2  -3  -8    3.90    1.70
   2  -3  -8    5.30    2.70
  -2  -3   8    3.60    2.80
   2  -3  -8    3.60    4.70
  -2  -3   8    1.40    1.80
   2  -3  -8    5.70    1.80
  -2  -3   8    2.80    2.90
   2  -3  -8    3.70    1.90
   2   3  -8    0.60    3.00
  -2   3   8    1.80    2.20
  -2   3   8    4.60    4.40
  -2   3   8    6.30    1.90
   2   3  -8   11.80    4.10
   2   3  -8    4.80    3.20
   2   3  -8   12.00   12.70
   1  -3  -8   15.00    4.50
  -1  -3   8    7.10    2.30
   1  -3  -8   10.60    2.00
   1  -3  -8    7.60    2.00
  -1  -3   8    8.40    2.80
  -1  -3   8    6.00    2.20
   1  -3  -8    9.30    2.80
  -1  -3   8    8.10    2.90
   1   3  -8    5.10    3.50
  -1   3   8    8.50    2.00
  -1   3   8   11.80    4.60
   1   3  -8   19.10    4.20
   1   3  -8   14.20   13.20
   1   3  -8   10.00    2.90
  -1   3   8   12.50    2.50
   0  -3   8    0.40    2.40
   0  -3   8    2.40    1.70
   0  -3   8   -0.10    1.80
   0  -3  -8    1.60    2.00
   0  -3  -8   -4.80    2.70
   0  -3   8   -0.20    1.80
   0  -3  -8    2.40    2.70
   0  -3   8    0.70    7.00
   0  -3  -8    2.10    3.10
   0  -3  -8   -3.30    1.90
   0   3  -8   14.50    4.20
   0   3   8    1.50    3.30
   0   3  -8   -6.20   11.50
   0   3  -8    0.20    2.30
   0   3   8    2.70    2.50
   0   3  -8    0.60    1.90
   0   3   8   -3.00    3.70
   1  -3   8    0.40    2.40
   1  -3   8   -0.30    7.30
  -1  -3  -8    0.90    2.40
   1  -3   8    0.10    1.40
  -1  -3  -8    1.00    2.10
   1  -3   8   -0.70    1.40
  -1  -3  -8   -1.30    2.50
  -1  -3  -8    0.60    2.40
  -1  -3  -8    5.40    3.10
   1  -3   8   -0.50    1.60
   1   3   8    2.40    4.30
  -1   3  -8    7.40   11.70
  -1   3  -8    0.90    2.20
  -1   3  -8   -2.00    1.70
   1   3   8   -2.30    2.90
   1   3   8   -1.60    2.80
  -2  -3  -8   12.10    3.60
  -2  -3  -8    4.70    2.60
   2  -3   8    6.80    2.70
   2  -3   8   10.10    2.10
   2  -3   8   18.20    8.50
  -2  -3  -8    1.90    2.90
   2  -3   8    8.60    1.90
  -2  -3  -8    6.30    3.30
  -2  -3  -8    5.80    2.10
   2  -3   8    9.50    1.80
  -2   3  -8    4.40    2.10
   2   3   8    5.50    3.50
  -2   3  -8    3.20   11.70
  -2   3  -8    6.70    2.50
   2   3   8    8.80    3.70
   2   3   8   11.30    4.40
   3  -3   8   10.80    3.10
  -3  -3  -8   -3.00    2.60
  -3  -3  -8    7.00    4.30
  -3  -3  -8    3.20    3.50
  -3  -3  -8    3.40    4.10
   3  -3   8   -1.30    2.30
   3  -3   8   -0.40    2.20
  -3  -3  -8    1.80    2.00
  -3   3  -8   -4.10   11.40
   3   3   8   -2.00    1.70
   3   3   8    1.30    2.10
   3   3   8    3.30    3.60
  -3   3  -8    1.90    3.10
   3   3   8   -1.30    4.20
   3   3   8   -0.10    4.20
   4  -3   8   15.00    3.60
  -4  -3  -8    9.50    4.90
  -4  -3  -8   14.10    4.40
   4  -3   8   16.50    3.80
  -4  -3  -8   19.90    4.20
  -4  -3  -8   10.50    4.60
   4  -3   8   10.90    3.50
   4  -3   8    7.40    3.70
  -4   3  -8    5.00   12.60
   4   3   8   14.90    3.50
   4   3   8    6.20    4.90
   4   3   8   13.60    3.40
  -4   3  -8   10.70    3.90
   4   3   8   11.70    4.80
   5  -3   8    7.20    3.30
  -5  -3  -8    5.10    5.00
   5  -3   8    4.10    4.60
  -5  -3  -8    3.10    5.20
  -5  -3  -8   -1.60    5.90
   5  -3   8   -0.50    3.30
   5  -3   8    0.60   10.40
   5  -3   8   -0.50    4.50
  -5  -3  -8   -3.40    5.10
   5   3   8    4.20    4.50
   5   3   8    0.00    5.70
   5   3   8    7.60    4.20
  -5   3  -8   -3.00    3.80
   5   3   8    3.40    7.70
  -5   3  -8   -1.30   13.50
  -5   3  -8   -0.40    5.00
   5   3   8    2.20    6.70
   6  -3   8   40.80   11.70
   6  -3   8   32.20    4.20
   6  -3   8   30.60    5.40
  -6  -3  -8   41.50    6.40
   6  -3   8   43.10    6.50
   6  -3   8   27.40    4.90
  -6  -3  -8   38.00    4.90
  -6  -3  -8   34.10    7.80
  -6  -3  -8   41.00    5.70
  -6  -3  -8   43.80    8.30
  -6   3  -8   40.90    6.90
  -6   3  -8   19.90   15.20
   6   3   8   30.70    6.50
   6   3   8   44.60    8.50
   6   3   8   26.20    9.00
   6   3   8   27.10    6.80
   6   3   8   40.70    6.20
   4  -4  -8   32.00    3.80
  -4  -4   8   39.00    5.30
   4  -4  -8   28.80    4.00
  -4  -4   8   43.50    4.10
  -4  -4   8   24.80    5.60
  -4  -4   8   22.20    5.70
   4   4  -8   27.30    7.40
   4   4  -8   42.90    6.40
   4   4  -8   20.00   12.70
   3  -4  -8   37.20    4.90
  -3  -4   8   41.60    5.90
  -3  -4   8   45.60    5.60
  -3  -4   8   63.79    7.50
   3  -4  -8   46.90    4.30
  -3  -4   8   46.10    5.30
   3   4  -8   43.60   13.10
   3   4  -8   38.50    6.80
  -2  -4   8   19.30    2.60
  -2  -4   8   20.00    2.50
   2  -4  -8   21.10    2.60
  -2  -4   8   24.20    4.00
   2  -4  -8   23.30    3.20
  -2  -4   8   17.80    4.00
   2  -4  -8   16.60    7.30
   2   4  -8   18.00    2.90
  -2   4   8   15.00    9.50
   2   4  -8   24.30   13.60
   2   4  -8   19.00    4.10
   2   4  -8   32.00    5.60
   1  -4  -8    5.60    2.80
   1  -4  -8   12.30    6.70
  -1  -4   8    1.20    9.80
  -1  -4   8    1.60    2.70
  -1  -4   8    4.70    3.20
   1  -4  -8   -1.40    2.20
   1   4  -8    2.00    1.80
   1   4  -8   12.70   12.70
   1   4  -8    6.60    5.10
  -1   4   8    8.20    7.10
   1   4  -8   10.30    2.60
   0  -4  -8    2.80    2.50
   0  -4  -8   -2.10    3.00
   0  -4   8    1.70    2.80
   0  -4   8    3.10    2.30
   0  -4  -8    4.10    4.60
   0  -4   8   -7.90   10.10
   0   4   8    6.20    1.70
   0   4   8    4.80    2.60
   0   4   8   -5.60    7.10
   0   4  -8   -2.20    4.60
   0   4  -8    9.60   13.10
   1  -4   8    2.60    1.90
   1  -4   8   -0.50    2.60
  -1  -4  -8    4.10    4.30
  -1  -4  -8    1.90    3.10
  -1  -4  -8    4.70    2.20
   1  -4   8    0.90   10.60
  -1  -4  -8    6.00    2.10
   1   4   8    3.10    3.80
   1   4   8   -2.40    7.40
  -1   4  -8    9.50   13.90
   2  -4   8   54.59   12.50
  -2  -4  -8   59.99    5.60
  -2  -4  -8   70.49    6.20
  -2  -4  -8   64.29    7.50
   2  -4   8   66.09    4.90
  -2  -4  -8   66.79    6.50
   2  -4   8   60.69    4.10
  -2  -4  -8   71.49    8.10
  -2   4  -8   37.10   14.60
   2   4   8   68.29   10.00
  -3  -4  -8   -6.00    3.90
  -3  -4  -8   11.10    2.70
   3  -4   8  -11.20    8.40
   3  -4   8    1.80    3.40
  -3  -4  -8    6.70    3.30
  -3  -4  -8   -4.40    4.90
  -3  -4  -8    1.20    4.90
   3   4   8   -1.80    8.20
   3   4   8    0.30    4.00
   3   4   8    3.70    6.10
  -3   4  -8  -12.60   15.00
  -9   0   9    4.00    7.30
   9   0  -9    0.70    7.80
   9   0  -9    2.70    5.50
   9   0  -9    2.50    5.70
   9   0  -9   -1.80    7.00
  -9   0   9   -5.10    8.20
  -9   0   9    0.70    6.50
  -9   0   9    4.40    8.80
   8   0  -9    5.50    7.10
   8   0  -9    6.50    5.80
   8   0  -9    3.40    5.50
   8   0  -9   -2.40    5.60
  -8   0   9   18.50    6.70
  -8   0   9   -4.30    5.40
  -8   0   9    2.90    5.90
  -7   0   9   28.50    6.40
   7   0  -9   29.70    5.60
  -7   0   9   28.20    5.90
  -7   0   9   29.50    5.30
   7   0  -9   22.70    5.90
   7   0  -9   30.70    6.20
  -6   0   9   -0.40    4.40
  -6   0   9   -2.00    3.40
   6   0  -9    1.10    3.90
   6   0  -9   -0.20    4.90
   6   0  -9   -0.10    4.10
   6   0  -9   -1.00    4.10
  -6   0   9    1.00    4.00
  -5   0   9  272.87   11.90
  -5   0   9  261.07   11.30
   5   0  -9  253.47   11.40
   5   0  -9  252.07   11.40
  -5   0   9  260.97   11.10
   5   0  -9  271.97   11.30
  -5   0   9  256.97   11.40
   5   0  -9  269.17   11.20
  -4   0   9   -2.80    3.40
   4   0  -9   -0.30    3.10
   4   0  -9   -0.10    2.90
  -4   0   9    0.60    2.90
   4   0  -9    4.90    3.00
  -4   0   9    0.50    3.00
   4   0  -9    0.50    2.80
  -4   0   9    0.10    2.50
   3   0  -9  596.24   20.40
  -3   0   9  582.24   20.30
  -3   0   9  588.04   20.50
   3   0  -9  582.54   20.30
   3   0  -9  592.74   20.40
   3   0  -9  618.84   20.30
  -3   0   9  615.44   20.30
  -3   0   9  584.14   20.40
   2   0  -9   -0.10    2.00
   2   0  -9   -0.20    2.20
   2   0  -9    0.30    2.20
  -2   0   9    0.80    2.60
  -2   0   9   -0.40    2.10
  -2   0   9   -1.10    2.50
   2   0  -9    1.30    2.60
  -2   0   9    0.80    2.10
  -1   0   9 2727.93   83.89
   1   0  -9 2651.43   83.89
   1   0  -9 2710.83   83.69
   1   0  -9 2623.04   83.79
  -1   0   9 2756.42   83.79
  -1   0   9 2638.24   83.69
  -1   0   9 2642.74   83.89
   0   0   9    4.60    2.10
   0   0  -9    7.90    2.20
   0   0  -9    4.50    2.10
   0   0  -9    6.70    2.30
   0   0  -9    7.50    2.40
   0   0   9    4.60    2.60
   0   0   9    5.30    2.30
  -1   0  -9  173.68    7.50
  -1   0  -9  179.98    7.40
   1   0   9  171.48    7.40
  -1   0  -9  175.98    7.40
   1   0   9  182.18    7.40
   1   0   9  179.38    7.50
   1   0   9  174.78    7.30
  -1   0  -9  171.08    7.40
   1   0   9  178.58    7.50
  -2   0  -9   -0.70    3.10
  -2   0  -9    0.00    2.30
  -2   0  -9   -0.30    2.60
   2   0   9    2.10    2.40
   2   0   9   -0.60    2.30
   2   0   9   -2.70    2.30
   2   0   9   -2.00    2.60
  -2   0  -9   -0.90    2.20
   2   0   9   -2.10    2.60
   3   0   9  295.57   11.60
   3   0   9  274.97   11.30
  -3   0  -9  293.67   11.40
  -3   0  -9  295.27   11.60
   3   0   9  282.97   11.40
   3   0   9  299.57   11.70
  -3   0  -9  291.97   11.60
   3   0   9  302.37   11.40
  -3   0  -9  284.37   11.40
   4   0   9   -4.10    3.10
  -4   0  -9    0.30    3.90
  -4   0  -9    2.20    3.20
  -4   0  -9   -1.90    3.00
   4   0   9   -0.50    3.40
  -4   0  -9    0.10    3.40
   4   0   9   -1.00    3.90
   4   0   9    5.00    3.60
  -4   0  -9    3.10    3.70
  -5   0  -9  370.66   15.40
  -5   0  -9  345.97   14.70
   5   0   9  372.26   15.10
  -5   0  -9  336.27   15.10
   5   0   9  347.97   15.10
   5   0   9  364.96   14.80
   5   0   9  363.16   14.70
  -5   0  -9  363.06   15.50
  -5   0  -9  380.66   15.00
   6   0   9    0.80    5.30
  -6   0  -9    3.20    5.60
  -6   0  -9   -2.60    5.20
   6   0   9    1.30    5.10
  -6   0  -9    6.40    5.00
   6   0   9   -2.20    4.10
  -6   0  -9   -0.70    5.30
   6   0   9   -2.50    4.80
  -6   0  -9   -2.50    4.40
   7   0   9   24.00    7.00
  -7   0  -9   22.80    7.80
  -7   0  -9   17.10    7.80
   7   0   9   14.40    5.90
   7   0   9   15.30    7.20
  -7   0  -9   18.80    6.00
   7   0   9   20.70    6.40
  -7   0  -9   20.00    6.70
  -8   0  -9    3.50    8.00
  -8   0  -9    8.20    7.60
   8   0   9   -0.90    5.60
   8   0   9   -2.00    7.70
   8   0   9   11.00    5.80
  -8   0  -9   -0.80    7.90
  -8   0  -9    1.40    6.30
   8   0   9    2.50    6.60
  -8   0  -9   -7.30    6.60
   9  -1  -9   16.90    6.10
   9  -1  -9   -5.40    8.40
   9  -1  -9   28.40    6.20
  -9  -1   9   20.70    9.40
   9  -1  -9   20.00    6.70
  -9  -1   9   33.20    8.00
  -9  -1   9   15.80    7.50
  -9   1   9   11.10    8.40
  -9   1   9   15.40    9.40
   9   1  -9   17.20    6.80
   9   1  -9   19.50    7.00
  -9   1   9   16.20    6.80
   9   1  -9   31.60    9.10
  -9   1   9   32.60    7.00
   9   1  -9   37.90    7.70
   8  -1  -9    3.70    5.70
   8  -1  -9   10.50    5.40
   8  -1  -9    5.10    5.50
  -8  -1   9    8.90    6.90
  -8  -1   9   13.50    6.80
  -8  -1   9    5.40    7.00
   8  -1  -9   -0.80    5.80
  -8   1   9   12.70    5.70
  -8   1   9   13.60    9.00
  -8   1   9    6.80    5.90
   8   1  -9    1.60    7.30
   8   1  -9   11.40    7.00
   8   1  -9   11.80    7.10
  -8   1   9    8.50    4.90
   8   1  -9   13.60    7.30
   7  -1  -9  301.27   14.10
   7  -1  -9  319.57   13.90
   7  -1  -9  303.17   13.60
  -7  -1   9  317.77   14.70
   7  -1  -9  286.27   13.60
  -7  -1   9  286.07   14.50
   7   1  -9  309.67   15.00
  -7   1   9  273.87   13.40
  -7   1   9  304.77   13.30
   7   1  -9  276.37   14.60
   7   1  -9  307.77   15.20
  -7   1   9  306.37   17.10
  -7   1   9  304.17   14.70
   6  -1  -9  151.78    9.30
  -6  -1   9  155.38    9.50
  -6  -1   9  149.59   10.20
   6  -1  -9  149.59    8.70
   6  -1  -9  150.98    8.80
   6  -1  -9  155.18    8.90
  -6  -1   9  141.29    9.70
  -6   1   9  146.89   11.70
  -6   1   9  154.18    9.60
   6   1  -9  168.68    9.40
   6   1  -9  167.88   10.20
  -6   1   9  148.29    8.40
   6   1  -9  135.09   10.00
  -6   1   9  147.09    8.60
   6   1  -9  157.78   10.30
  -6   1   9  143.29    8.80
   5  -1  -9   49.60    6.10
  -5  -1   9   53.49    6.60
   5  -1  -9   54.69    5.10
   5  -1  -9   54.29    5.80
  -5  -1   9   51.99    6.10
  -5  -1   9   56.59    6.70
   5  -1  -9   57.69    5.90
  -5  -1   9   53.09    6.60
   5   1  -9   58.39    6.60
  -5   1   9   41.50    5.50
   5   1  -9   58.29    6.40
  -5   1   9   50.19    6.00
  -5   1   9   55.59    6.30
  -5   1   9   63.69    7.90
   5   1  -9   56.89    5.90
   5   1  -9   57.99    6.80
  -5   1   9   53.19    5.20
  -4  -1   9  105.79    7.20
  -4  -1   9  116.19    6.90
   4  -1  -9  127.29    6.10
  -4  -1   9  114.19    6.90
   4  -1  -9  112.49    6.50
   4  -1  -9  117.59    6.60
  -4  -1   9  105.29    6.50
   4  -1  -9  110.69    6.30
   4   1  -9  105.49    7.60
  -4   1   9  115.69    6.70
   4   1  -9  114.89    6.60
  -4   1   9  114.39    7.10
  -4   1   9  118.09    6.50
   4   1  -9  121.09    7.20
   4   1  -9  112.99    7.00
  -4   1   9  115.09    6.00
   3  -1  -9   89.89    5.20
   3  -1  -9   89.99    4.90
  -3  -1   9   80.99    5.30
  -3  -1   9   86.19    5.50
   3  -1  -9   92.89    5.30
   3  -1  -9   89.19    5.40
  -3  -1   9   89.99    5.60
  -3  -1   9   86.19    5.60
  -3   1   9   91.49    5.50
  -3   1   9   94.69    4.80
   3   1  -9   93.29    5.60
  -3   1   9   85.99    5.20
   3   1  -9   90.49    5.80
   3   1  -9   90.99    5.50
   3   1  -9   82.29    6.20
  -3   1   9   85.99    5.40
   2  -1  -9  119.39    5.60
  -2  -1   9  112.59    5.60
   2  -1  -9  118.69    5.50
  -2  -1   9  102.19    5.70
  -2  -1   9  115.39    5.90
   2  -1  -9  113.39    5.80
  -2  -1   9  108.99    6.20
   2  -1  -9  114.99    5.60
  -2   1   9  119.09    5.20
   2   1  -9  119.19    5.60
   2   1  -9  111.19    5.80
  -2   1   9  112.79    5.70
  -2   1   9  108.89    5.90
  -2   1   9  112.89    5.60
   2   1  -9  119.99    6.50
   2   1  -9  109.59    6.00
   1  -1  -9   96.29    4.90
   1  -1  -9   91.69    4.90
   1  -1  -9   95.39    5.20
   1  -1  -9   93.09    4.70
  -1  -1   9   92.29    4.70
  -1  -1   9   95.79    4.90
  -1  -1   9   95.09    5.00
  -1  -1   9   98.59    5.10
  -1   1   9   95.89    4.60
  -1   1   9   95.09    5.30
   1   1  -9   87.79    5.10
  -1   1   9   94.59    5.00
  -1   1   9   96.49    5.10
   1   1  -9   92.29    4.80
   1   1  -9   94.69    3.90
   1   1  -9   95.89    5.20
  -1   1   9   93.09    5.00
   1   1  -9   98.19    5.20
   0  -1   9  981.90   31.90
   0  -1  -9  997.90   31.80
   0  -1   9  983.80   31.80
   0  -1  -9 1008.70   32.00
   0  -1  -9 1001.70   32.00
   0  -1   9 1006.50   31.80
   0  -1  -9  995.20   31.80
   0  -1   9  989.70   31.80
   0   1  -9  921.91   31.80
   0   1  -9  959.70   31.50
   0   1   9 1002.70   31.90
   0   1   9 1011.60   31.70
   0   1  -9  993.10   31.90
   0   1  -9  967.20   31.60
   0   1   9  997.90   32.00
   0   1   9  999.60   31.90
   1  -1   9  278.37   11.70
   1  -1   9  269.97   10.20
  -1  -1  -9  262.97   10.20
  -1  -1  -9  266.07   10.40
   1  -1   9  287.17   10.00
  -1  -1  -9  275.77   10.60
  -1  -1  -9  277.17   10.30
   1  -1   9  275.07   10.10
   1  -1   9  278.67   10.10
  -1   1  -9  267.47    9.90
  -1   1  -9  278.57   10.30
  -1   1  -9  291.37   10.40
   1   1   9  266.27   10.30
   1   1   9  270.77   10.40
  -1   1  -9  263.67    9.80
   1   1   9  270.27   10.30
   1   1   9  270.07   10.10
   1   1   9  266.37   10.50
  -2  -1  -9  222.88    9.30
  -2  -1  -9  227.88    9.30
   2  -1   9  237.98    9.00
   2  -1   9  232.58    8.90
  -2  -1  -9  223.28    9.30
   2  -1   9  218.98    9.10
   2  -1   9  209.78   10.40
   2  -1   9  229.78    8.90
  -2  -1  -9  231.58    9.30
  -2   1  -9  226.28    8.70
   2   1   9  229.98    9.30
   2   1   9  219.18    9.70
  -2   1  -9  222.48    9.10
   2   1   9  219.18    9.20
  -2   1  -9  240.78    9.40
   2   1   9  219.98    9.20
  -2   1  -9  222.08    8.60
   3  -1   9   -2.20    2.20
   3  -1   9    2.10    4.00
   3  -1   9    1.40    2.60
  -3  -1  -9   -2.70    3.00
  -3  -1  -9    2.00    2.30
   3  -1   9    3.20    2.80
  -3  -1  -9    2.60    2.80
   3  -1   9   -2.10    2.40
  -3  -1  -9    0.40    3.50
  -3   1  -9    0.80    3.00
  -3   1  -9   -1.40    2.50
   3   1   9    4.50    3.10
   3   1   9    0.40    2.60
   3   1   9    0.00    3.60
   3   1   9   -0.30    3.20
  -3   1  -9    0.90    2.20
  -3   1  -9   -2.80    2.90
   4  -1   9   27.90    5.60
  -4  -1  -9   21.40    4.30
  -4  -1  -9   19.20    4.10
   4  -1   9   21.60    3.80
  -4  -1  -9   21.40    4.50
  -4  -1  -9   22.20    3.70
   4  -1   9   31.10    4.00
   4  -1   9   23.40    4.30
  -4  -1  -9   19.20    4.60
   4  -1   9   22.50    3.50
  -4   1  -9   17.30    6.30
   4   1   9   19.10    4.30
  -4   1  -9   21.20    3.70
  -4   1  -9   21.40    5.80
  -4   1  -9   22.90    3.60
   4   1   9   32.00    4.20
  -4   1  -9   27.50    4.50
  -4   1  -9   27.10    4.50
   4   1   9   19.60    5.10
   4   1   9   13.80    3.70
   5  -1   9   58.79    8.40
   5  -1   9   52.49    6.60
   5  -1   9   46.80    6.00
   5  -1   9   53.49    7.00
  -5  -1  -9   43.50    5.80
  -5  -1  -9   44.20    5.70
  -5  -1  -9   52.89    6.90
   5  -1   9   56.99    6.40
  -5  -1  -9   56.39    6.50
   5   1   9   49.80    6.60
  -5   1  -9   49.60    6.10
  -5   1  -9   45.00    5.50
   5   1   9   51.89    6.20
  -5   1  -9   49.99    6.00
  -5   1  -9   48.10    7.60
  -5   1  -9   47.30    4.90
   5   1   9   72.09    7.80
   5   1   9   51.79    5.80
  -5   1  -9   49.30    8.00
  -6  -1  -9   14.30    6.60
  -6  -1  -9   18.10    5.80
   6  -1   9   28.40    4.80
   6  -1   9   22.20    5.10
   6  -1   9   22.60    5.10
   6  -1   9    8.50    4.50
  -6  -1  -9   21.10    6.70
  -6  -1  -9   18.10    5.30
  -6  -1  -9   14.50    6.40
   6   1   9   19.90    5.90
  -6   1  -9   21.60    6.80
  -6   1  -9   25.70    6.40
   6   1   9   24.70    6.50
   6   1   9   24.90    6.90
  -6   1  -9   17.40    5.00
  -6   1  -9   19.90    4.90
  -6   1  -9   29.10    5.90
   7  -1   9   79.49    8.70
  -7  -1  -9   48.50    7.70
  -7  -1  -9   46.40    8.20
  -7  -1  -9   43.50    8.90
  -7  -1  -9   43.50   11.10
   7  -1   9   46.10    6.70
  -7  -1  -9   41.10    7.50
   7  -1   9   53.79    7.30
   7  -1   9   57.99    7.50
   7   1   9   62.49    8.60
  -7   1  -9   52.69    6.70
   7   1   9   46.60    7.90
   7   1   9   64.19    8.60
   7   1   9   44.80    7.50
  -7   1  -9   51.19    7.80
  -7   1  -9   54.19    6.30
  -7   1  -9   48.40    8.70
  -8  -1  -9   25.30    6.90
   8  -1   9   40.90    5.70
  -8  -1  -9   11.50    6.80
  -8  -1  -9   28.20    9.20
   8  -1   9   21.60    5.80
  -8  -1  -9   23.40    8.90
  -8  -1  -9   19.40    7.20
   8  -1   9    8.20    6.90
   8  -1   9   33.20    7.50
   8   1   9   27.70    7.20
   8   1   9   30.80    8.60
  -8   1  -9   29.70    7.30
  -8   1  -9   44.90    9.80
   8   1   9    6.70    6.10
  -8   1  -9   12.60    9.70
  -8   1  -9   12.10    7.50
  -8   1  -9   17.60    6.70
   8   1   9   33.90    8.80
   8  -2  -9   -6.60    4.90
  -8  -2   9    2.40    5.90
  -8  -2   9   -9.70    5.00
  -8  -2   9   15.00    6.90
   8  -2  -9    3.50    6.40
   8  -2  -9   -5.00    5.30
   8  -2  -9    5.70    4.90
  -8   2   9    5.40    3.40
   8   2  -9   11.50    7.30
   8   2  -9   14.70    9.40
  -8   2   9   -0.60    9.40
   8   2  -9   -4.80    6.50
  -8   2   9   -3.70    4.40
  -8   2   9    0.30    6.80
  -8   2   9    0.70    6.10
   8   2  -9    8.20    7.40
   8   2  -9   -2.70    6.60
  -7  -2   9    0.70    4.60
   7  -2  -9   -5.70    4.10
  -7  -2   9   -0.20    6.40
  -7  -2   9   -2.90    5.70
   7  -2  -9   -1.40    4.90
  -7  -2   9    3.50    6.00
   7  -2  -9    4.20    3.30
   7  -2  -9   -5.40    4.40
  -7   2   9    4.50    2.90
  -7   2   9    1.70    3.60
   7   2  -9    4.60    6.50
  -7   2   9    2.10    8.70
   7   2  -9   -1.20    6.00
  -7   2   9    6.70    6.00
   7   2  -9   -2.00    5.10
   7   2  -9   -4.10    6.20
  -7   2   9   -1.00    4.90
  -6  -2   9   25.30    6.10
   6  -2  -9   29.30    4.50
   6  -2  -9   27.50    3.70
  -6  -2   9   24.90    5.70
  -6  -2   9   20.10    4.70
  -6  -2   9   23.40    5.60
   6  -2  -9   26.00    4.10
   6  -2  -9   24.10    5.10
  -6   2   9   21.40    8.40
  -6   2   9   28.30    3.60
   6   2  -9   17.90    5.20
  -6   2   9   29.60    5.10
   6   2  -9   27.50    6.90
   6   2  -9   29.30    5.10
  -6   2   9   22.60    2.90
  -6   2   9   16.00    5.30
   5  -2  -9    5.40    3.30
  -5  -2   9    6.60    4.00
  -5  -2   9    2.40    4.00
  -5  -2   9    7.50    4.30
   5  -2  -9   14.40    2.50
   5  -2  -9    7.50    3.50
   5  -2  -9   10.50    3.30
  -5  -2   9   23.80    4.80
  -5   2   9    7.20    4.10
   5   2  -9    7.60    3.60
  -5   2   9   12.60    3.90
  -5   2   9   12.30    1.80
  -5   2   9   13.00    6.90
   5   2  -9    7.30    4.40
  -5   2   9    9.10    2.50
   5   2  -9    9.00    3.90
   5   2  -9    4.30    4.30
  -4  -2   9    8.20    3.60
   4  -2  -9   13.10    2.90
  -4  -2   9    6.40    3.40
   4  -2  -9   12.30    2.60
   4  -2  -9   11.80    3.10
  -4  -2   9    2.20    3.10
   4  -2  -9   11.80    2.90
  -4  -2   9    8.40    4.20
  -4   2   9   12.50    1.30
   4   2  -9   13.70    3.40
  -4   2   9   14.40    2.00
   4   2  -9    8.40    4.00
   4   2  -9   24.30    7.80
   4   2  -9   11.20    4.60
  -4   2   9   11.80    5.70
  -4   2   9   13.20    3.40
  -4   2   9   15.10    3.80
   4   2  -9   14.60    3.60
   3  -2  -9  109.49    5.60
  -3  -2   9  109.99    6.30
  -3  -2   9  110.19    6.10
   3  -2  -9  104.79    5.50
  -3  -2   9  106.59    6.60
  -3  -2   9  109.99    6.30
   3  -2  -9  112.89    5.90
   3  -2  -9  110.19    5.40
  -3   2   9  108.19    6.20
   3   2  -9  118.59    7.00
  -3   2   9  118.49    8.60
   3   2  -9  107.79    6.10
   3   2  -9  116.89    5.60
   3   2  -9  102.79    6.60
  -3   2   9  113.19    5.90
   2  -2  -9  191.08    7.60
   2  -2  -9  194.28    7.70
   2  -2  -9  192.38    7.80
  -2  -2   9  198.28    8.30
  -2  -2   9  206.68    8.20
  -2  -2   9  202.88    8.00
   2  -2  -9  190.08    7.60
  -2  -2   9  186.88    8.10
   2   2  -9  179.68    8.50
  -2   2   9  193.18    9.30
   2   2  -9  185.68    8.20
   2   2  -9  197.28    8.40
  -2   2   9  195.38    9.70
   2   2  -9  195.38    7.60
   2   2  -9  204.98    7.30
  -2   2   9  192.68    7.90
  -2   2   9  190.08    8.10
  -1  -2   9    6.60    2.20
  -1  -2   9    5.90    2.20
  -1  -2   9    5.30    2.30
   1  -2  -9   10.60    2.10
   1  -2  -9    6.40    2.30
   1  -2  -9    4.00    1.90
  -1  -2   9    3.70    1.80
   1  -2  -9    5.10    2.10
  -1   2   9    3.80    2.50
  -1   2   9    7.20    3.40
   1   2  -9    5.40    1.30
   1   2  -9    6.60    7.60
   1   2  -9    4.20    2.80
  -1   2   9    6.00    2.30
   1   2  -9    4.30    1.70
  -1   2   9    7.60    3.90
   1   2  -9    7.20    2.60
   1   2  -9    7.00    2.80
   0  -2  -9  299.77   10.70
   0  -2   9  297.67   10.50
   0  -2   9  306.47   10.50
   0  -2   9  305.07   10.70
   0  -2  -9  286.87   10.70
   0  -2   9  291.87   10.60
   0  -2  -9  291.87   10.60
   0  -2  -9  284.97   10.70
   0   2  -9  296.77   16.00
   0   2   9  291.07   11.00
   0   2   9  286.87   11.90
   0   2   9  298.97    9.80
   0   2   9  287.07    9.90
   0   2  -9  283.87   10.80
   0   2   9  293.27   10.90
   0   2  -9  270.37   10.70
   0   2  -9  295.77   10.70
  -1  -2  -9   85.09    5.00
   1  -2   9   81.29    4.80
  -1  -2  -9   84.89    4.90
   1  -2   9   86.79    4.60
  -1  -2  -9   88.19    4.70
   1  -2   9   69.49    8.10
   1  -2   9   84.89    4.40
   1  -2   9   84.69    4.30
  -1   2  -9   76.99   10.20
   1   2   9   82.39    5.20
   1   2   9   83.79    4.70
   1   2   9   85.29    6.30
   1   2   9   83.59    5.60
   1   2   9   91.19    4.30
  -1   2  -9   82.39    4.80
  -1   2  -9   79.99    5.00
  -2  -2  -9   10.00    2.80
   2  -2   9    8.80    5.00
   2  -2   9    8.30    2.10
  -2  -2  -9   10.80    3.10
   2  -2   9    6.00    2.20
   2  -2   9    8.80    2.00
   2  -2   9    6.10    2.50
  -2  -2  -9    8.60    3.00
  -2  -2  -9    5.80    2.90
  -2   2  -9   10.60    8.00
   2   2   9   11.60    2.60
   2   2   9    9.30    3.80
  -2   2  -9    9.00    2.80
   2   2   9    5.70    3.20
   2   2   9    9.90    3.30
  -2   2  -9    7.20    2.80
   2   2   9   10.00    2.80
  -3  -2  -9  172.78    8.90
   3  -2   9  181.88    7.50
  -3  -2  -9  181.88    8.90
   3  -2   9  179.68    7.80
  -3  -2  -9  169.58    8.60
   3  -2   9  182.78   12.00
  -3  -2  -9  162.88    8.90
   3  -2   9  178.28    8.00
   3   2   9  152.38    9.10
  -3   2  -9  202.68   13.50
   3   2   9  177.88    8.50
   3   2   9  187.28    8.40
  -3   2  -9  180.48    8.40
   3   2   9  182.38    9.50
   3   2   9  165.48    9.30
  -3   2  -9  185.38    8.50
  -4  -2  -9  100.69    7.10
  -4  -2  -9  110.89    8.00
   4  -2   9  112.09    6.80
   4  -2   9  113.49    5.80
   4  -2   9  106.89    6.90
  -4  -2  -9  113.99    7.90
  -4  -2  -9  110.89    8.30
   4  -2   9  109.79   10.50
  -4  -2  -9  100.09    5.50
   4  -2   9   99.79    6.80
  -4   2  -9   98.99    7.20
   4   2   9  106.39    7.60
   4   2   9   98.89    8.40
  -4   2  -9   97.49    4.90
   4   2   9   97.89    7.50
  -4   2  -9  113.89    4.60
  -4   2  -9  101.09    7.60
   4   2   9  113.99    7.80
  -4   2  -9  128.99   12.40
   5  -2   9   34.70    5.30
   5  -2   9   38.90    4.70
  -5  -2  -9   31.90    6.00
  -5  -2  -9   31.00    5.80
  -5  -2  -9   27.20    5.00
  -5  -2  -9   31.10    5.40
   5  -2   9   15.90    7.70
  -5  -2  -9   35.00    4.20
   5  -2   9   33.00    4.40
   5  -2   9   31.30    4.50
   5   2   9   35.00    6.30
  -5   2  -9   39.00    8.90
  -5   2  -9   30.80    3.60
   5   2   9   36.30    5.60
   5   2   9   34.40    5.70
  -5   2  -9   33.40    4.00
  -5   2  -9   28.80    5.20
  -5   2  -9   33.70    5.80
  -6  -2  -9   71.99    8.70
  -6  -2  -9   52.99    7.40
  -6  -2  -9   63.49    7.90
   6  -2   9   59.49    7.00
   6  -2   9   56.99    6.40
  -6  -2  -9   64.49    6.60
  -6  -2  -9   66.39    8.40
   6  -2   9   64.79    6.90
   6  -2   9   55.59    6.20
   6  -2   9   61.69   11.90
  -6   2  -9   65.69    9.50
   6   2   9   61.49    7.90
  -6   2  -9   58.19    5.40
  -6   2  -9   62.09    7.00
  -6   2  -9   64.89    7.60
   6   2   9   52.59    6.50
   6   2   9   58.69    9.80
  -6   2  -9   50.49    4.90
  -6   2  -9   71.29    9.90
   7  -2   9   14.20    6.10
   7  -2   9    3.60    5.20
   7  -2   9    9.70    6.40
  -7  -2  -9   17.80    6.10
  -7  -2  -9    8.00    7.50
  -7  -2  -9    4.80    5.10
   7  -2   9    9.80    5.20
  -7  -2  -9   -1.90    6.20
  -7  -2  -9    7.00    6.10
   7   2   9   15.70    7.10
   7   2   9   17.50    8.30
  -7   2  -9   11.00    6.70
  -7   2  -9    1.10    3.10
  -7   2  -9    4.10    6.90
   7   2   9   11.20    6.70
   7   2   9   -6.30    6.90
  -7   2  -9    6.60    3.80
  -7   2  -9    3.00    9.70
  -6  -3   9    1.20    5.30
   6  -3  -9   -2.80    4.40
   6  -3  -9    3.10    4.50
  -6  -3   9   -0.30    4.90
  -6  -3   9   -7.30    5.30
  -6  -3   9    5.30    6.00
   6  -3  -9    2.20    2.50
   6  -3  -9    7.00    3.70
  -6   3   9   -0.50    4.20
   6   3  -9   -0.90    4.60
   6   3  -9    7.90    4.70
   6   3  -9    2.70    6.80
  -6   3   9    3.40    9.80
   6   3  -9   -1.70    6.50
   6   3  -9   -7.50   11.20
  -5  -3   9    1.80    4.50
  -5  -3   9   -3.60    4.70
   5  -3  -9    1.10    4.00
  -5  -3   9    4.60    4.00
  -5  -3   9   -2.40    3.80
   5  -3  -9    1.10    3.50
   5  -3  -9   -1.60    3.20
   5  -3  -9   -6.80    4.00
  -5   3   9   -0.20    8.60
   5   3  -9    2.00    3.30
   5   3  -9    5.00    6.00
   5   3  -9   -2.10    4.80
   5   3  -9   -1.30    2.80
  -5   3   9    0.60    3.80
  -5   3   9   -0.10    3.60
   5   3  -9  -10.50   10.80
   5   3  -9    2.90    4.70
   4  -3  -9  316.37   11.50
   4  -3  -9  302.47   11.60
   4  -3  -9  314.97   12.20
  -4  -3   9  337.67   13.40
  -4  -3   9  328.27   14.00
   4  -3  -9  303.97   11.90
  -4  -3   9  329.17   12.60
  -4  -3   9  306.67   13.00
   4   3  -9  312.47   13.30
   4   3  -9  326.87   13.70
  -4   3   9  313.67   12.10
  -4   3   9  286.57   12.30
   4   3  -9  311.47   21.60
   4   3  -9  264.97   13.40
   4   3  -9  310.47   10.90
  -4   3   9  314.77   16.70
   4   3  -9  306.27   11.20
   3  -3  -9 1190.28   38.30
   3  -3  -9 1186.28   38.30
  -3  -3   9 1248.78   39.80
   3  -3  -9 1179.68   38.90
  -3  -3   9 1228.28   39.80
   3  -3  -9 1201.88   38.80
  -3  -3   9 1225.68   39.50
  -3  -3   9 1196.38   39.20
   3   3  -9 1219.98   40.20
  -3   3   9 1222.38   38.70
   3   3  -9 1194.28   39.60
   3   3  -9 1089.49   46.30
  -3   3   9 1224.88   41.70
   3   3  -9 1263.67   39.90
   2  -3  -9  327.97   11.60
  -2  -3   9  349.87   13.10
  -2  -3   9  355.36   13.00
  -2  -3   9  340.57   12.80
   2  -3  -9  339.37   11.70
   2  -3  -9  339.17   12.40
  -2  -3   9  335.77   12.20
   2  -3  -9  329.47   12.10
   2   3  -9  347.87   13.20
   2   3  -9  352.36   13.70
  -2   3   9  329.77   12.10
  -2   3   9  334.97   14.80
   2   3  -9  332.77   22.40
   2   3  -9  347.17   13.30
   1  -3  -9    5.50    2.30
  -1  -3   9    0.60    2.40
  -1  -3   9    5.90    2.70
   1  -3  -9    3.60    2.70
   1  -3  -9    8.60    2.40
   1  -3  -9    5.00    2.00
  -1  -3   9    4.90    2.50
   1  -3  -9    1.90    3.90
  -1  -3   9    1.60    3.10
   1   3  -9    4.50    3.00
   1   3  -9    3.80    3.90
   1   3  -9   14.40   11.60
   1   3  -9   11.70    3.40
  -1   3   9    7.40    4.50
  -1   3   9    1.90    2.50
   0  -3  -9    2.60    2.80
   0  -3  -9    1.60    2.40
   0  -3   9    3.20    2.10
   0  -3   9   -0.40    2.00
   0  -3  -9    2.90    2.60
   0  -3   9   -0.10    7.40
   0  -3  -9   -1.30    3.30
   0  -3   9    2.60    2.00
   0  -3   9   -1.50    2.60
   0  -3  -9   -1.60    2.20
   0   3  -9    3.00    2.60
   0   3   9    0.70    3.90
   0   3   9   -2.10    2.70
   0   3  -9    5.80    4.00
   0   3  -9   -1.50   12.60
   0   3   9    4.30    3.10
  -1  -3  -9    9.70    2.30
   1  -3   9   11.50    2.00
   1  -3   9   12.10    2.20
   1  -3   9   13.30    2.20
  -1  -3  -9   15.40    2.40
  -1  -3  -9   12.60    3.10
   1  -3   9    9.30    7.10
   1  -3   9    9.10    2.70
  -1  -3  -9   13.70    2.90
   1   3   9    9.90    3.80
   1   3   9    8.90    4.70
  -1   3  -9   15.60    2.80
  -1   3  -9   10.00   12.00
   1   3   9    5.50    3.20
  -1   3  -9   10.30    2.20
  -2  -3  -9   11.20    1.80
  -2  -3  -9   10.70    2.80
   2  -3   9   12.00    2.30
   2  -3   9   10.60    2.20
   2  -3   9   11.60    2.90
  -2  -3  -9   13.30    3.90
  -2  -3  -9    9.30    3.40
  -2  -3  -9   13.10    3.30
   2  -3   9   15.20    2.40
  -2   3  -9    9.40    3.00
   2   3   9   16.90    3.90
   2   3   9   16.70    5.10
  -2   3  -9   11.50    3.20
  -2   3  -9   14.90   12.50
   2   3   9   11.80    3.70
  -3  -3  -9   94.39    6.90
  -3  -3  -9   91.89    6.20
   3  -3   9  102.49    5.90
  -3  -3  -9  113.59    4.20
  -3  -3  -9  110.39    8.20
  -3  -3  -9  105.99    8.00
   3  -3   9  104.79    5.60
   3  -3   9   97.39    6.50
   3  -3   9  107.69    5.80
  -3   3  -9   99.89    6.50
   3   3   9  112.49    5.10
  -3   3  -9  110.09   16.80
   3   3   9  101.69    8.20
   3   3   9   88.89    8.50
   3   3   9  108.49    7.50
   3   3   9   98.29    5.30
  -4  -3  -9  133.29    9.30
   4  -3   9  130.39    7.70
  -4  -3  -9  135.19    8.30
  -4  -3  -9  115.09    5.20
  -4  -3  -9  127.59    9.70
  -4  -3  -9  149.39    8.30
   4  -3   9  134.89    8.20
   4  -3   9  138.99    8.30
   4  -3   9  126.59    7.10
   4   3   9  134.19    7.20
  -4   3  -9  133.39   17.90
   4   3   9  135.79    9.20
   4   3   9  133.99   12.00
   4   3   9  141.99   10.10
   4   3   9  130.79    7.40
  -4   3  -9  139.39    8.00
  -5  -3  -9   25.90    6.40
   5  -3   9   27.50    5.50
  -5  -3  -9   25.50    6.00
   5  -3   9   31.90    3.70
  -5  -3  -9   30.70    3.70
   5  -3   9   34.40    4.60
   5  -3   9   33.30   11.30
  -5  -3  -9   36.60    5.90
   5  -3   9   34.30    5.60
  -5  -3  -9   35.80    6.10
  -5   3  -9   27.80   14.00
   5   3   9   25.00    5.20
   5   3   9   38.50    7.30
   5   3   9   24.40    9.50
   5   3   9   37.10    5.50
   5   3   9   25.90    7.10
   6  -3   9   73.29    9.00
  -6  -3  -9   52.09    8.70
  -6  -3  -9   51.39    8.00
  -6  -3  -9   38.90    6.30
   6  -3   9   43.70    6.40
  -6  -3  -9   49.00    5.10
  -6  -3  -9   69.69    7.90
   6  -3   9   43.80    5.70
   6   3   9   42.20    9.50
   6   3   9   51.09    6.50
  -6   3  -9   55.89   16.20
  -6   3  -9   42.00    7.60
   6   3   9   31.00    9.50
   6   3   9   29.30    9.60
   6   3   9   45.20    7.80
  -4  -4   9   48.30    4.50
   4  -4  -9   50.99    6.00
  -4  -4   9   58.29    6.80
  -4  -4   9   56.59    6.90
  -4  -4   9   58.79    7.60
   4  -4  -9   49.80    5.50
   4   4  -9   47.20   14.60
   4   4  -9   58.79    7.50
   4   4  -9   83.89    9.80
   3  -4  -9   39.10    4.10
   3  -4  -9   34.20    4.40
  -3  -4   9   40.40    5.20
  -3  -4   9   26.30    5.10
  -3  -4   9   25.40    5.20
  -3  -4   9   34.10    4.50
   3   4  -9   36.40   13.30
   3   4  -9   35.50    6.30
   2  -4  -9   32.00    3.70
  -2  -4   9   33.90    4.20
  -2  -4   9   35.70    4.30
   2  -4  -9   35.30    3.90
  -2  -4   9   27.50    4.90
  -2  -4   9   36.00    4.00
   2   4  -9   41.20    6.00
   2   4  -9   35.30    4.60
  -2   4   9   29.80    9.60
   2   4  -9   20.80   13.30
  -1  -4   9   34.30    4.20
   1  -4  -9   30.90    6.70
  -1  -4   9   34.50    3.90
   1  -4  -9   34.70    3.40
   1  -4  -9   33.50    3.70
  -1  -4   9   19.40   10.40
  -1   4   9   32.80    3.10
   1   4  -9   34.60    3.80
   1   4  -9   34.20   14.20
  -1   4   9   21.00    8.40
   1   4  -9   33.80    5.80
   0  -4  -9   51.69    4.80
   0  -4   9   34.30   11.30
   0  -4   9   33.10    4.10
   0  -4  -9   53.89    6.30
   0  -4   9   42.30    5.00
   0  -4  -9   53.29    5.40
   0   4   9   52.39    5.10
   0   4   9   31.00    9.30
   0   4  -9   41.40    6.20
   0   4  -9   42.30   14.50
   1  -4   9   72.69   12.40
   1  -4   9   81.39    5.40
   1  -4   9   76.99    4.60
  -1  -4  -9   69.79    6.00
  -1  -4  -9   82.39    6.60
  -1  -4  -9   66.09    5.20
  -1  -4  -9   87.09    4.90
  -1  -4  -9   76.59    7.20
  -1   4  -9   55.39   15.60
   1   4   9   78.59    7.00
   1   4   9   69.19   10.30
   2  -4   9   -8.20    9.20
   2  -4   9   -0.20    2.50
  -2  -4  -9    5.60    3.30
   2  -4   9    7.50    3.20
  -2  -4  -9    0.80    3.60
  -2  -4  -9    1.90    4.60
  -2  -4  -9    0.40    5.10
   2   4   9    1.40    8.90
   2   4   9    1.80    3.90
  -2   4  -9   10.10   14.80
  -3  -4  -9   21.50    5.30
  -3  -4  -9   14.20    5.70
  -3  -4  -9   15.00    2.90
   3  -4   9   24.60    9.40
   3  -4   9   26.20    4.10
  -3  -4  -9   20.60    4.80
   3   4   9   27.10    7.00
  -3   4  -9   22.60   16.70
   3   4   9    4.50    4.10
   3   4   9    8.50    9.00
  -9   0  10   -3.90    7.10
  -9   0  10    5.20    6.90
   9   0 -10   -5.40    6.70
   9   0 -10   -2.80    5.40
  -9   0  10   -2.90    7.50
   9   0 -10    3.10    5.50
  -9   0  10   -7.70    7.80
   9   0 -10    2.40    6.90
   8   0 -10   87.09   10.50
  -8   0  10   73.59    8.40
  -8   0  10   44.00    7.10
   8   0 -10   63.19    7.80
   8   0 -10   72.39    8.90
   8   0 -10   65.29    9.10
  -8   0  10   83.29    9.00
   7   0 -10    1.70    6.20
  -7   0  10    0.60    5.30
  -7   0  10   -0.30    5.30
  -7   0  10   -3.70    4.10
   7   0 -10   -3.80    4.50
   7   0 -10   -0.10    4.60
  -7   0  10   -2.00    5.40
  -6   0  10  116.59    8.40
  -6   0  10  110.89    9.30
   6   0 -10  114.29    8.30
   6   0 -10  115.89    8.60
  -6   0  10  124.69    9.10
  -6   0  10  110.59    8.70
   6   0 -10  112.39    8.50
   6   0 -10  107.59    8.10
  -5   0  10    3.30    3.30
   5   0 -10    3.60    3.50
  -5   0  10   -3.00    3.00
   5   0 -10    0.80    4.00
   5   0 -10   -1.80    3.30
  -5   0  10   -0.90    4.10
   5   0 -10    2.40    3.30
  -5   0  10    1.00    3.60
   4   0 -10  180.88    9.20
   4   0 -10  191.58    8.90
  -4   0  10  195.98    9.00
  -4   0  10  199.48    8.90
  -4   0  10  196.28    9.50
   4   0 -10  206.08    9.20
   4   0 -10  202.38    8.90
  -4   0  10  196.78    8.90
  -3   0  10    0.00    2.40
   3   0 -10   -2.80    2.30
  -3   0  10    0.50    3.00
  -3   0  10   -2.10    2.50
   3   0 -10    0.80    2.90
  -3   0  10    1.10    2.60
   3   0 -10   -0.80    2.30
   3   0 -10    2.40    2.50
   2   0 -10    4.60    2.20
   2   0 -10    4.80    2.60
   2   0 -10    5.00    2.60
  -2   0  10    3.90    2.50
  -2   0  10    8.40    2.80
   2   0 -10    5.30    3.20
  -2   0  10    5.60    2.90
  -2   0  10    8.50    2.70
   1   0 -10    5.50    2.20
   1   0 -10   -0.50    2.50
   1   0 -10   -0.90    2.20
  -1   0  10    1.40    2.10
  -1   0  10   -1.00    2.40
   1   0 -10    2.60    2.20
  -1   0  10    3.90    2.60
  -1   0  10    1.90    2.10
   0   0 -10 1856.01   58.59
   0   0  10 1947.91   58.79
   0   0 -10 1856.61   58.49
   0   0 -10 1855.91   58.49
   0   0  10 1822.82   58.59
   0   0  10 1891.01   58.49
   0   0  10 1738.13   57.59
   0   0  10 1830.02   58.39
   0   0 -10 1886.81   58.69
   1   0  10    1.20    2.40
   1   0  10    2.30    2.90
  -1   0 -10   -0.40    2.40
   1   0  10   -2.10    2.50
   1   0  10   -0.70    2.60
  -1   0 -10   -1.00    2.10
  -1   0 -10   -2.70    2.80
  -1   0 -10   -3.10    2.70
   1   0  10   -1.40    1.80
  -2   0 -10 1087.79   35.70
   2   0  10 1099.49   35.50
   2   0  10 1061.49   35.40
   2   0  10 1058.79   35.60
  -2   0 -10 1131.79   35.60
  -2   0 -10 1061.79   35.40
   2   0  10 1135.19   35.80
  -2   0 -10 1140.29   35.80
   2   0  10 1065.89   35.50
  -3   0 -10   -2.40    2.60
  -3   0 -10    1.80    3.70
  -3   0 -10   -3.90    2.50
   3   0  10   -1.20    2.60
   3   0  10   -0.70    2.90
  -3   0 -10    2.10    3.40
   3   0  10    2.30    2.80
  -3   0 -10   -3.10    3.00
   3   0  10   -0.40    3.30
   3   0  10    0.80    3.10
  -4   0 -10   67.49    6.30
  -4   0 -10   71.59    6.10
  -4   0 -10   64.29    6.00
  -4   0 -10   62.69    6.70
   4   0  10   76.29    6.40
   4   0  10   51.09    5.90
  -4   0 -10   71.39    6.40
   4   0  10   70.99    6.80
   4   0  10   62.69    5.70
   4   0  10   61.39    6.60
  -5   0 -10   -1.50    4.90
  -5   0 -10   -0.40    4.30
  -5   0 -10   -1.70    4.20
   5   0  10   -3.20    4.10
  -5   0 -10    4.50    4.50
  -5   0 -10    2.50    4.50
   5   0  10    1.60    4.50
   5   0  10    2.20    3.90
   5   0  10    0.30    3.50
  -6   0 -10  363.16   16.60
  -6   0 -10  354.66   16.00
   6   0  10  356.06   15.90
   6   0  10  357.36   16.50
  -6   0 -10  365.96   15.80
  -6   0 -10  330.67   16.30
   6   0  10  356.56   15.50
  -6   0 -10  376.76   15.80
   7   0  10   12.30    6.30
   7   0  10   -2.20    5.40
  -7   0 -10    7.40    7.10
   7   0  10   -7.50    6.20
  -7   0 -10   -2.20    6.50
   7   0  10    4.90    5.60
  -7   0 -10   13.00    6.50
  -7   0 -10   14.50    6.40
  -7   0 -10   -3.50    6.20
   8   0  10   87.49    8.60
   8   0  10   61.89    8.10
  -8   0 -10   74.49    9.80
  -8   0 -10   68.79    9.60
   8   0  10   50.79    7.50
  -8   0 -10   87.79    9.70
   8   0  10   81.89    9.60
  -8   0 -10   99.39   11.60
  -8   0 -10   52.49    9.70
   9  -1 -10   81.69   10.10
  -9  -1  10   89.59    9.90
   9   1 -10   83.89   11.90
  -9   1  10  114.09   14.30
   8  -1 -10   51.39    7.10
  -8  -1  10   44.30    8.30
   8  -1 -10   54.29    6.70
   8  -1 -10   42.10    7.20
  -8  -1  10   50.19    7.70
  -8  -1  10   57.19    8.10
   8  -1 -10   51.39    7.40
  -8   1  10   57.39    8.70
  -8   1  10   50.09    7.10
   8   1 -10   50.29    7.60
   8   1 -10   47.00    7.90
  -8   1  10   53.89   10.30
   8   1 -10   57.09    8.90
  -8   1  10   58.49    6.50
   8   1 -10   58.49    8.60
   7  -1 -10   97.19    8.20
  -7  -1  10   87.99    9.50
  -7  -1  10   83.09    9.20
   7  -1 -10   94.69    9.20
   7  -1 -10  100.69    8.50
  -7  -1  10   99.69   10.50
   7  -1 -10   92.49    8.10
  -7   1  10   90.49    8.80
   7   1 -10   93.69    9.20
  -7   1  10  102.99    9.00
  -7   1  10  101.99    8.30
   7   1 -10  110.19   10.40
  -7   1  10   84.69   12.30
   7   1 -10  100.49    9.90
  -6  -1  10    3.40    4.20
  -6  -1  10    6.00    4.90
  -6  -1  10    3.50    4.80
   6  -1 -10    3.70    3.60
   6  -1 -10   -0.50    3.40
   6  -1 -10   -4.70    3.80
  -6  -1  10   -1.20    3.80
   6  -1 -10   -0.20    3.90
  -6   1  10   -4.20    4.00
  -6   1  10   -4.20    3.50
   6   1 -10    9.50    5.70
  -6   1  10   -1.90    4.10
  -6   1  10   -5.60    3.50
   6   1 -10   -1.90    3.80
  -6   1  10   -0.10    6.90
   6   1 -10   -2.20    5.00
   6   1 -10    0.20    4.60
  -5  -1  10   83.59    7.30
   5  -1 -10   79.89    5.80
  -5  -1  10   76.99    6.60
  -5  -1  10   83.09    7.90
  -5  -1  10   83.19    6.90
   5  -1 -10   83.19    6.60
   5  -1 -10   88.49    7.20
   5  -1 -10   75.89    6.40
   5   1 -10   75.19    6.90
   5   1 -10   90.19    7.60
  -5   1  10   87.59    6.50
  -5   1  10   90.79    7.20
  -5   1  10   72.59    9.30
   5   1 -10   82.09    6.80
  -5   1  10   78.79    6.00
  -5   1  10   85.09    7.10
   5   1 -10   82.19    7.40
   4  -1 -10  286.47   11.60
  -4  -1  10  277.57   12.30
   4  -1 -10  298.57   11.90
  -4  -1  10  286.57   12.10
  -4  -1  10  307.07   12.30
   4  -1 -10  296.97   11.60
  -4  -1  10  298.07   12.00
   4  -1 -10  290.07   11.60
   4   1 -10  291.57   12.60
   4   1 -10  296.27   12.10
   4   1 -10  297.17   12.10
   4   1 -10  299.67   11.80
  -4   1  10  287.37   11.50
  -4   1  10  314.17   11.30
  -4   1  10  296.47   12.10
  -4   1  10  305.37   12.00
   3  -1 -10   70.09    5.00
   3  -1 -10   70.29    4.90
  -3  -1  10   76.29    5.40
   3  -1 -10   70.49    4.70
  -3  -1  10   64.59    5.30
   3  -1 -10   70.49    4.70
  -3  -1  10   71.59    5.60
  -3  -1  10   64.09    5.00
   3   1 -10   61.29    5.10
  -3   1  10   73.79    4.50
  -3   1  10   71.19    5.10
  -3   1  10   73.59    4.90
   3   1 -10   71.79    5.60
   3   1 -10   56.49    4.70
  -3   1  10   68.29    5.10
   3   1 -10   75.29    6.00
  -2  -1  10  912.41   31.40
  -2  -1  10  939.21   31.30
  -2  -1  10  990.00   31.50
  -2  -1  10  963.30   31.30
   2  -1 -10  945.71   31.10
   2  -1 -10  955.30   31.30
   2  -1 -10  974.10   31.10
   2  -1 -10  967.00   31.20
   2   1 -10  953.00   31.40
  -2   1  10  961.90   31.30
  -2   1  10  945.61   31.00
   2   1 -10  943.71   31.10
  -2   1  10 1023.20   31.40
  -2   1  10  971.50   30.90
   2   1 -10  949.60   31.40
   2   1 -10  956.30   31.20
   1  -1 -10   90.19    5.30
  -1  -1  10   85.39    5.10
   1  -1 -10   87.09    5.00
  -1  -1  10   99.19    5.30
  -1  -1  10   86.39    5.20
   1  -1 -10   90.79    5.10
   1  -1 -10   96.29    5.10
  -1  -1  10   91.49    5.30
  -1   1  10   89.89    5.00
  -1   1  10   91.89    4.80
  -1   1  10   90.39    5.10
   1   1 -10  104.99    3.70
   1   1 -10   90.49    5.30
   1   1 -10   90.29    5.70
   1   1 -10   96.39    5.40
  -1   1  10   95.99    5.60
   1   1 -10   93.89    4.90
  -1   1  10   99.79    5.30
   0  -1  10  108.69    5.40
   0  -1 -10  102.29    5.50
   0  -1 -10  108.69    5.80
   0  -1 -10  103.59    5.40
   0  -1 -10  109.79    5.50
   0  -1  10  113.09    5.40
   0  -1  10  106.39    5.50
   0  -1  10  112.19    5.50
   0   1  10  106.99    5.60
   0   1 -10  104.19    5.40
   0   1  10  107.89    5.60
   0   1 -10  108.79    5.80
   0   1 -10  107.19    5.20
   0   1  10  106.19    5.50
   0   1 -10  118.39    5.80
   0   1  10  104.49    5.60
  -1  -1 -10  180.08    8.00
   1  -1  10  179.88    7.60
  -1  -1 -10  175.78    7.90
  -1  -1 -10  185.98    7.80
   1  -1  10  184.78    7.80
   1  -1  10  188.08    7.40
  -1  -1 -10  187.78    7.90
   1  -1  10  191.48    7.60
   1   1  10  182.58    7.70
  -1   1 -10  182.88    7.90
  -1   1 -10  186.28    7.60
   1   1  10  181.88    7.90
   1   1  10  184.68    8.30
  -1   1 -10  175.98    7.70
  -1   1 -10  184.08    7.30
   1   1  10  186.38    7.90
   1   1  10  181.68    8.00
   2  -1  10   24.40    3.00
  -2  -1 -10   28.80    3.70
  -2  -1 -10   17.00    3.30
   2  -1  10   15.10    4.60
   2  -1  10   20.10    2.90
  -2  -1 -10   20.50    3.40
  -2  -1 -10   12.20    2.80
   2  -1  10   19.10    2.80
   2  -1  10   19.90    3.20
   2   1  10   18.80    3.20
  -2   1 -10   22.10    2.70
   2   1  10   22.00    4.10
   2   1  10   18.00    3.10
   2   1  10   14.80    3.10
  -2   1 -10   18.70    3.00
  -2   1 -10   21.30    3.20
  -2   1 -10   17.80    3.50
  -3  -1 -10  161.88    7.30
  -3  -1 -10  188.78    8.70
   3  -1  10  182.98    8.40
   3  -1  10  171.28    9.80
  -3  -1 -10  177.68    8.60
   3  -1  10  173.38    8.10
   3  -1  10  184.88    8.40
  -3  -1 -10  173.38    8.80
   3  -1  10  170.28    7.80
  -3   1 -10  176.78    8.10
  -3   1 -10  192.38    8.80
  -3   1 -10  175.28    8.50
   3   1  10  194.78    9.00
   3   1  10  181.58    8.60
   3   1  10  180.48    9.40
  -3   1 -10  184.98    7.90
   3   1  10  183.58    8.60
   4  -1  10   24.50    5.60
   4  -1  10   14.10    3.70
  -4  -1 -10   14.90    3.40
   4  -1  10   17.30    4.40
  -4  -1 -10   19.00    4.70
   4  -1  10   14.50    3.50
   4  -1  10   17.70    3.60
  -4  -1 -10    8.60    3.70
  -4  -1 -10   21.80    4.60
  -4   1 -10   21.30    3.70
  -4   1 -10   20.60    4.60
   4   1  10   13.00    4.30
  -4   1 -10   13.00    3.50
  -4   1 -10   19.50    5.70
   4   1  10   24.20    5.30
   4   1  10   24.60    4.40
  -4   1 -10   19.30    4.50
   4   1  10   19.80    4.10
   5  -1  10  250.67   11.60
   5  -1  10  254.17   11.80
  -5  -1 -10  248.98   12.50
   5  -1  10  251.37   11.90
   5  -1  10  253.37   11.60
  -5  -1 -10  248.08   13.00
   5  -1  10  249.18   14.00
  -5  -1 -10  235.08   11.50
   5   1  10  264.87   12.30
   5   1  10  248.18   12.50
  -5   1 -10  246.98   11.30
   5   1  10  244.38   12.90
  -5   1 -10  258.17   13.90
   5   1  10  263.57   12.50
  -5   1 -10  263.47   12.40
  -5   1 -10  262.57   14.80
  -5   1 -10  259.87   11.40
  -5   1 -10  284.07   12.40
   6  -1  10  201.88   11.20
  -6  -1 -10  207.78   12.10
  -6  -1 -10  178.48   10.70
   6  -1  10  188.58   10.70
  -6  -1 -10  208.28   11.80
   6  -1  10  203.48   10.90
   6  -1  10  204.28   10.50
   6   1  10  207.98   11.70
   6   1  10  205.08   12.20
   6   1  10  187.48   12.20
  -6   1 -10  162.08   10.80
  -6   1 -10  194.98   10.60
  -6   1 -10  201.58   11.90
  -6   1 -10  197.98   13.50
  -7  -1 -10   56.79    8.70
   7  -1  10   47.90    6.40
   7  -1  10   41.40    7.70
  -7  -1 -10   34.70    6.90
  -7  -1 -10   54.39    9.40
   7  -1  10   42.90    7.40
  -7  -1 -10   48.10    8.40
   7  -1  10   56.39    7.40
  -7   1 -10   41.40    7.20
  -7   1 -10   23.40    8.70
  -7   1 -10   43.40    6.20
   7   1  10   43.10    8.10
   7   1  10   53.39    8.00
  -7   1 -10   42.80    8.20
   7   1  10   43.10    8.10
  -7   1 -10   35.70    6.30
   7   1  10   65.79    9.50
  -8  -1 -10    7.40    7.40
  -8  -1 -10   11.10    8.50
   8  -1  10    7.50    6.60
  -8   1 -10   -8.90    9.90
   8   1  10    4.70    8.00
  -8   1 -10   -8.10    8.60
  -8  -2  10    6.70    5.30
   8  -2 -10   12.50    6.60
   8  -2 -10   11.50    5.10
   8  -2 -10   14.70    5.80
  -8  -2  10   -7.40    5.50
  -8  -2  10   26.70    7.10
   8  -2 -10   12.60    4.80
  -8  -2  10    0.80    6.90
   8   2 -10    8.60    6.00
  -8   2  10    6.40    7.40
   8   2 -10    9.10    7.00
  -8   2  10    8.20    6.40
   8   2 -10   -4.30    6.70
  -8   2  10    5.30    4.70
  -8   2  10    3.70    3.30
   8   2 -10    5.20    8.90
   8   2 -10    5.20    6.80
  -8   2  10   12.10    9.60
   7  -2 -10   11.00    5.10
  -7  -2  10   33.20    6.90
   7  -2 -10    8.60    5.00
   7  -2 -10   23.80    5.00
   7  -2 -10   18.40    4.30
  -7  -2  10   11.20    5.10
  -7  -2  10   22.50    7.10
  -7  -2  10   13.10    6.50
   7   2 -10   15.30    7.30
  -7   2  10   19.50    4.20
  -7   2  10   11.90    6.70
   7   2 -10   22.30    7.10
  -7   2  10    9.30    9.10
  -7   2  10   21.60    5.60
   7   2 -10   15.60    5.60
   7   2 -10   15.10    7.80
  -7   2  10   22.30    3.50
  -6  -2  10    3.00    3.60
  -6  -2  10   10.50    5.20
  -6  -2  10   10.80    5.50
   6  -2 -10    5.40    3.50
   6  -2 -10   10.00    3.20
   6  -2 -10    9.60    4.60
   6  -2 -10   -4.80    3.80
  -6  -2  10    5.70    5.70
   6   2 -10    6.90    6.80
  -6   2  10    8.30    7.70
  -6   2  10   -1.60    4.10
   6   2 -10    4.20    4.60
  -6   2  10    5.40    3.00
   6   2 -10    5.10    4.20
  -6   2  10    1.00    4.50
  -6   2  10    6.70    2.50
  -5  -2  10  221.98   11.10
  -5  -2  10  223.38   11.30
   5  -2 -10  226.68   10.40
   5  -2 -10  228.48   10.60
  -5  -2  10  236.98   11.80
  -5  -2  10  220.88   10.70
   5  -2 -10  233.18   10.10
   5  -2 -10  218.78    9.50
  -5   2  10  224.48   10.80
   5   2 -10  264.37   15.00
  -5   2  10  245.68   10.70
   5   2 -10  226.68   11.00
   5   2 -10  219.88   10.70
  -5   2  10  231.68    8.40
  -5   2  10  218.38   13.80
   5   2 -10  228.18   11.80
  -5   2  10  232.18    8.90
  -4  -2  10   72.59    6.70
  -4  -2  10   64.39    6.10
  -4  -2  10   64.79    6.40
   4  -2 -10   74.29    5.40
   4  -2 -10   67.69    5.50
   4  -2 -10   69.69    4.60
  -4  -2  10   70.19    6.70
   4  -2 -10   70.99    5.40
  -4   2  10   76.79    6.10
  -4   2  10   68.69    6.00
   4   2 -10   64.79    7.00
   4   2 -10   73.39    7.10
  -4   2  10   68.09    3.30
  -4   2  10   66.69    4.00
  -4   2  10   67.99    8.90
   4   2 -10   72.99    6.10
   4   2 -10   70.69    6.00
   3  -2 -10   24.70    3.10
   3  -2 -10   30.30    3.50
  -3  -2  10   23.70    3.90
  -3  -2  10   30.00    4.00
   3  -2 -10   24.40    3.10
  -3  -2  10   29.10    3.70
   3  -2 -10   32.20    3.10
  -3  -2  10   27.40    3.60
   3   2 -10   26.80    3.00
  -3   2  10   29.60    3.60
   3   2 -10   24.30    3.80
  -3   2  10   30.30    5.40
  -3   2  10   22.70    2.60
   3   2 -10   26.70    4.40
  -3   2  10   23.10    3.60
   3   2 -10   22.20    3.40
   2  -2 -10    9.30    2.40
   2  -2 -10    9.60    2.30
   2  -2 -10    7.30    2.00
   2  -2 -10    6.40    2.10
  -2  -2  10    9.20    2.50
  -2  -2  10    6.40    2.50
  -2  -2  10    7.00    2.50
  -2  -2  10   10.40    2.40
  -2   2  10   13.10    4.20
   2   2 -10   11.90    3.10
   2   2 -10   12.70    3.10
  -2   2  10    7.20    3.80
   2   2 -10    5.80    3.20
  -2   2  10    9.40    2.60
  -2   2  10    4.00    2.60
   2   2 -10    5.00    8.10
   2   2 -10    8.20    2.50
  -2   2  10    9.30    1.20
   2   2 -10    9.60    2.00
   1  -2 -10   11.30    2.30
   1  -2 -10   11.10    2.20
  -1  -2  10   11.90    2.50
   1  -2 -10   11.30    2.60
  -1  -2  10   12.60    2.60
  -1  -2  10   12.70    2.50
   1  -2 -10    8.20    2.40
  -1  -2  10    8.50    2.30
  -1   2  10   11.20    3.60
   1   2 -10   12.40    1.60
   1   2 -10   17.50    8.00
  -1   2  10   12.20    1.70
   1   2 -10   10.40    2.10
  -1   2  10   11.10    1.40
   1   2 -10    4.70    3.10
   1   2 -10   11.40    2.90
  -1   2  10    9.10    2.70
  -1   2  10   11.40    3.40
   1   2 -10   14.30    2.80
  -1   2  10   12.80    2.90
   0  -2  10  135.99    6.10
   0  -2 -10  147.59    6.50
   0  -2  10  150.88    6.30
   0  -2  10  145.79    6.40
   0  -2 -10  143.19    6.60
   0  -2 -10  147.29    6.60
   0  -2 -10  146.59    6.50
   0  -2  10  137.79    6.40
   0   2  10  145.39    7.10
   0   2  10  145.29    7.50
   0   2  10  148.09    5.90
   0   2 -10  141.79    6.60
   0   2 -10  144.99    6.70
   0   2  10  146.29    6.80
   0   2 -10  145.99    5.30
   0   2 -10  138.19    6.50
   0   2 -10  143.59    5.10
   0   2  10  153.18    5.70
   0   2 -10  141.59   12.70
   1  -2  10   13.50    2.50
  -1  -2 -10   11.60    2.70
   1  -2  10   16.40    2.70
  -1  -2 -10   10.40    2.50
   1  -2  10   14.20    2.20
   1  -2  10    6.20    5.50
  -1  -2 -10   15.40    2.90
  -1  -2 -10   15.00    2.70
   1  -2  10   16.00    2.40
   1   2  10   11.30    3.10
   1   2  10   20.20    3.60
  -1   2 -10   26.00    9.60
   1   2  10   13.60    2.70
  -1   2 -10   17.30    3.10
   1   2  10   15.90    4.00
  -1   2 -10   17.80    3.10
   1   2  10   17.10    2.40
  -2  -2 -10  115.49    6.60
  -2  -2 -10  118.59    6.80
   2  -2  10  121.19    5.50
   2  -2  10  110.49    5.80
   2  -2  10  111.19    5.80
   2  -2  10  109.19    9.80
   2  -2  10  127.49    6.10
  -2  -2 -10  116.59    6.30
   2   2  10  112.39    6.80
  -2   2 -10  110.79    6.10
   2   2  10  104.39    7.00
  -2   2 -10  112.29    6.30
   2   2  10  114.39    6.30
   2   2  10  115.39    6.20
  -2   2 -10  129.69   12.50
   2   2  10  113.59    7.00
   3  -2  10   55.49    8.00
  -3  -2 -10   44.70    5.80
  -3  -2 -10   45.10    4.90
   3  -2  10   44.80    5.00
   3  -2  10   44.00    3.70
   3  -2  10   37.10    4.80
  -3  -2 -10   46.60    6.00
   3  -2  10   46.60    4.40
  -3  -2 -10   45.30    5.50
  -3   2 -10   42.80    3.10
   3   2  10   42.50    5.60
  -3   2 -10   45.10    2.60
  -3   2 -10   43.00    4.70
   3   2  10   46.50    5.60
  -3   2 -10   43.40    5.10
  -3   2 -10   66.09   10.50
   3   2  10   42.90    5.60
   3   2  10   40.50    5.20
   3   2  10   48.70    5.90
  -4  -2 -10   20.90    2.60
   4  -2  10   28.00    4.10
   4  -2  10   29.80    4.30
   4  -2  10   17.00    3.70
  -4  -2 -10   34.10    5.10
   4  -2  10   23.60    6.70
  -4  -2 -10   11.50    4.40
  -4  -2 -10   19.30    4.90
  -4  -2 -10   17.60    4.60
   4  -2  10   34.60    4.00
   4   2  10   26.10    5.00
  -4   2 -10   27.10    3.50
  -4   2 -10   36.50    4.70
  -4   2 -10   25.90    2.90
  -4   2 -10   33.20    4.90
  -4   2 -10   42.20    9.70
   4   2  10   24.00    4.80
   4   2  10   25.90    5.10
   5  -2  10  133.29    7.70
   5  -2  10  140.29    8.80
  -5  -2 -10  124.99    8.80
   5  -2  10  137.59    9.00
  -5  -2 -10  118.99   10.00
  -5  -2 -10  122.19    6.90
   5  -2  10  133.89    7.40
  -5  -2 -10  130.29    9.80
  -5  -2 -10  140.49   10.20
   5   2  10  136.29    9.40
   5   2  10  131.79    9.50
  -5   2 -10  165.18   13.70
  -5   2 -10  136.79    8.90
   5   2  10  142.89   11.60
  -5   2 -10  130.89    6.40
  -5   2 -10  134.09    6.40
   6  -2  10   37.60    5.90
   6  -2  10   43.50    6.10
  -6  -2 -10   40.20    7.00
  -6  -2 -10   44.00    6.30
  -6  -2 -10   46.00    7.80
  -6  -2 -10   29.40    6.10
   6  -2  10   38.70    5.20
   6  -2  10   44.30   11.40
   6  -2  10   37.90    5.70
  -6  -2 -10   47.60    7.30
   6   2  10   43.80    7.70
  -6   2 -10   36.80    7.40
   6   2  10   53.79    6.90
  -6   2 -10   44.80    5.30
  -6   2 -10   42.00    6.40
  -6   2 -10   38.80    9.20
   6   2  10   43.60    8.30
  -7  -2 -10  -11.80    5.50
   7  -2  10    4.00    6.20
  -7  -2 -10  -10.00    5.90
   7  -2  10    4.70    5.10
  -7  -2 -10  -10.50    6.00
  -7  -2 -10   -2.30    8.20
  -7  -2 -10   -4.30    5.00
   7  -2  10   -0.10    4.80
   7  -2  10   -3.80    5.20
   7  -2  10    4.30   11.70
  -7   2 -10    2.00    4.00
   7   2  10   -0.30    6.40
  -7   2 -10  -16.60    9.70
  -7   2 -10    6.50    3.40
  -7   2 -10   -3.50    6.40
   7   2  10    3.90    6.80
   7   2  10    0.10    7.00
  -7   2 -10   -3.60    7.10
  -7   2 -10  -11.60    7.20
   7   2  10  -10.50    7.50
  -6  -3  10    7.10    6.40
   6  -3 -10   23.70    5.20
  -6  -3  10   10.10    5.60
  -6  -3  10    6.30    5.50
  -6  -3  10   10.20    5.20
   6  -3 -10    7.20    5.10
   6  -3 -10    6.40    4.20
   6  -3 -10   15.70    2.80
   6   3 -10    2.90   11.10
   6   3 -10    8.30    6.70
  -6   3  10    3.40    9.80
  -6   3  10   15.40    5.60
   6   3 -10   16.20    4.80
  -6   3  10   -0.10    4.30
   6   3 -10   10.20    6.80
   6   3 -10   12.30    4.80
  -5  -3  10    8.80    4.10
   5  -3 -10    5.70    2.50
   5  -3 -10    1.90    4.50
  -5  -3  10   -1.90    5.50
  -5  -3  10    2.80    4.50
  -5  -3  10   -0.50    4.30
   5  -3 -10    1.70    3.20
   5  -3 -10    5.50    3.70
   5   3 -10    4.90    3.40
   5   3 -10    3.20   12.40
  -5   3  10    0.50    3.30
   5   3 -10    6.20    5.00
  -5   3  10    4.50    3.90
   5   3 -10   -0.80    6.10
   5   3 -10    4.70    3.20
   5   3 -10    4.50    4.80
  -5   3  10   -3.10    8.10
   4  -3 -10  132.39    7.00
  -4  -3  10  143.29    9.20
  -4  -3  10  136.49    8.30
   4  -3 -10  133.79    7.10
   4  -3 -10  132.79    7.50
  -4  -3  10  137.99    8.30
  -4  -3  10  144.49    7.70
   4  -3 -10  136.89    7.80
   4   3 -10   94.59   17.20
   4   3 -10  138.49    6.00
   4   3 -10  140.89    6.50
  -4   3  10  146.09   12.30
   4   3 -10  133.79    8.50
   4   3 -10  139.59    9.10
  -4   3  10  133.69    7.50
  -3  -3  10   13.90    3.90
   3  -3 -10   10.80    2.90
  -3  -3  10   12.90    3.80
   3  -3 -10   11.80    2.80
   3  -3 -10    9.10    3.10
  -3  -3  10   19.60    4.00
   3   3 -10   37.60   13.70
   3   3 -10   21.60    4.40
  -3   3  10   20.60    6.50
  -3   3  10   10.50    3.30
   3   3 -10   22.80    4.30
  -3   3  10    7.30    3.90
   3   3 -10   10.80    4.10
   2  -3 -10  675.63   22.80
  -2  -3  10  705.13   23.70
  -2  -3  10  727.93   23.30
  -2  -3  10  700.13   23.60
  -2  -3  10  657.93   23.70
   2  -3 -10  684.43   23.10
   2  -3 -10  686.33   22.70
   2  -3 -10  700.43   23.30
   2   3 -10  713.43   24.30
  -2   3  10  697.93   23.10
  -2   3  10  688.53   25.50
   2   3 -10  699.83   23.90
  -2   3  10  704.73   25.40
   2   3 -10  693.13   23.80
  -1  -3  10   35.80    4.30
  -1  -3  10   35.10    4.10
   1  -3 -10   32.80    3.90
  -1  -3  10   35.50    3.90
   1  -3 -10   35.40    4.00
   1  -3 -10   33.80    3.80
   1  -3 -10   37.10    3.80
  -1  -3  10   30.90    3.40
   1   3 -10   35.10    4.10
   1   3 -10   40.00    5.10
   1   3 -10   29.40   12.00
  -1   3  10   45.60    5.90
  -1   3  10   26.90    3.40
  -1   3  10   33.00    3.90
   1   3 -10   35.10    3.90
   0  -3  10   30.70    8.00
   0  -3 -10   22.40    2.70
   0  -3  10   18.50    2.70
   0  -3 -10   28.40    3.30
   0  -3 -10   21.10    3.50
   0  -3 -10   17.80    3.00
   0  -3  10   24.00    3.50
   0  -3  10   21.10    3.00
   0  -3  10   19.00    2.70
   0   3  10   23.70    3.60
   0   3 -10   22.30    3.30
   0   3 -10   28.50   14.20
   0   3 -10   18.60    4.60
   0   3  10   24.80    4.90
   0   3  10   21.20    3.60
  -1  -3 -10  106.89    6.80
   1  -3  10  107.09    5.90
   1  -3  10  101.79    5.20
   1  -3  10  101.59    5.20
  -1  -3 -10  108.69    5.40
  -1  -3 -10   98.29    6.50
   1  -3  10  105.29    5.30
  -1  -3 -10  103.89    6.30
   1   3  10   86.89    7.00
   1   3  10  111.79    7.20
  -1   3 -10  110.19    5.80
   1   3  10  102.19    6.60
  -1   3 -10  114.59   18.10
   2  -3  10   20.80    2.80
  -2  -3 -10   19.40    2.80
   2  -3  10   22.00    3.70
  -2  -3 -10   19.30    3.90
   2  -3  10   19.50    2.70
   2  -3  10   17.00    2.80
  -2  -3 -10   20.70    4.00
  -2   3 -10   21.90   13.40
   2   3  10   18.30    4.30
   2   3  10   15.10    4.40
   2   3  10   21.50    5.10
  -2   3 -10   25.10    3.50
   3  -3  10   94.29    6.60
  -3  -3 -10   93.19    6.60
  -3  -3 -10   97.39    7.70
   3  -3  10   93.29    6.10
  -3  -3 -10   83.89    7.90
   3  -3  10   89.99    6.10
  -3  -3 -10   93.59    6.60
   3  -3  10   95.59    5.80
   3   3  10   90.39    8.00
   3   3  10   86.99    7.70
   3   3  10   95.09    5.10
  -3   3 -10   93.99    6.50
  -3   3 -10   98.69   17.50
   3   3  10   92.49    5.50
   4  -3  10  537.85   19.80
   4  -3  10  508.65   18.70
   4  -3  10  524.95   19.30
  -4  -3 -10  567.94   20.30
  -4  -3 -10  543.55   20.70
   4  -3  10  544.75   19.00
  -4  -3 -10  524.25   21.10
  -4  -3 -10  493.25   20.00
   4   3  10  506.85   18.70
   4   3  10  526.75   21.50
  -4   3 -10  537.65   19.40
   4   3  10  537.85   21.10
  -4   3 -10  553.84   28.90
   4   3  10  559.54   20.60
   4   3  10  513.25   18.80
   5  -3  10   26.30   10.30
   5  -3  10   18.90    4.30
   5  -3  10   15.40    2.80
  -5  -3 -10   13.30    5.50
  -5  -3 -10   19.70    5.60
   5  -3  10   21.40    5.00
   5  -3  10   15.60    4.80
  -5  -3 -10   16.00    5.50
  -5  -3 -10   12.50    6.70
  -5   3 -10    9.10    4.30
   5   3  10   19.50    5.40
   5   3  10   18.80    7.40
   5   3  10   19.20    9.50
  -5   3 -10   20.50   14.90
   5   3  10    9.80    7.00
  -5   3 -10   13.90    7.20
   5   3  10   12.90    4.70
   4  -4 -10   60.69    5.60
  -4  -4  10   52.39    6.00
  -4  -4  10   64.29    7.70
   4  -4 -10   57.39    6.40
   4   4 -10   56.89    7.70
   4   4 -10   52.59   15.00
   4   4 -10   59.29    7.90
  -3  -4  10  207.38   10.90
   3  -4 -10  222.68    9.50
   3  -4 -10  205.08    9.00
  -3  -4  10  197.68   10.10
  -3  -4  10  235.18   11.10
  -3  -4  10  190.68    9.80
   3   4 -10  202.88   20.40
   3   4 -10  223.08   11.80
  -2  -4  10   16.10    3.80
  -2  -4  10   12.60    4.70
   2  -4 -10   20.60    3.20
  -2  -4  10   20.00    3.40
  -2  -4  10   18.70    3.00
   2  -4 -10   17.80    3.50
   2   4 -10   25.40    5.50
   2   4 -10    0.30   12.50
   2   4 -10   16.80    4.60
  -2   4  10   16.90    9.10
   1  -4 -10   43.50    5.10
   1  -4 -10   49.20    4.70
  -1  -4  10   32.60   11.80
  -1  -4  10   40.50    4.60
  -1  -4  10   39.80    5.10
   1   4 -10   30.20   14.90
   1   4 -10   43.30    6.20
  -1   4  10   36.40    9.50
   1   4 -10   38.80    4.10
  -1   4  10   35.40    3.60
   0  -4  10   35.90    4.10
   0  -4  10   30.00   11.90
   0  -4 -10   27.90    4.00
   0  -4 -10   31.60    3.90
   0  -4  10   39.40    4.50
   0   4 -10   20.70   13.90
   0   4  10   28.60    4.10
   0   4 -10   25.80    5.70
   0   4 -10   26.40    2.70
   0   4  10   21.20    9.80
  -1  -4 -10   31.00    4.30
   1  -4  10   37.40    4.10
   1  -4  10   36.90    4.00
  -1  -4 -10   33.80    5.40
   1  -4  10   35.90   11.70
  -1  -4 -10   32.60    3.70
  -1  -4 -10   32.20    4.20
  -1  -4 -10   33.90    3.70
   1   4  10   35.60    5.00
  -1   4 -10   29.80   15.10
   1   4  10   30.10    9.30
   2  -4  10   15.60    3.10
  -2  -4 -10   22.70    4.10
  -2  -4 -10    9.60    4.00
   2  -4  10   16.20   10.10
  -2  -4 -10   14.40    4.50
   2  -4  10   16.60    3.50
   2   4  10    0.50    3.90
  -2   4 -10    9.50   14.90
   2   4  10   11.70    5.80
   2   4  10   16.60    8.70
  -3  -4 -10  122.19    9.90
   3  -4  10   95.69    7.20
  -3  -4 -10  104.79    8.20
  -3   4 -10   63.99   18.50
   3   4  10   96.39   11.60
   3   4  10  124.49   11.00
  -9   0  11    1.60    6.70
  -9   0  11   -0.50    7.10
   9   0 -11   12.10    6.50
   9   0 -11   -5.10    5.90
   9   0 -11   18.70    7.30
  -9   0  11   17.60    7.50
   9   0 -11    3.20    6.60
  -9   0  11   12.70    8.50
  -9   0  11    9.20    8.20
   8   0 -11    9.20    5.60
   8   0 -11    3.60    6.00
   8   0 -11   -5.70    5.90
  -8   0  11    2.80    6.30
  -8   0  11    5.00    7.00
  -8   0  11   -3.40    6.60
   8   0 -11    5.80    7.20
  -8   0  11    9.00    6.60
  -7   0  11  354.86   15.60
  -7   0  11  363.56   16.40
   7   0 -11  342.07   15.70
  -7   0  11  301.57   15.00
  -7   0  11  326.87   16.10
   7   0 -11  339.27   15.60
   7   0 -11  347.57   16.20
  -6   0  11    0.40    4.80
   6   0 -11    2.50    4.50
  -6   0  11   -0.70    4.60
  -6   0  11    3.40    3.90
   6   0 -11    5.90    4.30
   6   0 -11   -1.20    4.50
   6   0 -11   -1.60    4.70
  -6   0  11   -5.70    4.10
  -5   0  11   -2.20    3.90
   5   0 -11   -0.20    4.10
   5   0 -11    3.10    3.80
   5   0 -11    2.80    4.00
  -5   0  11    2.40    3.90
   5   0 -11    0.00    3.10
  -5   0  11    1.30    3.90
  -5   0  11   -2.60    3.40
  -4   0  11    3.10    3.20
  -4   0  11   -2.50    2.90
   4   0 -11   -1.10    3.10
   4   0 -11    0.60    3.20
  -4   0  11    1.30    2.70
   4   0 -11   -3.20    2.70
   4   0 -11   -2.50    2.60
  -4   0  11   -0.30    3.20
  -3   0  11  216.68    9.70
  -3   0  11  206.88    9.40
   3   0 -11  221.98    9.20
   3   0 -11  220.88    9.40
  -3   0  11  209.18    9.30
  -3   0  11  215.08    9.20
   3   0 -11  234.68    9.50
  -2   0  11    1.00    2.40
   2   0 -11   -1.80    2.70
   2   0 -11   -1.70    3.10
   2   0 -11   -1.10    2.40
  -2   0  11   -1.30    2.60
  -2   0  11   -0.70    2.40
  -2   0  11   -4.30    2.30
   2   0 -11   -0.80    2.60
  -1   0  11 1057.09   34.20
   1   0 -11 1028.90   34.10
   1   0 -11 1048.20   34.20
  -1   0  11 1018.70   34.10
   1   0 -11 1113.69   34.50
   1   0 -11 1095.59   34.40
  -1   0  11 1060.59   34.40
  -1   0  11 1027.30   34.20
   0   0  11    5.50    2.40
   0   0 -11    8.30    2.60
   0   0  11    9.10    2.70
   0   0 -11    6.10    2.90
   0   0 -11    9.00    3.20
   0   0  11    8.50    1.60
   0   0 -11    6.30    2.40
   0   0  11    5.80    3.10
  -1   0 -11   42.00    4.00
   1   0  11   33.40    3.90
  -1   0 -11   34.60    4.10
   1   0  11   37.20    4.10
   1   0  11   39.90    4.40
  -1   0 -11   39.20    5.00
   1   0  11   41.40    4.30
  -1   0 -11   33.40    4.40
  -2   0 -11    2.90    2.70
  -2   0 -11    1.10    2.80
   2   0  11    1.50    2.90
   2   0  11   -1.40    2.70
   2   0  11   -7.00    2.60
  -2   0 -11    0.50    2.40
  -2   0 -11   -4.70    3.40
   2   0  11   -0.30    2.50
   2   0  11    0.10    2.60
   3   0  11  345.77   13.20
  -3   0 -11  329.57   13.10
   3   0  11  338.07   13.10
  -3   0 -11  332.77   13.30
   3   0  11  333.47   13.00
  -3   0 -11  359.06   13.60
   3   0  11  320.57   12.80
  -3   0 -11  334.87   13.10
   3   0  11  348.77   13.60
  -4   0 -11    4.10    4.20
  -4   0 -11    4.80    3.50
   4   0  11    1.80    3.40
   4   0  11   -0.10    3.20
  -4   0 -11   -2.10    4.00
   4   0  11    1.60    3.80
  -4   0 -11    2.70    4.10
  -4   0 -11    0.40    3.30
   4   0  11   11.80    4.50
   4   0  11   -1.70    3.40
   5   0  11  525.75   19.80
  -5   0 -11  507.15   20.00
  -5   0 -11  538.55   20.20
   5   0  11  526.15   20.00
   5   0  11  518.35   19.90
  -5   0 -11  510.55   19.60
  -5   0 -11  522.25   19.80
   5   0  11  553.14   20.50
  -5   0 -11  473.75   19.80
  -6   0 -11    6.80    7.00
  -6   0 -11    1.50    4.50
  -6   0 -11    2.20    6.30
   6   0  11   -1.30    5.30
   6   0  11   -1.80    5.40
  -6   0 -11    0.90    4.70
  -6   0 -11    4.70    6.20
   6   0  11    1.40    4.70
  -7   0 -11   13.80    8.40
  -7   0 -11   14.90    7.70
  -7   0 -11   17.30    6.90
   7   0  11    7.70    7.60
  -7   0 -11    2.90    7.50
   7   0  11   11.60    7.00
  -7   0 -11   16.60    6.20
   7   0  11    7.90    6.10
   7   0  11   34.40    7.50
  -8   0 -11   -6.20    6.60
  -8   0 -11    6.90    8.60
   8   0  11    1.60    7.10
   8   0  11    4.50    7.20
  -8   0 -11   15.30    7.40
  -8   0 -11   -4.50    7.00
  -8   0 -11  -11.80    9.50
  -8  -1  11   87.79   10.00
  -8  -1  11   87.09   10.90
  -8  -1  11   69.59    8.60
   8  -1 -11   77.89    9.40
   8  -1 -11  102.59    9.40
   8  -1 -11   74.09    9.50
   8  -1 -11   81.69   10.30
  -8  -1  11   67.29    8.70
   8   1 -11   84.49    7.80
  -8   1  11   78.09    8.20
   8   1 -11   86.19   11.00
  -8   1  11   88.09   11.40
   8   1 -11   66.09   10.00
   8   1 -11  104.49   11.80
  -8   1  11   80.39   11.80
   8   1 -11   57.89    8.30
  -8   1  11   70.59    9.10
   7  -1 -11   17.60    4.80
  -7  -1  11    8.90    6.00
   7  -1 -11   17.60    5.30
  -7  -1  11    9.60    6.70
   7  -1 -11   16.00    5.20
   7  -1 -11   13.10    4.60
  -7  -1  11   17.30    5.90
   7   1 -11    3.60    6.50
  -7   1  11   16.50    4.90
   7   1 -11   18.20    6.00
   7   1 -11   16.40    6.10
  -7   1  11   22.50    6.60
   7   1 -11    9.90    7.00
  -7   1  11   13.80    7.80
  -7   1  11   17.30    5.20
   6  -1 -11   23.40    4.90
   6  -1 -11   17.20    4.70
   6  -1 -11   14.60    4.20
  -6  -1  11    4.80    5.00
   6  -1 -11   10.00    4.10
  -6  -1  11   15.90    4.60
  -6  -1  11    3.60    5.50
  -6   1  11   11.90    7.20
   6   1 -11   13.90    5.30
  -6   1  11   12.60    4.20
   6   1 -11    8.80    4.50
   6   1 -11   20.10    6.60
   6   1 -11   12.00    5.40
  -6   1  11   20.70    4.40
  -6   1  11   13.00    5.10
   5  -1 -11   -2.00    3.10
  -5  -1  11    2.80    4.10
  -5  -1  11    4.00    3.70
  -5  -1  11   -0.80    4.40
  -5  -1  11    3.60    4.20
   5  -1 -11   -0.20    4.00
   5  -1 -11    2.90    3.60
   5  -1 -11    9.40    3.60
   5   1 -11    7.70    5.00
   5   1 -11    2.00    4.10
   5   1 -11   -0.30    3.90
  -5   1  11   -2.10    3.40
  -5   1  11    1.20    3.80
   5   1 -11    0.10    3.70
  -5   1  11    5.10    3.80
  -5   1  11    1.50    3.20
   4  -1 -11   39.20    4.80
  -4  -1  11   50.79    5.70
   4  -1 -11   51.69    5.20
  -4  -1  11   39.40    5.10
   4  -1 -11   41.50    5.30
   4  -1 -11   52.69    4.70
  -4  -1  11   52.69    5.50
  -4  -1  11   41.50    5.40
  -4   1  11   58.99    4.80
   4   1 -11   50.69    5.40
  -4   1  11   52.89    4.90
   4   1 -11   53.69    6.00
   4   1 -11   53.59    6.10
  -4   1  11   50.29    5.30
  -4   1  11   42.30    5.30
   4   1 -11   53.59    5.90
  -3  -1  11   95.79    6.20
  -3  -1  11   86.39    5.90
  -3  -1  11  101.99    6.00
   3  -1 -11   98.19    5.90
  -3  -1  11   99.19    6.20
   3  -1 -11   92.59    5.50
   3  -1 -11   98.89    5.70
  -3   1  11   92.39    6.30
   3   1 -11   96.39    6.00
  -3   1  11   96.29    5.60
   3   1 -11  104.09    6.30
  -3   1  11   91.19    5.30
  -3   1  11   89.99    5.70
   3   1 -11   97.39    6.30
   3   1 -11   93.39    6.30
  -2  -1  11 1074.19   36.20
  -2  -1  11 1095.69   36.30
   2  -1 -11 1098.59   36.20
   2  -1 -11 1103.39   36.10
  -2  -1  11 1124.69   36.20
   2  -1 -11 1106.69   36.00
  -2  -1  11 1121.59   36.10
   2  -1 -11 1117.89   36.00
  -2   1  11 1079.39   35.70
   2   1 -11 1144.09   36.00
  -2   1  11 1176.88   36.30
   2   1 -11 1101.29   36.00
  -2   1  11 1125.89   35.80
   2   1 -11 1152.08   36.40
   2   1 -11 1111.59   36.40
  -2   1  11 1085.49   36.10
  -1  -1  11  200.08    8.50
   1  -1 -11  209.88    8.40
  -1  -1  11  193.58    8.40
   1  -1 -11  202.88    8.30
  -1  -1  11  199.68    8.40
   1  -1 -11  201.48    8.30
   1  -1 -11  205.98    8.40
  -1  -1  11  209.58    8.50
   1   1 -11  205.08    8.40
  -1   1  11  205.18    8.10
  -1   1  11  207.28    8.60
  -1   1  11  210.48    8.30
   1   1 -11  193.18    8.60
  -1   1  11  209.58    8.80
   1   1 -11  213.68    8.60
   1   1 -11  200.88    8.10
   1   1 -11  214.28    6.70
  -1   1  11  209.88    8.30
   0  -1  11   94.09    5.30
   0  -1  11   97.29    5.20
   0  -1  11   93.09    4.90
   0  -1 -11   82.59    5.30
   0  -1 -11   85.09    5.50
   0  -1 -11   88.69    5.10
   0  -1 -11   91.59    5.30
   0  -1  11   92.79    5.40
   0   1  11   95.49    5.40
   0   1 -11   93.49    5.50
   0   1 -11   99.69    4.90
   0   1 -11   90.79    5.70
   0   1 -11   92.99    5.30
   0   1  11   94.29    5.60
   0   1  11   89.49    5.20
   0   1  11   84.29    5.80
  -1  -1 -11  393.76   14.30
  -1  -1 -11  398.96   14.40
   1  -1  11  388.96   14.10
   1  -1  11  392.96   14.10
  -1  -1 -11  401.06   14.50
  -1  -1 -11  392.46   14.30
   1  -1  11  396.56   14.10
   1  -1  11  402.26   14.10
  -1   1 -11  423.66   14.50
  -1   1 -11  404.46   13.90
   1   1  11  395.36   14.20
   1   1  11  379.16   14.40
   1   1  11  407.66   14.30
   1   1  11  396.66   14.60
  -1   1 -11  388.86   14.30
   1   1  11  385.66   14.10
  -1   1 -11  402.46   14.00
   2  -1  11   40.40    4.30
  -2  -1 -11   40.00    4.80
  -2  -1 -11   46.00    5.00
   2  -1  11   45.60    4.40
   2  -1  11   36.90    3.70
   2  -1  11   44.60    6.60
   2  -1  11   43.90    4.10
  -2  -1 -11   39.60    4.40
  -2  -1 -11   38.10    4.70
  -2   1 -11   40.20    4.70
   2   1  11   39.80    4.70
   2   1  11   45.30    5.60
  -2   1 -11   39.00    4.50
   2   1  11   45.90    5.00
  -2   1 -11   35.40    4.10
  -2   1 -11   41.50    5.20
   2   1  11   41.90    4.50
  -3  -1 -11  142.39    8.60
   3  -1  11  155.58    7.70
   3  -1  11  153.68    9.50
   3  -1  11  162.18    8.00
  -3  -1 -11  151.58    8.40
   3  -1  11  163.68    7.40
  -3  -1 -11  150.98    8.10
   3  -1  11  155.48    7.80
  -3  -1 -11  157.28    8.10
  -3   1 -11  155.48    7.70
   3   1  11  155.38    8.00
   3   1  11  144.99    8.80
   3   1  11  149.49    8.30
  -3   1 -11  167.88    8.10
  -3   1 -11  159.18    7.40
  -3   1 -11  153.58    7.70
   3   1  11  156.08    8.00
   4  -1  11  101.49    7.10
   4  -1  11  101.49    6.90
  -4  -1 -11   83.99    7.40
  -4  -1 -11   96.39    7.80
   4  -1  11   97.89    7.60
   4  -1  11   98.79    7.20
  -4  -1 -11   76.19    6.40
  -4  -1 -11  106.79    7.90
   4  -1  11  101.79    8.70
   4   1  11   93.69    8.70
  -4   1 -11   92.09    7.60
  -4   1 -11   94.39    7.00
   4   1  11   86.79    7.40
  -4   1 -11  102.19    6.60
  -4   1 -11   96.99    6.90
   4   1  11   78.49    7.60
   4   1  11  102.19    7.80
   5  -1  11   -3.20    3.80
   5  -1  11   -8.30    3.90
   5  -1  11    0.70    6.30
  -5  -1 -11    0.20    5.40
  -5  -1 -11   -2.50    4.90
   5  -1  11   -3.10    3.70
   5  -1  11    0.00    3.70
  -5  -1 -11    2.90    4.40
  -5   1 -11    4.70    3.90
  -5   1 -11    1.70    5.00
   5   1  11   11.40    4.80
  -5   1 -11    5.30    4.10
   5   1  11    1.80    4.70
   5   1  11    3.70    4.80
  -5   1 -11   -6.00    7.00
   5   1  11    4.20    5.50
  -5   1 -11   10.30    7.30
   6  -1  11   12.40    5.60
   6  -1  11   -1.90    7.90
   6  -1  11    5.60    4.30
  -6  -1 -11   -0.20    6.50
  -6  -1 -11    7.50    5.40
   6  -1  11    1.90    4.70
   6  -1  11    3.60    4.30
  -6  -1 -11   10.00    6.90
   6   1  11    8.80    6.90
  -6   1 -11    2.20    5.00
  -6   1 -11    1.30    4.50
  -6   1 -11    3.60    6.30
  -6   1 -11   15.70    7.30
   6   1  11   13.80    5.80
  -6   1 -11   12.20    7.10
   6   1  11    7.40    6.20
  -7  -1 -11   -4.70    8.00
  -7  -1 -11    3.00    6.00
  -7  -1 -11   -3.20    8.50
   7  -1  11   -6.40    5.50
   7  -1  11    1.80    5.50
   7  -1  11   -0.30    5.30
   7  -1  11    4.40    5.30
  -7  -1 -11    5.30    7.40
  -7   1 -11    8.20    5.00
  -7   1 -11  -10.40    8.00
  -7   1 -11    7.70    8.50
   7   1  11    8.10    7.00
   7   1  11    5.80    6.80
   7   1  11   -6.90    6.90
  -7   1 -11    4.40    6.80
   7   1  11   -5.10    6.60
  -7   1 -11    9.90    7.00
  -8  -2  11   16.50    6.00
   8  -2 -11   32.80    5.50
   8  -2 -11   23.80    5.70
  -8  -2  11   19.80    6.70
   8  -2 -11   21.10    6.60
  -8  -2  11   26.70    6.60
  -8  -2  11   13.00    7.90
   8  -2 -11   18.20    5.20
   8   2 -11   13.00    9.20
  -8   2  11    5.50    4.80
   8   2 -11   24.60    8.10
  -8   2  11   16.10    7.60
   8   2 -11   17.40    7.70
  -8   2  11    2.20    5.60
  -8   2  11    8.40    9.10
   8   2 -11   25.90    7.30
   8   2 -11   13.00    9.30
  -7  -2  11    1.60    4.70
   7  -2 -11    3.10    4.80
  -7  -2  11    5.30    6.40
   7  -2 -11   14.10    5.10
  -7  -2  11   16.70    6.40
   7  -2 -11   11.40    5.50
   7  -2 -11   11.30    4.20
  -7  -2  11    7.50    6.20
   7   2 -11    4.90    5.50
  -7   2  11   12.30    9.40
   7   2 -11    2.10    6.70
  -7   2  11   16.60    5.80
   7   2 -11    5.90    6.40
  -7   2  11    8.30    3.30
   7   2 -11   12.70   11.90
  -7   2  11    7.30    4.10
  -7   2  11   -3.30    6.10
  -6  -2  11   71.89    9.00
   6  -2 -11   55.79    5.80
   6  -2 -11   80.59    5.90
   6  -2 -11   78.19    7.60
  -6  -2  11   66.39    7.40
  -6  -2  11   57.29    6.80
   6  -2 -11   64.19    7.50
  -6  -2  11   67.39    7.50
   6   2 -11   64.99    8.40
  -6   2  11   58.29    9.30
  -6   2  11   65.09    7.60
  -6   2  11   67.09    5.30
   6   2 -11   71.79    8.10
  -6   2  11   55.69    4.70
   6   2 -11   62.19    7.90
   5  -2 -11  333.27   13.30
  -5  -2  11  312.57   13.70
  -5  -2  11  314.97   14.00
   5  -2 -11  318.87   12.50
   5  -2 -11  316.37   12.80
  -5  -2  11  324.07   13.90
  -5  -2  11  315.07   14.10
   5  -2 -11  326.97   13.50
  -5   2  11  323.47   13.30
   5   2 -11  315.57   14.00
  -5   2  11  327.17   11.70
   5   2 -11  343.07   13.70
  -5   2  11  318.97   13.40
   5   2 -11  320.27   13.50
  -5   2  11  313.87   16.20
  -5   2  11  321.07   11.30
   4  -2 -11   90.79    5.30
   4  -2 -11  101.69    6.40
   4  -2 -11   93.59    6.30
   4  -2 -11   98.79    6.20
  -4  -2  11   83.99    7.30
  -4  -2  11   89.39    6.90
  -4  -2  11   80.79    7.10
  -4  -2  11   87.49    7.10
   4   2 -11   88.79    7.10
  -4   2  11   98.09    4.90
  -4   2  11   91.19    4.20
   4   2 -11   93.59    6.50
   4   2 -11   88.99    6.80
  -4   2  11   82.49    6.30
  -4   2  11   80.39    6.80
  -4   2  11   90.09    9.30
   4   2 -11   83.09    7.10
   3  -2 -11  274.17   10.60
  -3  -2  11  279.07   11.10
   3  -2 -11  267.27   10.30
   3  -2 -11  270.77   10.60
  -3  -2  11  255.37   10.90
  -3  -2  11  274.87   11.30
   3  -2 -11  274.47   10.70
  -3  -2  11  267.17   11.10
  -3   2  11  258.17    9.40
   3   2 -11  288.37   11.70
  -3   2  11  260.47   12.40
   3   2 -11  278.07   11.50
   3   2 -11  267.37   10.70
  -3   2  11  280.67   10.80
  -3   2  11  270.87   11.00
   3   2 -11  264.07   10.40
  -2  -2  11   15.90    3.00
   2  -2 -11   16.50    3.00
  -2  -2  11   17.30    3.10
  -2  -2  11    9.60    2.30
   2  -2 -11   14.20    2.80
   2  -2 -11   19.00    2.60
   2  -2 -11   17.80    2.90
  -2  -2  11   16.60    2.90
  -2   2  11   16.20    2.10
  -2   2  11   22.80    4.10
  -2   2  11   19.10    2.20
   2   2 -11   16.20    3.70
  -2   2  11   18.90    3.20
  -2   2  11   19.60    3.10
   2   2 -11    9.50    7.50
   2   2 -11   21.40    3.10
   2   2 -11   20.70    3.50
   2   2 -11   15.70    2.80
   2   2 -11   16.90    2.50
  -2   2  11   18.20    4.50
   1  -2 -11    6.40    2.30
  -1  -2  11    6.80    2.30
  -1  -2  11    6.00    2.30
   1  -2 -11    4.30    2.00
  -1  -2  11    6.50    2.50
  -1  -2  11   -0.10    1.80
   1  -2 -11    2.20    2.40
   1  -2 -11    2.90    2.30
  -1   2  11    7.30    3.30
   1   2 -11    3.40    1.60
   1   2 -11    6.60    3.30
  -1   2  11    0.90    2.80
  -1   2  11    4.00    3.40
   1   2 -11    4.50    7.20
  -1   2  11    5.80    2.70
  -1   2  11    6.40    2.00
   1   2 -11    6.50    2.20
   1   2 -11    1.70    2.70
   1   2 -11    8.40    2.90
  -1   2  11    6.30    1.50
   0  -2 -11   27.40    3.40
   0  -2  11   33.50    3.30
   0  -2 -11   31.00    3.20
   0  -2  11   29.00    3.20
   0  -2  11   38.50    3.40
   0  -2  11   30.00    3.70
   0  -2 -11   36.40    3.50
   0  -2 -11   33.50    4.10
   0   2 -11   31.10    2.90
   0   2  11   33.20    4.20
   0   2 -11   32.30    4.20
   0   2 -11   25.00    8.80
   0   2  11   40.50    3.60
   0   2 -11   32.70    3.90
   0   2  11   27.60    3.00
   0   2  11   36.80    4.70
   0   2 -11   36.10    2.30
   0   2  11   31.90    3.90
  -1  -2 -11   12.80    2.90
  -1  -2 -11   15.40    3.30
   1  -2  11   14.10    5.60
   1  -2  11   19.60    2.80
  -1  -2 -11   18.00    2.90
   1  -2  11   15.70    2.80
   1  -2  11   16.40    2.80
  -1  -2 -11   14.10    3.00
   1  -2  11   15.70    2.40
  -1   2 -11   23.00    9.50
  -1   2 -11   15.20    3.10
   1   2  11   16.20    3.90
   1   2  11   19.00    2.60
   1   2  11   18.70    3.40
  -1   2 -11   19.00    2.00
  -1   2 -11   22.00    3.50
  -1   2 -11   19.10    1.80
   1   2  11   14.60    3.70
   1   2  11   17.60    3.00
   2  -2  11  173.48    7.20
  -2  -2 -11  180.68    8.40
   2  -2  11  172.58    7.60
   2  -2  11  163.28    7.60
   2  -2  11  174.08    7.70
  -2  -2 -11  162.78    8.30
  -2  -2 -11  161.08    8.10
  -2  -2 -11  165.78    8.50
   2  -2  11  164.38   11.70
  -2   2 -11  184.78    8.10
  -2   2 -11  179.48   14.20
   2   2  11  169.18    7.90
  -2   2 -11  164.78    8.10
   2   2  11  167.68    8.00
   2   2  11  152.58    8.70
  -2   2 -11  167.08    6.30
   2   2  11  154.58    8.40
   2   2  11  155.38    8.50
  -2   2 -11  177.28    6.10
   3  -2  11   46.90    5.30
   3  -2  11   56.79    4.30
   3  -2  11   60.79    5.50
  -3  -2 -11   59.49    6.60
   3  -2  11   56.19    5.40
  -3  -2 -11   59.89    6.40
   3  -2  11   44.60    7.30
  -3  -2 -11   50.79    6.20
   3   2  11   60.29    6.20
  -3   2 -11   58.19    6.00
   3   2  11   57.79    5.80
  -3   2 -11   44.90    5.90
  -3   2 -11   58.39    3.30
  -3   2 -11   54.89    3.70
  -3   2 -11   65.89   10.90
   3   2  11   57.49    6.80
   3   2  11   59.19    6.10
   3   2  11   53.19    6.80
  -4  -2 -11   99.69    7.90
  -4  -2 -11  100.89    7.40
   4  -2  11   97.39    7.60
   4  -2  11  102.79    7.30
   4  -2  11  107.19    6.40
  -4  -2 -11  103.29    7.80
   4  -2  11   98.59   11.30
  -4  -2 -11   91.59    8.60
   4  -2  11   93.59    5.80
  -4   2 -11  100.99    5.30
  -4   2 -11  110.49    7.80
   4   2  11   91.99    8.00
  -4   2 -11  105.19    7.40
  -4   2 -11   99.99    5.00
   4   2  11   99.89    8.80
   4   2  11   87.39    8.10
  -4   2 -11  118.69   12.50
   5  -2  11  218.18   11.20
   5  -2  11  201.28   10.10
   5  -2  11  203.58    9.60
  -5  -2 -11  218.08   11.40
  -5  -2 -11  203.88   11.00
  -5  -2 -11  198.68   12.30
  -5  -2 -11  236.98   13.20
   5  -2  11  223.58   11.00
  -5   2 -11  217.88    8.70
   5   2  11  201.58   11.60
   5   2  11  202.08   12.40
  -5   2 -11  199.58    8.70
  -5   2 -11  251.87   15.90
   5   2  11  207.78   11.80
  -5   2 -11  209.58   10.90
   6  -2  11   22.50    5.70
   6  -2  11   14.50    4.50
   6  -2  11   14.70   10.90
  -6  -2 -11   17.90    4.30
  -6  -2 -11   29.80    7.00
  -6  -2 -11    7.90    5.50
  -6  -2 -11   23.60    7.80
   6  -2  11   24.70    6.00
   6  -2  11   32.10    5.80
  -6  -2 -11   29.40    7.60
   6   2  11   25.30    7.60
  -6   2 -11   31.20    6.30
  -6   2 -11   13.30    9.70
  -6   2 -11   24.80    4.10
   6   2  11   33.00    7.40
   6   2  11   26.30    6.30
  -6   2 -11   16.90    7.00
   7  -2  11   19.50    5.40
   7  -2  11   18.80    4.80
   7  -2  11    8.70    5.20
   7  -2  11   12.90    6.90
  -7  -2 -11    9.80    7.10
  -7  -2 -11   17.10    5.00
  -7  -2 -11    9.60    7.70
  -7  -2 -11    1.10    9.60
   7  -2  11   -1.80   10.30
   7   2  11   29.20   11.60
   7   2  11   18.90    7.50
   7   2  11   23.70    7.90
  -7   2 -11   -2.60    3.40
  -7   2 -11    4.20    4.30
  -7   2 -11    5.00    6.70
  -7   2 -11   -2.30    8.10
  -7   2 -11    5.80    6.00
   7   2  11    4.40    8.80
   6  -3 -11   -6.90    4.80
  -6  -3  11    6.60    6.30
  -6  -3  11   13.20    5.60
   6  -3 -11    5.80    2.70
   6  -3 -11    4.30    4.60
  -6  -3  11   11.60    5.10
   6  -3 -11    0.70    4.10
  -6  -3  11    5.70    5.60
   6   3 -11    2.60    4.60
  -6   3  11   11.40    5.50
   6   3 -11   13.00    7.20
  -6   3  11    4.50    9.50
   6   3 -11    9.00    4.80
  -6   3  11    1.50    4.70
   6   3 -11    1.60    7.10
   6   3 -11    1.40   12.00
  -5  -3  11   11.60    4.30
  -5  -3  11   16.30    4.90
  -5  -3  11   15.20    4.70
   5  -3 -11   13.50    5.00
   5  -3 -11   14.30    3.90
   5  -3 -11   16.70    4.70
  -5  -3  11   15.10    5.80
   5   3 -11    5.10    5.50
   5   3 -11   18.10    4.70
   5   3 -11    2.00   12.60
   5   3 -11   15.30    3.90
   5   3 -11   12.30    3.30
  -5   3  11    8.10    4.30
  -5   3  11    4.20    7.90
   5   3 -11    6.90    5.30
   4  -3 -11   10.70    3.50
   4  -3 -11    7.50    3.70
   4  -3 -11    5.20    3.40
  -4  -3  11    1.70    4.20
   4  -3 -11   10.60    3.70
  -4  -3  11    6.20    4.00
  -4  -3  11   12.00    4.00
  -4  -3  11   16.00    4.00
   4   3 -11   14.80    4.30
   4   3 -11    6.20    2.70
  -4   3  11   -0.10    3.40
   4   3 -11   10.10    2.40
   4   3 -11    4.40    4.20
   4   3 -11   12.80   11.90
  -4   3  11   11.90    3.70
  -4   3  11    6.20    6.90
   3  -3 -11  233.28   10.20
  -3  -3  11  232.58   10.50
  -3  -3  11  232.08   11.30
   3  -3 -11  238.38   10.10
  -3  -3  11  240.28    9.70
  -3  -3  11  247.88   11.00
   3  -3 -11  237.28    9.50
   3  -3 -11  234.68    9.90
   3   3 -11  249.38   11.30
  -3   3  11  243.38   13.60
  -3   3  11  241.58   10.30
   3   3 -11  249.78   11.00
   3   3 -11  237.18   10.90
  -3   3  11  237.08   10.10
  -2  -3  11    2.90    3.50
   2  -3 -11    6.90    2.70
  -2  -3  11    8.70    2.20
   2  -3 -11    2.80    3.40
   2  -3 -11    3.70    3.10
  -2  -3  11    9.20    3.30
  -2  -3  11    9.00    3.20
   2  -3 -11    5.10    2.70
   2   3 -11   18.20    4.30
   2   3 -11    9.30    3.70
  -2   3  11   17.60    5.50
   2   3 -11   14.20    3.90
   2   3 -11   16.00   13.00
  -2   3  11    5.20    3.60
  -2   3  11    2.90    3.10
  -2   3  11   10.30    4.70
  -1  -3  11   64.19    4.10
  -1  -3  11   75.79    5.80
   1  -3 -11   67.69    5.60
  -1  -3  11   66.39    5.20
  -1  -3  11   70.79    5.10
   1  -3 -11   67.99    4.90
   1  -3 -11   67.69    5.40
   1  -3 -11   64.19    5.00
   1   3 -11   58.79   13.50
  -1   3  11   70.99    5.50
  -1   3  11   69.49    5.50
  -1   3  11   75.29    6.50
   1   3 -11   76.69    6.00
   1   3 -11   81.19    6.40
   1   3 -11   69.39    5.80
   0  -3 -11   12.20    3.30
   0  -3 -11   13.20    3.10
   0  -3  11   16.30    3.60
   0  -3  11   12.80    3.30
   0  -3 -11   18.30    3.20
   0  -3  11    8.70    8.40
   0  -3  11   17.80    3.00
   0  -3 -11   19.40    2.50
   0  -3  11   15.20    2.90
   0   3  11    7.20    3.70
   0   3 -11   11.90    3.30
   0   3 -11   13.20   13.70
   0   3 -11   12.30    4.30
   0   3  11    9.20    4.90
   0   3  11   17.40    3.50
   1  -3  11   11.20    3.00
   1  -3  11    6.80    3.10
  -1  -3 -11   13.10    3.40
   1  -3  11   12.80    2.70
  -1  -3 -11   16.30    3.70
  -1  -3 -11   13.10    2.60
   1  -3  11   11.40    2.70
  -1  -3 -11   15.10    3.70
  -1   3 -11    9.60    3.30
  -1   3 -11   18.00   12.60
   1   3  11   14.40    3.90
   1   3  11   10.90    3.80
  -1   3 -11   13.70    3.90
   1   3  11   16.40    4.60
  -2  -3 -11    2.50    3.50
   2  -3  11    7.70    2.50
   2  -3  11    8.80    3.40
   2  -3  11    8.00    3.30
  -2  -3 -11    4.60    3.90
  -2  -3 -11    5.40    2.70
   2  -3  11    4.40    2.60
   2   3  11    0.40    3.80
  -2   3 -11    8.10   14.10
   2   3  11    3.20    1.80
   2   3  11   -0.40    4.10
   2   3  11    2.10    4.40
  -2   3 -11    1.00    3.60
  -2   3 -11    6.20    3.60
  -3  -3 -11   -0.80    3.80
   3  -3  11    4.90    4.20
   3  -3  11    3.20    3.10
  -3  -3 -11    1.70    4.50
  -3  -3 -11    7.50    4.00
   3  -3  11    7.50    3.60
   3  -3  11   14.30    3.80
  -3   3 -11   23.70   14.70
  -3   3 -11    3.80    3.80
   3   3  11    6.30    4.50
   3   3  11    6.90    5.30
   3   3  11    3.20    2.50
   3   3  11    0.90    2.90
  -3   3 -11    1.30    3.40
   4  -3  11    6.10    5.00
  -4  -3 -11    7.70    4.80
   4  -3  11   12.10    2.50
   4  -3  11    2.70    3.60
   4  -3  11    7.00    4.30
  -4  -3 -11    4.30    4.40
  -4  -3 -11    9.00    5.70
  -4  -3 -11    8.20    5.00
   4  -3  11    2.80    9.40
   4   3  11   10.00    5.80
  -4   3 -11   -3.30    3.90
  -4   3 -11    7.10   13.40
   4   3  11    2.70    5.30
   4   3  11    7.70    6.20
  -4   3 -11   10.50    4.80
   4   3  11    8.70    3.90
   4   3  11    9.90    3.80
  -5  -3 -11    7.10    5.90
   5  -3  11    8.40    9.60
   5  -3  11    2.50    4.70
  -5  -3 -11   -7.90    5.20
  -5  -3 -11   -0.60    6.20
   5  -3  11   -3.50    4.40
   5  -3  11    1.30    4.10
  -5  -3 -11    2.80    7.20
   5  -3  11    8.00    2.70
  -5   3 -11    1.40   14.20
   5   3  11   -2.20    5.30
   5   3  11    3.20    7.20
  -5   3 -11   -5.10    5.40
   5   3  11   -0.60    8.90
   5   3  11    2.80    5.00
   5   3  11   -1.70    7.30
  -5   3 -11   -1.10    4.40
   3  -4 -11   15.80    3.50
  -3  -4  11   10.60    4.60
   3  -4 -11   17.70    4.00
  -3  -4  11    9.60    4.20
  -3  -4  11   15.50    3.40
  -3  -4  11   19.20    4.70
   3   4 -11   20.60   12.70
   3   4 -11   21.10    5.70
   3   4 -11    4.80    4.10
   3   4 -11   26.90    6.00
  -3   4  11   11.60    2.80
  -2  -4  11   34.40    3.80
  -2  -4  11   43.10    5.70
  -2  -4  11   34.20    3.80
   2  -4 -11   32.60    4.00
  -2  -4  11   43.00    5.30
   2  -4 -11   39.10    4.30
   2   4 -11   43.80    6.10
  -2   4  11   23.60    9.30
  -2   4  11   35.00    4.40
   2   4 -11   37.50   14.30
  -1  -4  11    2.50    3.40
  -1  -4  11    2.60    3.80
   1  -4 -11    1.60    2.90
  -1  -4  11    7.50    9.80
   1  -4 -11    3.10    3.50
   1   4 -11    2.60    4.80
  -1   4  11    1.40    8.40
  -1   4  11    4.00    3.30
   1   4 -11    2.70    2.20
  -1   4  11    2.00    2.00
   1   4 -11    3.90   13.50
   1   4 -11    3.30    3.60
   0  -4  11   43.70    5.00
   0  -4 -11   44.30    5.00
   0  -4  11   28.00   11.90
   0  -4 -11   43.20    5.50
   0  -4  11   42.60    5.50
   0  -4 -11   39.30    3.60
   0   4  11   40.50    4.70
   0   4 -11   44.10    4.70
   0   4 -11   29.60   15.90
   0   4 -11   30.80    5.80
   0   4  11   39.20    9.30
  -1  -4 -11   58.69    5.90
   1  -4  11   65.69    5.30
  -1  -4 -11   65.19    7.00
   1  -4  11   58.49    5.50
  -1  -4 -11   58.09    7.20
  -1  -4 -11   54.99    5.40
   1  -4  11   53.09   11.40
  -1   4 -11   44.40   16.40
   1   4  11   63.19    9.90
   2  -4  11   10.90    3.20
   2  -4  11    0.40    9.40
  -2  -4 -11   -0.90    4.50
  -2  -4 -11   14.80    2.60
   2  -4  11    6.30    3.60
  -2  -4 -11    6.70    4.30
  -2  -4 -11   10.10    5.20
   2   4  11   11.80    8.90
  -2   4 -11   -6.60   14.50
   2   4  11   13.60    5.90
   2   4  11    6.80    4.10
   9   0 -12   -2.80    6.30
   9   0 -12   -6.50    6.00
  -9   0  12    6.30    7.20
  -9   0  12    0.10    6.40
  -9   0  12    5.00    9.00
   9   0 -12   -0.50    8.20
  -9   0  12   -2.80    6.20
  -8   0  12  395.76   18.90
  -8   0  12  427.86   19.20
   8   0 -12  425.56   19.00
  -8   0  12  423.66   19.50
  -8   0  12  424.66   18.90
   8   0 -12  457.85   20.00
   8   0 -12  373.36   19.00
   8   0 -12  434.76   19.50
  -7   0  12   11.70    5.50
   7   0 -12   -7.00    5.60
   7   0 -12    0.10    6.30
  -7   0  12    2.20    5.30
   7   0 -12   -3.60    4.90
  -7   0  12   -1.10    4.70
  -7   0  12   -3.00    5.90
  -6   0  12   84.29    8.30
   6   0 -12   88.99    8.80
  -6   0  12   83.39    7.70
  -6   0  12   72.89    8.30
   6   0 -12   88.59    8.40
   6   0 -12   78.19    7.60
  -6   0  12   93.79    7.90
  -5   0  12   -0.20    3.50
   5   0 -12   -1.60    3.70
  -5   0  12   -1.30    3.60
  -5   0  12   -2.10    3.90
   5   0 -12    0.30    4.30
   5   0 -12    1.70    4.50
  -5   0  12   -3.20    3.70
   5   0 -12   -5.80    3.10
  -4   0  12  420.16   16.00
  -4   0  12  417.46   16.40
   4   0 -12  429.16   16.10
  -4   0  12  435.76   15.90
   4   0 -12  442.16   16.00
   4   0 -12  416.76   15.80
  -4   0  12  435.06   16.20
   3   0 -12    0.50    2.70
   3   0 -12   -0.80    2.60
  -3   0  12    0.10    3.30
   3   0 -12    1.90    3.00
   3   0 -12    1.20    3.30
  -3   0  12    2.70    2.50
  -3   0  12   -0.10    2.80
  -3   0  12   -0.90    2.80
  -2   0  12  127.99    6.50
   2   0 -12  113.89    6.40
   2   0 -12  125.39    6.60
   2   0 -12  112.69    6.50
   2   0 -12  122.79    6.60
  -2   0  12  116.79    6.30
  -2   0  12  128.49    6.50
  -2   0  12  117.19    6.30
  -1   0  12    0.80    2.60
  -1   0  12    4.60    2.80
  -1   0  12    1.50    2.40
  -1   0  12    2.40    2.50
   1   0 -12    6.80    2.80
   1   0 -12    0.20    2.50
   1   0 -12   -0.40    2.90
   1   0 -12    3.50    2.60
   0   0  12  286.37   10.70
   0   0  12  266.87    9.30
   0   0 -12  270.77   10.90
   0   0  12  276.17   10.70
   0   0 -12  273.97   10.70
   0   0 -12  286.87   10.70
   0   0 -12  281.77   11.00
   0   0  12  270.07   10.80
   0   0  12  270.27   10.60
   1   0  12    0.40    2.40
  -1   0 -12    0.20    2.50
  -1   0 -12   -0.60    3.40
   1   0  12    0.30    3.00
  -1   0 -12    1.20    3.10
  -1   0 -12    0.20    2.70
   1   0  12    1.00    2.50
   1   0  12    1.30    3.20
  -2   0 -12  397.96   15.30
  -2   0 -12  414.36   15.20
   2   0  12  433.96   15.70
   2   0  12  422.66   15.50
  -2   0 -12  432.26   15.30
   2   0  12  410.06   15.30
  -2   0 -12  424.66   15.50
   2   0  12  400.76   14.90
   3   0  12   -3.20    3.30
   3   0  12   -1.50    2.80
  -3   0 -12    0.20    3.10
  -3   0 -12   -4.40    3.20
   3   0  12   -4.20    3.40
   3   0  12    3.80    2.90
  -3   0 -12   -0.20    3.20
  -3   0 -12    1.20    3.80
   3   0  12    0.80    3.00
   4   0  12  246.38   12.10
  -4   0 -12  242.48   11.60
   4   0  12  252.87   11.70
   4   0  12  240.78   11.40
  -4   0 -12  252.07   11.70
   4   0  12  260.67   11.40
  -4   0 -12  256.97   11.50
  -4   0 -12  266.57   11.80
   4   0  12  228.38   11.70
   5   0  12    6.30    4.10
   5   0  12   -8.70    5.00
   5   0  12   -1.50    4.50
   5   0  12   -3.20    4.10
  -5   0 -12   -3.70    4.20
  -5   0 -12    2.50    5.60
  -5   0 -12   -2.00    5.30
  -5   0 -12    5.00    4.60
  -5   0 -12   -3.90    6.10
  -6   0 -12   89.89    9.70
  -6   0 -12  108.69    9.70
   6   0  12  101.69    9.60
  -6   0 -12  121.09   11.10
   6   0  12   95.09    8.90
  -6   0 -12   86.69   10.60
   6   0  12   95.69   10.50
  -7   0 -12   -9.40    6.30
   7   0  12   -5.10    7.30
  -7   0 -12    4.50    7.50
  -7   0 -12   -4.30    7.90
   7   0  12    3.70    6.60
  -7   0 -12   -5.40    6.50
   7   0  12   -2.80    6.90
   7   0  12   -3.80    5.50
  -7   0 -12   -5.40    6.50
  -8  -1  12   56.39    9.00
   8  -1 -12   60.09    7.20
  -8  -1  12   52.29    8.50
  -8  -1  12   63.19    8.00
   8  -1 -12   63.69    7.70
   8  -1 -12   71.99    8.20
   8  -1 -12   55.79    7.90
  -8  -1  12   63.89    8.30
  -8   1  12   76.99   11.80
  -8   1  12   64.29    8.80
  -8   1  12   56.69    6.60
   8   1 -12   59.29    8.60
   8   1 -12   67.99    9.50
  -8   1  12   60.99    8.10
   8   1 -12   63.69    9.90
   8   1 -12   59.89    8.20
  -7  -1  12   18.10    6.20
  -7  -1  12   10.50    5.90
  -7  -1  12   21.40    7.20
   7  -1 -12   13.70    5.40
   7  -1 -12   14.60    5.30
   7  -1 -12   15.50    5.30
   7  -1 -12   23.90    4.90
   7   1 -12   16.60    5.90
  -7   1  12   20.70    8.30
  -7   1  12   17.00    5.30
   7   1 -12   15.00    6.70
   7   1 -12   16.40    6.90
  -7   1  12   28.30    5.30
  -7   1  12   14.10    6.50
  -6  -1  12  142.39   10.30
  -6  -1  12  127.89    9.70
   6  -1 -12  127.69    8.10
   6  -1 -12  140.09    9.20
   6  -1 -12  136.59    8.80
   6  -1 -12  141.29    8.40
  -6  -1  12  147.19    9.60
   6   1 -12  146.59   11.00
  -6   1  12  142.69    8.80
  -6   1  12  150.08    8.80
  -6   1  12  144.99    8.90
   6   1 -12  137.69    9.30
   6   1 -12  130.39   10.20
  -6   1  12  135.19   12.20
   6   1 -12  144.79    9.40
  -5  -1  12   56.39    7.10
   5  -1 -12   61.89    6.70
   5  -1 -12   61.39    6.10
  -5  -1  12   63.09    6.60
  -5  -1  12   62.69    7.10
   5  -1 -12   65.49    6.80
   5  -1 -12   47.80    6.40
  -5  -1  12   53.09    7.00
   5   1 -12   64.59    6.20
  -5   1  12   61.79    6.60
   5   1 -12   49.00    6.30
   5   1 -12   59.09    6.80
  -5   1  12   63.99    6.20
  -5   1  12   55.19    6.80
  -5   1  12   57.89    7.00
   5   1 -12   66.79    7.60
  -4  -1  12   69.29    6.40
  -4  -1  12   73.39    6.40
   4  -1 -12   73.79    5.10
   4  -1 -12   74.19    5.90
   4  -1 -12   58.99    5.40
  -4  -1  12   81.59    6.70
  -4  -1  12   73.49    6.90
   4  -1 -12   74.39    6.10
  -4   1  12   64.89    5.20
   4   1 -12   76.69    6.50
  -4   1  12   75.09    6.00
  -4   1  12   69.39    6.50
  -4   1  12   74.69    5.90
   4   1 -12   51.79    5.30
   4   1 -12   69.49    6.50
   4   1 -12   63.99    6.00
   3  -1 -12   20.50    3.20
  -3  -1  12   23.50    3.70
  -3  -1  12   15.70    3.40
   3  -1 -12   25.20    3.60
  -3  -1  12   16.90    3.60
   3  -1 -12   18.20    3.00
  -3  -1  12   26.80    4.20
   3  -1 -12   17.40    3.60
   3   1 -12   19.60    4.30
   3   1 -12   18.20    3.80
  -3   1  12   21.00    2.90
   3   1 -12   15.40    3.40
  -3   1  12   20.30    4.00
   3   1 -12   16.90    3.40
  -3   1  12   15.50    3.20
  -3   1  12   22.80    3.50
   2  -1 -12   22.80    3.20
   2  -1 -12   27.30    3.40
  -2  -1  12   29.40    3.60
   2  -1 -12   27.40    3.50
  -2  -1  12   25.90    3.60
  -2  -1  12   23.50    3.40
  -2  -1  12   21.10    3.40
   2  -1 -12   25.00    3.40
   2   1 -12   20.90    3.40
  -2   1  12   25.50    3.10
  -2   1  12   33.20    3.90
   2   1 -12   21.50    3.40
   2   1 -12   26.20    4.30
  -2   1  12   22.40    3.70
  -2   1  12   24.40    3.50
   2   1 -12   26.00    3.30
   1  -1 -12   97.69    5.50
   1  -1 -12   92.09    5.40
  -1  -1  12   93.99    5.60
  -1  -1  12   85.69    5.80
  -1  -1  12   96.79    5.60
   1  -1 -12   99.49    5.90
  -1  -1  12   89.99    5.40
   1  -1 -12   96.89    5.30
   1   1 -12   96.69    5.70
  -1   1  12   92.89    5.50
   1   1 -12   82.89    5.40
  -1   1  12   89.69    5.60
   1   1 -12   91.29    5.70
   1   1 -12  102.69    5.40
  -1   1  12   92.29    5.80
  -1   1  12   95.39    5.20
  -1   1  12   98.19    5.30
   0  -1  12  842.62   26.70
   0  -1  12  849.91   27.00
   0  -1  12  860.41   26.90
   0  -1 -12  774.22   26.70
   0  -1 -12  795.22   26.90
   0  -1 -12  795.12   26.90
   0  -1  12  779.92   26.70
   0  -1 -12  822.82   26.80
   0   1  12  819.32   26.70
   0   1 -12  815.42   26.60
   0   1 -12  784.52   26.80
   0   1 -12  828.52   26.50
   0   1  12  801.82   27.00
   0   1 -12  797.02   27.00
   0   1  12  791.12   27.10
   0   1  12  786.72   26.60
   0   1  12  802.12   26.60
  -1  -1 -12   72.99    5.30
  -1  -1 -12   71.09    5.30
  -1  -1 -12   76.99    5.50
   1  -1  12   73.39    5.10
   1  -1  12   67.89    4.80
   1  -1  12   67.99    5.00
   1  -1  12   67.69    5.10
  -1  -1 -12   70.19    5.40
   1   1  12   74.39    5.60
  -1   1 -12   72.99    5.00
   1   1  12   73.59    5.20
  -1   1 -12   70.09    4.80
   1   1  12   84.49    6.10
  -1   1 -12   73.69    5.20
   1   1  12   73.59    5.20
  -1   1 -12   70.79    5.30
   1   1  12   75.39    5.20
   2  -1  12   88.59    5.60
   2  -1  12   82.19    5.70
   2  -1  12   85.99    5.10
  -2  -1 -12   90.39    5.90
  -2  -1 -12   89.59    6.10
   2  -1  12   78.69    7.50
   2  -1  12   81.49    5.50
  -2  -1 -12   81.69    5.90
  -2  -1 -12   78.09    6.40
  -2   1 -12   90.49    5.80
   2   1  12   87.69    5.90
   2   1  12   83.29    6.10
   2   1  12   77.99    6.20
  -2   1 -12   87.09    5.40
  -2   1 -12   86.29    5.70
  -2   1 -12   83.19    5.90
   2   1  12   84.69    6.20
  -3  -1 -12   46.20    5.90
  -3  -1 -12   49.80    5.10
  -3  -1 -12   51.09    6.50
   3  -1  12   48.60    5.80
   3  -1  12   50.09    6.40
   3  -1  12   49.00    5.20
  -3  -1 -12   42.10    5.50
   3  -1  12   44.10    4.90
   3   1  12   46.90    5.50
  -3   1 -12   48.00    5.50
   3   1  12   51.39    5.40
   3   1  12   47.40    6.20
  -3   1 -12   46.90    5.10
   3   1  12   64.19    7.00
  -3   1 -12   42.00    5.00
  -3   1 -12   41.70    5.10
  -4  -1 -12    5.80    5.10
   4  -1  12   -1.80    5.40
   4  -1  12    9.10    4.10
  -4  -1 -12    6.90    4.10
   4  -1  12   -1.40    3.90
  -4  -1 -12   -2.20    4.00
  -4  -1 -12    1.90    4.20
   4  -1  12   -7.00    3.90
   4  -1  12    3.80    3.50
   4   1  12    0.40    4.10
   4   1  12    4.20    3.80
  -4   1 -12    3.50    3.60
  -4   1 -12    0.00    3.90
   4   1  12    0.40    4.70
   4   1  12   -0.20    4.70
  -4   1 -12    2.60    3.40
  -4   1 -12    0.80    4.40
   5  -1  12  294.57   13.20
   5  -1  12  298.37   13.40
  -5  -1 -12  303.97   14.50
  -5  -1 -12  288.07   12.70
   5  -1  12  322.67   15.40
  -5  -1 -12  302.07   13.80
  -5  -1 -12  306.87   13.90
   5  -1  12  311.47   12.90
   5  -1  12  287.37   12.70
  -5   1 -12  243.48   14.80
   5   1  12  276.97   13.60
  -5   1 -12  298.97   13.80
   5   1  12  294.07   15.00
  -5   1 -12  270.97   12.80
  -5   1 -12  273.47   12.70
   5   1  12  300.67   13.80
   5   1  12  296.97   14.00
   6  -1  12    2.80    8.70
  -6  -1 -12   12.60    5.30
  -6  -1 -12    2.10    6.40
   6  -1  12    5.70    5.30
   6  -1  12   -2.90    4.80
   6  -1  12    3.70    5.00
  -6  -1 -12   14.50    6.60
   6  -1  12    8.40    4.00
  -6  -1 -12   -4.00    5.20
  -6   1 -12   13.20    7.30
   6   1  12    4.70    6.90
   6   1  12   11.90    5.90
   6   1  12    0.10    5.90
  -6   1 -12    2.70    7.20
   6   1  12    1.60    6.30
  -6   1 -12    3.10    5.10
  -6   1 -12    9.40    5.30
  -6   1 -12   -3.00    6.00
   7  -1  12    1.40    5.90
  -7  -1 -12    4.80    6.20
  -7  -1 -12   -4.40    8.10
  -7  -1 -12   -1.10    6.90
   7  -1  12    1.00    6.20
  -7  -1 -12    0.00    7.30
   7  -1  12   -2.50    5.40
   7  -1  12   -2.30    6.10
  -7  -1 -12    6.00    8.00
   7   1  12    0.90    7.90
   7   1  12   -0.60    7.60
  -7   1 -12   -0.40    5.40
  -7   1 -12    8.10    9.00
  -7   1 -12    5.00    8.00
   7   1  12    2.80    7.40
   7   1  12   -2.20    7.00
  -7   1 -12    5.70    7.10
   8  -2 -12   17.80    5.10
  -8  -2  12   29.70    8.90
  -8  -2  12    8.40    7.10
   8  -2 -12    5.30    5.60
  -8  -2  12    7.60    6.90
  -8  -2  12    7.30    6.20
   8  -2 -12   17.50    7.30
   8  -2 -12   16.40    5.80
  -8   2  12   11.50    8.20
   8   2 -12   36.00   11.20
  -8   2  12    4.30    5.90
  -8   2  12   18.70    9.40
   8   2 -12   14.90    7.80
   8   2 -12   18.70    7.70
  -8   2  12    6.10    5.20
   8   2 -12   18.90    9.00
   7  -2 -12    1.80    4.80
  -7  -2  12    7.80    6.60
   7  -2 -12    2.20    4.50
   7  -2 -12    6.60    5.00
  -7  -2  12   -1.60    6.90
  -7  -2  12   -7.80    6.30
  -7  -2  12   -1.80    4.90
   7  -2 -12    4.50    5.80
  -7   2  12    4.70    5.80
  -7   2  12    5.10    6.70
   7   2 -12    2.40    7.40
   7   2 -12    9.10   13.70
  -7   2  12    4.90    3.80
   7   2 -12   -1.60    5.50
  -7   2  12    2.60    3.20
  -7   2  12    8.80    8.90
   7   2 -12    2.80    6.50
  -6  -2  12   18.70    6.10
  -6  -2  12   10.00    4.30
   6  -2 -12   21.00    4.00
   6  -2 -12   19.40    4.60
   6  -2 -12   14.30    4.10
  -6  -2  12   14.80    5.60
   6  -2 -12   18.50    5.20
  -6  -2  12   10.90    5.20
  -6   2  12   13.50    7.80
   6   2 -12   17.10    6.20
  -6   2  12   14.10    3.00
  -6   2  12   14.90    5.00
  -6   2  12   12.50    3.30
   6   2 -12   14.70    5.00
   6   2 -12   22.10    5.10
   6   2 -12   21.60   15.40
   5  -2 -12  154.78    9.10
  -5  -2  12  165.98   10.10
   5  -2 -12  147.59    8.10
  -5  -2  12  158.38    9.70
  -5  -2  12  179.28    9.20
   5  -2 -12  171.48    8.00
  -5  -2  12  175.18    9.50
   5  -2 -12  156.28    9.20
  -5   2  12  158.38    9.20
   5   2 -12  145.99    9.70
  -5   2  12  165.48    7.40
  -5   2  12  158.58    9.10
   5   2 -12  140.89    9.50
  -5   2  12  165.88   12.40
  -5   2  12  163.68    6.70
   5   2 -12  163.98    9.60
   4  -2 -12  355.46   13.70
  -4  -2  12  370.96   14.70
  -4  -2  12  358.56   14.40
  -4  -2  12  308.47   14.30
  -4  -2  12  342.17   14.40
   4  -2 -12  377.96   13.40
   4  -2 -12  330.27   13.80
   4  -2 -12  366.46   13.80
  -4   2  12  348.27   12.20
   4   2 -12  344.77   14.20
   4   2 -12  380.76   22.10
  -4   2  12  351.76   16.30
   4   2 -12  351.16   14.00
   4   2 -12  366.76   14.90
  -4   2  12  357.16   14.20
   4   2 -12  369.36   13.80
  -4   2  12  361.36   12.50
  -4   2  12  363.56   14.10
  -3  -2  12    5.00    3.70
  -3  -2  12    9.00    3.30
   3  -2 -12    3.10    2.60
   3  -2 -12    9.80    2.80
   3  -2 -12    9.70    2.80
  -3  -2  12    6.90    3.30
   3  -2 -12    5.60    2.40
  -3  -2  12    4.80    3.00
   3   2 -12    8.60    4.20
  -3   2  12    6.00    3.20
  -3   2  12    6.70    4.40
  -3   2  12    6.60    2.20
  -3   2  12    6.10    3.30
   3   2 -12    7.10    3.20
   3   2 -12    5.20    3.70
   3   2 -12    3.40    2.70
   2  -2 -12   22.70    3.30
   2  -2 -12   16.30    3.00
  -2  -2  12   11.90    3.30
  -2  -2  12   17.40    2.90
  -2  -2  12   22.20    3.60
   2  -2 -12   19.70    3.30
  -2  -2  12   12.20    2.90
   2  -2 -12   17.80    2.60
   2   2 -12   12.70    3.50
  -2   2  12   16.10    2.10
  -2   2  12   15.30    2.40
  -2   2  12   12.50    4.00
  -2   2  12   21.10    3.40
   2   2 -12   25.40    3.10
   2   2 -12   22.60    2.70
  -2   2  12   19.40    3.40
  -2   2  12   11.70    4.40
   2   2 -12   21.80    3.20
   1  -2 -12   33.30    3.70
   1  -2 -12   31.60    4.10
   1  -2 -12   35.20    4.10
  -1  -2  12   36.80    4.30
   1  -2 -12   35.20    4.10
  -1  -2  12   25.30    3.40
  -1  -2  12   31.00    4.10
  -1  -2  12   36.50    4.30
   1   2 -12   36.50    4.80
   1   2 -12   30.00    3.70
   1   2 -12   27.40    3.00
   1   2 -12   31.80    3.80
  -1   2  12   31.10    3.00
  -1   2  12   32.20    3.60
  -1   2  12   32.00    3.90
   1   2 -12   32.50    4.20
  -1   2  12   35.20    4.00
  -1   2  12   32.30    4.60
  -1   2  12   34.50    4.80
   0  -2  12  145.39    6.80
   0  -2 -12  148.99    7.10
   0  -2  12  153.68    6.60
   0  -2 -12  142.79    6.70
   0  -2 -12  145.89    7.20
   0  -2  12  147.19    7.00
   0  -2 -12  148.89    7.00
   0  -2  12  147.89    7.00
   0   2 -12  153.48    7.30
   0   2  12  153.68    6.40
   0   2  12  147.19    7.90
   0   2 -12  152.98    7.30
   0   2 -12  148.79    6.10
   0   2 -12  127.39   12.50
   0   2  12  153.08    7.60
   0   2  12  153.08    6.60
   0   2 -12  156.48    5.80
   0   2  12  139.59    7.40
   1  -2  12  132.39    6.50
  -1  -2 -12  124.49    6.90
   1  -2  12  127.09    6.00
   1  -2  12  130.69    6.40
   1  -2  12  119.89    6.50
  -1  -2 -12  126.79    6.90
  -1  -2 -12  123.39    6.60
  -1  -2 -12  128.19    7.10
   1  -2  12  107.09   10.10
   1   2  12  123.89    7.20
  -1   2 -12  126.59    5.10
  -1   2 -12  136.79    7.10
  -1   2 -12  144.39    7.00
  -1   2 -12  127.99    5.50
  -1   2 -12  124.99   13.00
   1   2  12  137.79    7.30
   1   2  12  122.99    6.50
   1   2  12  129.59    7.50
   1   2  12  134.99    6.40
  -2  -2 -12  478.15   17.20
   2  -2  12  447.66   16.30
   2  -2  12  479.95   16.70
   2  -2  12  454.75   20.00
  -2  -2 -12  400.86   17.10
   2  -2  12  468.15   16.60
  -2  -2 -12  456.45   17.20
  -2  -2 -12  456.15   17.20
   2  -2  12  469.05   16.60
   2   2  12  484.55   16.80
   2   2  12  472.75   17.50
   2   2  12  453.05   17.50
   2   2  12  491.85   16.80
  -2   2 -12  468.65   15.30
  -2   2 -12  444.76   16.80
  -2   2 -12  468.75   15.40
  -2   2 -12  447.16   16.80
  -2   2 -12  516.45   23.10
   2   2  12  475.55   17.50
   3  -2  12   44.60    4.50
  -3  -2 -12   32.70    5.00
  -3  -2 -12   38.90    5.40
   3  -2  12   47.20    4.40
  -3  -2 -12   44.80    5.50
   3  -2  12   35.40    4.30
   3  -2  12   42.50    5.30
   3  -2  12   48.40    8.30
  -3  -2 -12   39.40    5.00
  -3   2 -12   54.79   11.10
  -3   2 -12   37.90    3.30
   3   2  12   38.10    4.70
   3   2  12   40.00    4.70
  -3   2 -12   29.60    4.70
   3   2  12   35.40    5.30
   3   2  12   35.60    5.50
  -3   2 -12   39.50    3.90
   3   2  12   38.80    5.50
  -3   2 -12   46.60    5.30
   4  -2  12    7.40    7.00
   4  -2  12    1.40    2.80
  -4  -2 -12   -0.20    4.60
   4  -2  12    4.90    3.00
   4  -2  12    1.20    4.10
   4  -2  12    2.30    3.60
  -4  -2 -12   -0.70    4.20
  -4  -2 -12    2.80    5.00
  -4   2 -12   -0.10    4.30
  -4   2 -12    6.60    4.70
   4   2  12    1.40    4.50
  -4   2 -12    4.10    9.30
  -4   2 -12   -0.10    2.50
   4   2  12   -3.00    5.10
   4   2  12    4.40    4.60
  -5  -2 -12   73.19    9.60
   5  -2  12   83.69    8.20
  -5  -2 -12   62.29    7.90
  -5  -2 -12   73.89    7.70
   5  -2  12   64.09    6.60
   5  -2  12   78.29    7.60
   5  -2  12   54.49    5.90
  -5   2 -12   67.89    5.10
  -5   2 -12   74.89    8.10
   5   2  12   72.79    8.80
   5   2  12   56.69    6.70
   5   2  12   78.69   10.40
  -5   2 -12   67.09    5.40
   6  -2  12    1.20    4.90
  -6  -2 -12    0.20    6.60
  -6  -2 -12   -2.60    6.30
  -6  -2 -12   -0.10    7.20
   6  -2  12    1.70    5.00
   6  -2  12    3.30   10.60
  -6  -2 -12    1.50    3.90
   6  -2  12   -2.50    4.40
   6  -2  12    5.20    5.30
   6   2  12    0.20    6.30
  -6   2 -12    9.80    6.10
   6   2  12   -1.20    7.20
  -6   2 -12    9.40    7.00
   6   2  12    3.00    6.80
  -6   2 -12   -3.70    8.70
   6   2  12    3.20    6.30
  -6   2 -12    3.40    3.90
  -6  -3  12    2.50    5.50
  -6  -3  12    8.40    5.40
  -6  -3  12    2.70    6.60
  -6  -3  12    5.60    5.90
   6  -3 -12   -1.20    4.60
   6  -3 -12    4.90    4.10
   6  -3 -12    9.90    5.10
  -6   3  12   -0.40    4.60
   6   3 -12   -1.60    4.90
   6   3 -12   -9.40    6.50
   6   3 -12    1.30    7.20
   6   3 -12    4.40   12.70
   6   3 -12    3.60    4.40
  -6   3  12   -0.60    9.40
  -6   3  12    7.80    6.00
   5  -3 -12    7.10    3.90
   5  -3 -12    6.80    4.60
   5  -3 -12    8.00    2.50
  -5  -3  12    0.20    5.40
  -5  -3  12    6.60    4.70
  -5  -3  12    3.40    4.40
  -5  -3  12    0.90    4.40
   5  -3 -12    0.50    4.00
   5   3 -12    9.80   12.30
   5   3 -12    9.50    3.60
   5   3 -12    2.60    5.50
   5   3 -12    4.50    3.40
   5   3 -12   -3.40    4.30
  -5   3  12    4.30    4.00
  -5   3  12    9.00    7.90
   4  -3 -12   17.50    3.80
   4  -3 -12   18.80    4.30
  -4  -3  12   19.70    4.50
  -4  -3  12    7.60    4.40
  -4  -3  12   23.00    5.00
  -4  -3  12    7.80    3.70
   4  -3 -12   15.10    2.40
   4  -3 -12   20.20    3.90
   4   3 -12   13.90    2.70
  -4   3  12   18.40    4.40
   4   3 -12   37.40   13.00
  -4   3  12   10.20    7.10
   4   3 -12   15.50    5.00
   4   3 -12   16.20    3.20
   4   3 -12   13.20    4.40
  -3  -3  12    7.40    2.40
   3  -3 -12    3.60    3.30
   3  -3 -12   11.80    3.50
  -3  -3  12   10.70    4.00
   3  -3 -12   11.10    3.10
   3  -3 -12   -0.40    2.80
  -3  -3  12   -0.20    4.20
  -3  -3  12    0.80    3.60
   3   3 -12    3.30    4.50
  -3   3  12    5.20    3.50
  -3   3  12   10.90    6.50
   3   3 -12    8.20    4.50
  -3   3  12    0.70    3.60
   3   3 -12   25.20   12.60
   3   3 -12    6.40    4.10
  -2  -3  12   71.09    6.40
  -2  -3  12   65.59    5.80
  -2  -3  12   72.69    6.20
   2  -3 -12   61.89    5.80
   2  -3 -12   64.09    5.30
   2  -3 -12   58.89    5.10
  -2  -3  12   71.69    4.60
  -2   3  12   76.69    7.40
   2   3 -12   72.19    6.40
  -2   3  12   74.39    5.90
  -2   3  12   66.99    7.90
   2   3 -12   80.69   15.40
   2   3 -12   68.99    6.10
  -2   3  12   66.99    5.90
   2   3 -12   72.79    6.50
   1  -3 -12   19.90    3.40
   1  -3 -12   19.40    2.50
  -1  -3  12   18.70    3.70
  -1  -3  12   13.80    3.30
  -1  -3  12   17.30    2.40
  -1  -3  12   21.20    3.60
   1  -3 -12   22.50    3.20
   1  -3 -12   23.30    3.80
  -1   3  12   18.50    3.80
   1   3 -12   19.50    4.10
   1   3 -12   20.70    4.50
   1   3 -12   16.20   13.30
  -1   3  12   14.30    4.20
   1   3 -12   10.00    3.60
  -1   3  12   18.80    3.50
   0  -3  12   44.80    4.50
   0  -3 -12   38.30    3.80
   0  -3  12   44.70    4.70
   0  -3  12   38.30    4.60
   0  -3 -12   44.80    5.30
   0  -3 -12   40.90    5.00
   0  -3 -12   49.90    5.70
   0  -3  12   51.19    4.40
   0   3  12   48.90    5.40
   0   3  12   52.89    5.70
   0   3 -12   43.80    5.60
   0   3  12   44.30    5.70
   0   3 -12   57.39    5.40
   0   3 -12   45.30   13.70
   1  -3  12   41.10    4.50
   1  -3  12   38.20    4.50
   1  -3  12   37.40    4.50
  -1  -3 -12   37.00    4.80
   1  -3  12   40.00    5.20
  -1  -3 -12   48.60    5.20
  -1  -3 -12   38.00    3.90
  -1  -3 -12   38.90    4.70
   1   3  12   45.80    6.00
   1   3  12   47.70    6.40
  -1   3 -12   48.40   14.70
  -1   3 -12   38.80    4.50
  -1   3 -12   40.70    4.60
   1   3  12   39.80    4.90
  -2  -3 -12  204.58   10.10
  -2  -3 -12  220.18    9.50
   2  -3  12  217.08    9.20
   2  -3  12  209.18    9.70
  -2  -3 -12  216.78   10.50
   2  -3  12  237.38    9.30
   2  -3  12  211.38   10.00
  -2  -3 -12  214.98   10.80
  -2   3 -12  214.18    9.70
   2   3  12  207.38   11.10
   2   3  12  195.78   11.30
   2   3  12  217.38   10.40
   2   3  12  220.38    7.80
   2   3  12  211.68    8.10
  -2   3 -12  226.28   20.80
  -2   3 -12  220.28    9.80
  -3  -3 -12    4.70    4.00
   3  -3  12    9.60    4.00
  -3  -3 -12    3.80    4.20
  -3  -3 -12    5.90    5.10
   3  -3  12   -2.20    3.10
   3  -3  12    5.60    3.50
   3  -3  12    4.30    2.60
   3   3  12    5.10    4.40
   3   3  12    1.30    3.00
   3   3  12    4.40    3.00
   3   3  12    7.70    5.50
  -3   3 -12    2.60    4.20
  -3   3 -12    1.30   14.40
  -3   3 -12    0.50    3.30
   4  -3  12   31.80   10.50
  -4  -3 -12   29.50    6.30
   4  -3  12   47.50    3.60
   4  -3  12   39.90    5.30
   4  -3  12   34.80    5.40
  -4  -3 -12   39.00    6.10
   4  -3  12   26.50    4.50
  -4  -3 -12   22.00    5.50
   4   3  12   38.10    5.00
   4   3  12   39.00    5.00
   4   3  12   31.20    7.10
   4   3  12   32.90    6.50
   4   3  12   35.80    7.40
  -4   3 -12   27.60   15.00
   5  -3  12    5.90    4.60
  -5  -3 -12    3.90    6.90
  -5  -3 -12   17.10    5.40
   5  -3  12    0.70    4.50
   5  -3  12    7.90    8.40
   5  -3  12   -7.70    5.00
  -5  -3 -12   -0.60    6.70
   5   3  12   -0.20    8.40
  -5   3 -12   -6.30    4.40
  -5   3 -12  -10.10   13.70
   5   3  12    6.70    7.20
   5   3  12    4.60    5.40
   5   3  12    0.00    5.60
   5   3  12   -2.00    5.20
  -5   3 -12   -0.60    6.10
  -3  -4  12  171.08   10.60
   3  -4 -12  187.78    9.40
  -3  -4  12  176.78    9.20
   3  -4 -12  174.78    8.60
  -3  -4  12  179.78   10.30
  -3  -4  12  173.78    7.20
   3   4 -12  151.98   19.40
  -3   4  12  178.78    8.00
   3   4 -12  189.38   10.50
   3   4 -12  170.78   11.30
   2  -4 -12   43.90    4.70
   2  -4 -12   36.30    4.10
  -2  -4  12   33.80    3.90
  -2  -4  12   33.00    5.60
  -2  -4  12   36.20    4.00
  -2  -4  12   38.90    4.90
  -2   4  12   31.30    9.50
   2   4 -12   41.90    6.10
  -2   4  12   38.00    4.00
   2   4 -12   19.00   14.90
  -1  -4  12    8.30   11.60
  -1  -4  12   -0.40    2.10
   1  -4 -12    3.10    3.30
   1  -4 -12   -1.30    3.80
  -1  -4  12   -1.80    2.30
  -1  -4  12   -2.80    3.60
  -1  -4  12    3.10    4.40
   1   4 -12    9.20   15.60
   1   4 -12   -1.60    4.70
  -1   4  12   -0.30    8.40
  -1   4  12    1.60    3.60
   1   4 -12    0.40    3.90
  -1   4  12    7.90    2.20
   0  -4 -12   37.20    4.70
   0  -4  12   30.00    4.20
   0  -4 -12   34.00    4.90
   0  -4 -12   42.90    4.40
   0  -4 -12   36.10    4.50
   0  -4  12   36.90    4.20
   0  -4  12   18.50   11.50
   0   4  12   23.40    9.00
   0   4 -12   39.70    4.10
   0   4  12   19.80    4.50
   0   4 -12   23.50   14.70
   1  -4  12    7.70    9.20
  -1  -4 -12   15.80    4.50
  -1  -4 -12    8.20    4.50
   1  -4  12    8.30    3.60
  -1  -4 -12   13.00    4.00
   1  -4  12   10.60    3.20
  -1  -4 -12    5.10    3.80
   1   4  12   10.30    8.20
  -1   4 -12   10.60    1.90
  -1   4 -12    3.00   14.40
  -1   4 -12    8.80    3.30
   1   4  12    3.00    3.80
  -2  -4 -12    1.80    4.40
  -2  -4 -12   -6.40    4.80
  -2  -4 -12   11.90    5.00
   2  -4  12   -3.70    3.70
   2  -4  12    7.30    3.40
  -2   4 -12  -14.60   14.90
  -2   4 -12    1.00    2.90
   2   4  12   -4.00    4.40
   2   4  12   16.40    6.30
   2   4  12   -1.30    8.60
   8   0 -13   -1.10    6.20
  -8   0  13   15.90    8.00
  -8   0  13    5.60    6.40
  -8   0  13    0.50    6.10
   8   0 -13   -2.90    6.80
   8   0 -13    8.00    6.80
   8   0 -13   -2.00    6.20
  -8   0  13    0.30    6.20
   7   0 -13   78.69    8.80
  -7   0  13   77.49    9.50
   7   0 -13   74.09    9.80
  -7   0  13   79.59    8.70
   7   0 -13   77.79    9.10
  -7   0  13   71.09    7.90
  -6   0  13   -1.40    4.90
   6   0 -13    1.80    4.00
  -6   0  13   -5.20    4.50
   6   0 -13   -1.60    5.30
  -6   0  13    0.30    4.10
   6   0 -13    1.40    4.70
   6   0 -13    0.50    4.60
  -6   0  13    5.80    5.90
  -5   0  13  312.97   13.50
   5   0 -13  297.17   13.80
   5   0 -13  345.07   13.40
   5   0 -13  296.47   14.00
  -5   0  13  298.47   13.20
   5   0 -13  327.57   13.20
  -5   0  13  307.27   13.60
  -5   0  13  320.77   14.10
   4   0 -13    3.20    3.70
   4   0 -13   -3.20    3.50
  -4   0  13    1.00    2.90
  -4   0  13   -2.10    3.80
  -4   0  13   -0.60    3.70
  -4   0  13   -3.20    3.30
   4   0 -13   -3.00    3.10
   4   0 -13   -0.10    3.00
  -3   0  13 1315.37   43.90
   3   0 -13 1371.76   43.90
   3   0 -13 1372.06   43.70
  -3   0  13 1332.77   43.80
   3   0 -13 1351.16   43.80
   3   0 -13 1296.37   43.60
  -3   0  13 1335.27   43.60
  -3   0  13 1388.96   43.70
  -2   0  13    0.60    2.80
   2   0 -13    0.80    2.60
   2   0 -13   -1.70    3.50
   2   0 -13   -0.20    2.40
  -2   0  13    2.70    2.70
  -2   0  13   -3.10    2.80
  -2   0  13   -0.90    2.40
   2   0 -13    0.20    2.90
  -1   0  13  956.70   32.10
   1   0 -13  922.21   31.90
  -1   0  13  962.30   31.90
   1   0 -13  979.50   32.00
  -1   0  13  992.10   31.90
   1   0 -13  975.70   31.80
   1   0 -13  989.10   31.90
  -1   0  13  984.00   31.80
   0   0  13    1.30    2.30
   0   0  13    2.50    2.70
   0   0 -13    2.70    2.90
   0   0 -13   -1.10    2.60
   0   0 -13    2.00    3.10
   0   0 -13    3.50    2.60
   0   0  13    5.20    3.20
   0   0  13    4.60    2.70
   0   0  13    2.20    1.60
  -1   0 -13   19.00    3.80
   1   0  13   19.00    3.60
  -1   0 -13   18.20    3.70
   1   0  13   14.30    3.00
   1   0  13   22.40    3.40
   1   0  13   20.80    3.80
  -1   0 -13   16.10    3.20
  -1   0 -13   19.00    3.10
  -2   0 -13    1.70    2.60
   2   0  13    1.90    3.00
  -2   0 -13    1.70    3.90
   2   0  13    1.30    2.90
  -2   0 -13    4.20    3.10
   2   0  13   -3.30    3.00
   2   0  13    2.10    3.10
  -2   0 -13    4.70    3.60
  -3   0 -13    9.50    3.90
  -3   0 -13    8.20    4.00
   3   0  13   10.60    3.80
  -3   0 -13    7.60    4.50
   3   0  13    5.50    3.10
   3   0  13    7.30    3.00
  -3   0 -13    0.50    3.30
   3   0  13   10.20    3.40
   3   0  13    8.30    4.10
  -4   0 -13   -2.50    5.10
   4   0  13   -2.50    4.30
  -4   0 -13    4.10    4.10
  -4   0 -13    0.80    4.20
  -4   0 -13   -0.70    4.30
   4   0  13   -2.10    3.90
   4   0  13    2.80    3.90
   4   0  13    2.90    4.20
   4   0  13    4.50    4.30
  -5   0 -13   65.09    8.20
   5   0  13   62.19    7.00
   5   0  13   57.99    6.70
   5   0  13   58.09    6.80
  -5   0 -13   58.89    7.30
  -5   0 -13   62.49    7.00
  -5   0 -13   66.69    8.20
  -5   0 -13   64.59    7.60
   6   0  13    5.80    6.00
  -6   0 -13    0.70    6.10
   6   0  13   -0.80    5.00
  -6   0 -13    7.10    7.20
  -6   0 -13    0.10    5.30
  -6   0 -13   -4.00    6.30
   6   0  13    8.20    5.70
  -7   0 -13   44.60    8.50
  -7   0 -13   24.20    8.30
   7   0  13   38.20    7.70
   7   0  13   43.00    8.10
   7   0  13   28.30    7.90
  -7   0 -13   25.60    7.60
  -7   0 -13   34.40    7.60
  -7   0 -13   18.90    8.30
  -8  -1  13    7.30    6.20
   8  -1 -13   -5.00    5.70
   8  -1 -13    7.00    6.60
  -8  -1  13   -2.50    7.70
   8  -1 -13   -2.40    5.10
  -8  -1  13    8.70    6.70
  -8  -1  13   -4.10    7.80
   8  -1 -13   -8.20    5.20
  -8   1  13    4.40    5.40
  -8   1  13   19.30    6.30
  -8   1  13    2.90    9.70
  -8   1  13   -4.30    7.20
   8   1 -13    2.90    7.60
   8   1 -13    9.30    7.50
   8   1 -13    6.80    7.00
   8   1 -13   -6.90    6.90
   8   1 -13    9.50    7.10
   7  -1 -13    4.20    5.00
   7  -1 -13   -8.10    4.60
   7  -1 -13    0.40    4.20
  -7  -1  13    2.10    6.20
  -7  -1  13    2.50    6.50
   7  -1 -13   -5.30    4.60
  -7  -1  13   17.90    6.20
   7   1 -13    6.60    5.90
  -7   1  13    2.60    5.00
   7   1 -13    2.40    6.20
  -7   1  13   -2.00    4.80
  -7   1  13    2.30    8.20
   7   1 -13    1.10    6.00
  -7   1  13  -12.70    6.20
  -6  -1  13   17.30    5.00
   6  -1 -13   20.00    4.50
   6  -1 -13   20.50    4.50
  -6  -1  13   23.30    6.20
  -6  -1  13   21.20    5.50
   6  -1 -13   18.60    4.60
   6  -1 -13   26.30    5.10
   6   1 -13   30.50    5.80
  -6   1  13   21.20    4.90
   6   1 -13   14.20    4.80
  -6   1  13   24.90    5.00
   6   1 -13   20.20    5.90
  -6   1  13   20.40    5.40
   6   1 -13   15.50    6.60
  -5  -1  13   70.39    7.50
  -5  -1  13   80.49    7.70
   5  -1 -13   66.49    7.40
   5  -1 -13   81.19    7.50
   5  -1 -13   81.29    7.40
   5  -1 -13   87.89    7.00
  -5  -1  13   89.59    8.10
  -5  -1  13   85.29    7.60
  -5   1  13   83.69    7.70
   5   1 -13   81.79    6.80
  -5   1  13   81.99    6.50
   5   1 -13   84.69    8.00
   5   1 -13   80.99    8.10
  -5   1  13   81.39    6.90
   5   1 -13   85.79    7.50
  -5   1  13   82.99    7.60
  -4  -1  13   22.60    4.50
   4  -1 -13   30.00    4.80
   4  -1 -13   27.60    3.90
  -4  -1  13   37.20    4.70
   4  -1 -13   38.10    4.30
  -4  -1  13   31.50    5.00
  -4  -1  13   40.00    5.00
   4  -1 -13   32.30    4.30
  -4   1  13   33.40    4.30
  -4   1  13   30.50    4.80
   4   1 -13   31.00    5.40
  -4   1  13   31.30    4.70
   4   1 -13   32.00    4.50
  -4   1  13   31.70    4.00
   4   1 -13   36.90    4.90
   4   1 -13   27.20    4.00
  -3  -1  13  178.58    9.10
  -3  -1  13  178.38    8.70
   3  -1 -13  170.48    8.20
  -3  -1  13  186.98    8.70
  -3  -1  13  186.58    8.60
   3  -1 -13  186.28    8.40
   3  -1 -13  180.88    8.20
   3  -1 -13  173.78    8.40
   3   1 -13  189.38    8.90
  -3   1  13  180.08    8.30
   3   1 -13  176.88    8.50
  -3   1  13  176.48    8.40
  -3   1  13  177.08    8.00
  -3   1  13  175.18    8.90
   3   1 -13  179.38    8.80
   2  -1 -13  104.49    6.10
  -2  -1  13  114.49    6.20
   2  -1 -13  110.49    6.20
  -2  -1  13  107.69    6.80
  -2  -1  13  109.59    6.60
  -2  -1  13  119.49    6.50
   2  -1 -13  120.29    6.70
   2  -1 -13  105.79    6.30
  -2   1  13  113.39    6.90
  -2   1  13  108.09    6.30
   2   1 -13  119.89    6.40
   2   1 -13  106.09    6.20
  -2   1  13  110.99    5.90
  -2   1  13  114.39    6.20
   2   1 -13  111.19    6.70
   2   1 -13  103.49    6.70
  -1  -1  13  537.05   19.10
   1  -1 -13  536.85   19.10
  -1  -1  13  552.84   19.20
   1  -1 -13  550.54   19.40
   1  -1 -13  548.15   19.20
  -1  -1  13  547.95   19.20
   1  -1 -13  579.44   19.20
  -1  -1  13  540.85   19.30
   1   1 -13  528.05   18.90
  -1   1  13  559.54   18.90
   1   1 -13  555.04   19.40
  -1   1  13  558.34   18.90
  -1   1  13  561.74   19.00
  -1   1  13  564.94   19.40
   1   1 -13  560.04   19.10
   1   1 -13  578.84   19.50
  -1   1  13  563.14   19.40
   0  -1 -13   10.20    2.80
   0  -1 -13    4.30    2.60
   0  -1  13    6.60    2.30
   0  -1 -13    2.40    2.30
   0  -1  13    4.10    3.00
   0  -1  13    5.10    2.50
   0  -1 -13    7.80    3.20
   0  -1  13    4.20    2.40
   0   1 -13    4.40    2.80
   0   1  13    7.30    3.10
   0   1 -13    7.40    3.00
   0   1 -13    5.30    2.40
   0   1 -13   11.40    3.40
   0   1  13    6.40    2.70
   0   1  13    7.70    2.70
   0   1  13   11.30    3.00
   0   1  13    5.80    2.70
   1  -1  13  198.78    8.60
  -1  -1 -13  192.38    8.80
   1  -1  13  200.58    8.90
  -1  -1 -13  192.48    8.80
  -1  -1 -13  201.78    8.90
   1  -1  13  203.18    8.40
   1  -1  13  191.98    8.60
  -1  -1 -13  193.28    8.80
   1   1  13  203.08    9.00
   1   1  13  206.78    8.50
  -1   1 -13  200.68    8.40
   1   1  13  190.78    8.90
  -1   1 -13  206.38    9.30
   1   1  13  187.58    9.30
  -1   1 -13  199.78    8.90
   1   1  13  191.28    8.80
  -1   1 -13  197.08    8.60
  -2  -1 -13    2.40    3.80
  -2  -1 -13   -0.80    3.10
   2  -1  13   -1.00    2.20
  -2  -1 -13    2.40    3.00
  -2  -1 -13   -3.50    2.70
   2  -1  13    0.00    2.90
   2  -1  13   -0.60    2.30
   2  -1  13   -3.90    4.50
   2  -1  13    1.60    2.60
   2   1  13    9.80    4.30
  -2   1 -13    1.40    3.00
  -2   1 -13   -0.70    2.50
   2   1  13   -3.20    3.10
   2   1  13    2.60    3.30
   2   1  13   -2.10    2.80
  -2   1 -13   -1.60    3.30
  -2   1 -13    2.80    3.30
   2   1  13   -0.50    3.50
   3  -1  13  107.59    7.00
  -3  -1 -13  101.49    7.50
   3  -1  13  103.19    6.90
   3  -1  13   88.49    6.60
  -3  -1 -13  100.59    7.00
  -3  -1 -13  106.49    7.70
   3  -1  13   98.19    8.50
  -3  -1 -13  104.79    7.80
   3   1  13   90.39    7.50
   3   1  13   88.69    7.10
  -3   1 -13   89.79    7.40
  -3   1 -13   89.79    6.60
  -3   1 -13  105.39    6.40
   3   1  13   86.69    6.90
   3   1  13  104.69    7.50
  -3   1 -13  100.19    7.50
   4  -1  13  116.99    7.70
   4  -1  13  110.69   10.00
  -4  -1 -13  107.89    8.40
   4  -1  13  125.59    8.10
  -4  -1 -13  113.99    8.60
  -4  -1 -13  133.79    8.60
   4  -1  13  113.49    8.20
  -4  -1 -13  103.99    8.30
   4  -1  13  103.89    7.70
   4   1  13  117.89    8.30
   4   1  13  110.09    9.80
  -4   1 -13  111.19    7.80
  -4   1 -13  107.59    7.60
   4   1  13  110.29    8.90
   4   1  13  110.59    8.80
  -4   1 -13  105.59    7.40
  -4   1 -13  105.59    8.50
   5  -1  13  242.58   12.00
   5  -1  13  237.28   11.80
  -5  -1 -13  231.68   11.40
  -5  -1 -13  238.98   12.50
  -5  -1 -13  230.38   12.50
   5  -1  13  247.28   12.20
  -5  -1 -13  230.18   13.10
   5  -1  13  258.37   11.50
   5  -1  13  219.58   14.00
   5   1  13  239.98   13.00
  -5   1 -13  228.58   11.70
  -5   1 -13  232.48   12.60
   5   1  13  231.78   12.70
   5   1  13  235.28   13.10
  -5   1 -13  248.28   11.70
   6  -1  13    8.50    5.20
   6  -1  13    1.30    5.60
   6  -1  13    1.60    4.60
   6  -1  13    3.60    4.90
   6  -1  13    9.80    8.80
  -6  -1 -13   20.00    8.00
  -6  -1 -13    1.00    5.50
  -6  -1 -13   -5.00    6.80
  -6  -1 -13   -1.50    6.20
  -6   1 -13   -2.90    6.40
   6   1  13    6.70    6.00
   6   1  13   -1.40    5.40
  -6   1 -13   13.30    8.20
  -6   1 -13    4.90    5.10
   6   1  13   -3.10    6.20
   6   1  13    3.90    6.70
  -6   1 -13    5.80    5.20
  -7  -1 -13   29.90    8.40
   7  -1  13   16.80    5.70
   7  -1  13   23.50    6.30
  -7  -1 -13   26.10    7.40
   7  -1  13   19.20    7.20
  -7  -1 -13    3.30    8.30
   7  -1  13   25.10    6.10
  -7  -1 -13   15.30    6.60
  -7  -1 -13   27.00    8.60
  -7   1 -13   35.20    8.20
  -7   1 -13   16.80   11.90
   7   1  13   25.70    8.90
  -7   1 -13   28.00    6.70
   7   1  13   24.30    9.40
  -7   1 -13   18.50    9.30
   7   1  13   25.50    7.50
   7   1  13   15.30    8.00
  -7   1 -13   31.70    8.20
   7  -2 -13    7.40    4.50
   7  -2 -13    7.10    5.90
  -7  -2  13    9.30    6.90
   7  -2 -13    0.20    4.80
   7  -2 -13   -6.50    5.10
  -7  -2  13   -2.30    5.80
  -7  -2  13   -6.90    5.40
  -7  -2  13   -0.80    5.80
   7   2 -13  -10.90   12.90
   7   2 -13   -0.60    6.50
   7   2 -13    7.30    6.90
  -7   2  13   -0.20    3.20
   7   2 -13    4.10    6.20
  -7   2  13    4.00    6.00
  -7   2  13    0.30    9.20
  -7   2  13    0.70    3.80
  -7   2  13    5.00    6.60
   7   2 -13    1.90    5.80
   6  -2 -13   16.90    4.30
  -6  -2  13   15.00    5.30
  -6  -2  13   13.10    4.40
   6  -2 -13   15.70    4.70
   6  -2 -13    9.50    4.50
  -6  -2  13   10.10    6.30
   6  -2 -13   22.20    4.10
  -6  -2  13    8.00    5.60
  -6   2  13   11.60    3.50
  -6   2  13   11.20    4.90
   6   2 -13   17.90    6.90
  -6   2  13   19.80    3.40
   6   2 -13   19.00    5.40
  -6   2  13   18.70    8.30
   6   2 -13   23.90    5.30
   6   2 -13    3.90   13.00
   5  -2 -13  116.29    7.90
  -5  -2  13  107.99    8.10
   5  -2 -13  121.89    7.00
   5  -2 -13  107.19    7.40
  -5  -2  13  108.39    8.80
   5  -2 -13  111.99    8.20
  -5  -2  13  104.19    8.80
  -5  -2  13  115.29    7.90
   5   2 -13  108.69    8.80
  -5   2  13  118.29    5.80
  -5   2  13  118.89   11.50
  -5   2  13  122.59    8.40
   5   2 -13  129.69    8.80
  -5   2  13  117.19    6.50
   5   2 -13  121.79    9.70
  -5   2  13  131.69    8.60
   4  -2 -13  455.65   17.00
  -4  -2  13  441.86   17.60
   4  -2 -13  479.65   16.80
  -4  -2  13  475.15   17.80
  -4  -2  13  450.75   17.80
  -4  -2  13  476.65   17.50
   4  -2 -13  482.95   17.10
   4  -2 -13  451.75   17.00
   4   2 -13  456.65   16.90
  -4   2  13  458.75   19.20
   4   2 -13  464.45   18.20
  -4   2  13  468.05   17.20
   4   2 -13  449.16   17.20
  -4   2  13  466.25   17.30
  -4   2  13  457.15   15.60
   4   2 -13  438.56   17.80
  -4   2  13  458.25   15.90
   3  -2 -13  234.38   10.00
  -3  -2  13  209.98   10.10
  -3  -2  13  238.18   10.70
   3  -2 -13  230.68    9.50
   3  -2 -13  234.18    9.80
  -3  -2  13  230.18   10.40
  -3  -2  13  237.08   10.30
   3   2 -13  233.28   10.70
  -3   2  13  227.48   10.20
   3   2 -13  226.38   10.80
  -3   2  13  230.18    8.40
  -3   2  13  238.38   10.30
   3   2 -13  200.28    9.30
  -3   2  13  230.78   11.50
   3   2 -13  232.08   10.00
   3   2 -13  234.38    9.70
  -3   2  13  231.38    8.80
   2  -2 -13   24.70    3.40
  -2  -2  13   30.60    3.90
   2  -2 -13   27.90    3.60
  -2  -2  13   26.00    3.90
  -2  -2  13   31.20    3.70
   2  -2 -13   25.00    3.70
  -2  -2  13   30.60    3.60
   2  -2 -13   26.80    3.40
  -2   2  13   28.10    4.50
   2   2 -13   32.60    3.70
  -2   2  13   30.50    4.10
   2   2 -13   27.70    4.20
  -2   2  13   33.70    4.60
  -2   2  13   29.70    4.10
  -2   2  13   27.40    3.60
   2   2 -13   38.80    3.70
  -2   2  13   31.80    3.30
   2   2 -13   30.60    4.00
   1  -2 -13   -3.40    2.00
   1  -2 -13   -0.60    2.40
   1  -2 -13    0.20    2.50
  -1  -2  13    3.00    2.70
  -1  -2  13   -0.60    2.10
  -1  -2  13    2.20    2.60
   1  -2 -13    2.50    3.00
  -1  -2  13    1.20    2.90
   1   2 -13   -1.70    2.40
  -1   2  13    2.20    3.10
   1   2 -13    1.80    3.10
  -1   2  13    0.40    2.30
   1   2 -13   -1.60    1.80
  -1   2  13   -0.70    2.90
   1   2 -13    0.20    2.50
  -1   2  13    1.20    2.10
   1   2 -13   -0.10    3.30
  -1   2  13    0.90    3.20
  -1   2  13    0.30    2.90
   0  -2 -13   45.60    4.80
   0  -2 -13   39.00    4.20
   0  -2  13   48.60    4.60
   0  -2 -13   38.40    4.70
   0  -2  13   47.40    4.60
   0  -2  13   40.30    4.60
   0  -2  13   47.20    4.00
   0  -2 -13   44.40    4.80
   0   2 -13   46.70    3.40
   0   2  13   48.10    5.20
   0   2  13   54.29    5.60
   0   2  13   45.30    4.50
   0   2  13   48.50    4.10
   0   2  13   49.30    5.00
   0   2 -13   47.00    3.90
   0   2 -13   45.10    5.00
   0   2 -13   48.60    5.20
   1  -2  13   49.20    4.10
   1  -2  13   59.19    5.00
   1  -2  13   66.19    4.90
   1  -2  13   44.90    8.00
  -1  -2 -13   54.99    5.50
  -1  -2 -13   54.69    5.80
  -1  -2 -13   48.20    5.30
   1  -2  13   50.49    4.70
  -1  -2 -13   58.99    5.30
   1   2  13   49.00    5.20
   1   2  13   49.60    5.90
   1   2  13   46.20    6.00
   1   2  13   66.39    5.10
  -1   2 -13   57.99    4.10
  -1   2 -13   55.49    5.60
  -1   2 -13   36.70   11.30
  -1   2 -13   58.09    5.70
   1   2  13   55.89    5.30
  -1   2 -13   56.79    3.40
   2  -2  13  125.09    7.10
   2  -2  13  119.49   10.90
   2  -2  13  131.59    6.30
  -2  -2 -13  118.29    7.60
   2  -2  13  123.19    7.00
  -2  -2 -13  134.59    7.90
  -2  -2 -13  129.09    8.10
   2  -2  13  133.49    7.20
  -2  -2 -13  126.19    7.50
   2   2  13  129.39    8.10
   2   2  13  131.69    8.50
  -2   2 -13  134.69   16.10
  -2   2 -13  130.29    5.40
   2   2  13  127.59    7.30
  -2   2 -13  122.19    7.70
   2   2  13  126.19    8.00
  -2   2 -13  117.29    7.60
  -2   2 -13  120.79    5.80
   2   2  13  123.89    7.50
  -3  -2 -13  128.79    8.00
  -3  -2 -13  145.79    9.10
   3  -2  13  139.39    7.70
   3  -2  13  129.59    7.10
   3  -2  13  138.19    8.00
   3  -2  13  140.39   12.10
  -3  -2 -13  135.59    8.30
   3  -2  13  153.98    8.30
  -3  -2 -13  141.69    8.80
  -3   2 -13  139.99    6.20
   3   2  13  132.09    9.10
  -3   2 -13  141.39    8.60
  -3   2 -13  140.79    8.40
   3   2  13  139.49    8.40
  -3   2 -13  171.18   18.10
   3   2  13  142.99   10.40
   3   2  13  128.69    8.40
  -3   2 -13  143.29    6.50
   3   2  13  141.09    8.40
   4  -2  13   43.10    5.20
  -4  -2 -13   39.80    6.40
  -4  -2 -13   26.50    6.00
  -4  -2 -13   32.50    5.10
   4  -2  13   30.80    8.10
   4  -2  13   25.30    4.90
   4  -2  13   31.10    4.90
   4  -2  13   33.00    4.10
  -4  -2 -13   30.30    5.30
  -4   2 -13   34.80    4.30
  -4   2 -13   21.90    4.80
   4   2  13   34.80    5.50
  -4   2 -13   41.40   13.70
  -4   2 -13   28.70    3.40
  -4   2 -13   26.80    5.30
   4   2  13   20.70    5.70
   4   2  13   35.60    5.10
   4   2  13   25.10    5.30
   5  -2  13   19.60    5.20
   5  -2  13    7.70    3.90
  -5  -2 -13   18.00    7.00
  -5  -2 -13   11.50    6.50
   5  -2  13    5.50    4.20
   5  -2  13    5.40    4.40
  -5  -2 -13   13.20    5.50
  -5   2 -13   12.10    3.50
   5   2  13   10.10    5.00
  -5   2 -13    8.00    3.10
   5   2  13   -1.50    5.10
  -5   2 -13   28.20   13.80
   5   2  13   10.30    6.10
  -5   2 -13   11.40    5.40
  -5   2 -13    7.20    6.60
   6  -2  13   -3.30   10.60
   6  -2  13    8.30    5.00
   6  -2  13   -6.80    5.50
   6  -2  13   -6.30    5.00
  -6  -2 -13    1.30    7.30
  -6  -2 -13    3.80    6.50
  -6  -2 -13    0.70    6.70
   6  -2  13    4.70    6.20
   6   2  13   -6.00    6.90
  -6   2 -13   -2.60    3.30
   6   2  13    5.10    7.40
  -6   2 -13    5.50    4.10
   6   2  13    0.90    6.70
  -6   2 -13   11.80    7.60
  -6   2 -13    2.20   10.30
   6   2  13    4.60    7.60
  -6   2 -13    5.50    6.50
   6  -3 -13   67.69    4.80
  -6  -3  13   43.10    8.20
   6  -3 -13   53.69    6.30
   6  -3 -13   55.09    6.90
  -6  -3  13   71.69    7.80
  -6  -3  13   45.70    6.90
  -6  -3  13   59.59    7.10
   6  -3 -13   49.99    5.90
   6   3 -13   56.39    6.20
   6   3 -13   44.00   14.50
  -6   3  13   46.10    6.80
   6   3 -13   58.19    9.10
  -6   3  13   59.39   11.20
   6   3 -13   50.69    6.60
  -5  -3  13   36.70    6.30
   5  -3 -13   43.00    5.00
  -5  -3  13   39.40    5.30
   5  -3 -13   32.40    5.40
   5  -3 -13   46.00    5.60
  -5  -3  13   38.10    5.70
   5  -3 -13   36.00    4.10
  -5  -3  13   37.50    6.30
   5   3 -13   29.50    6.70
   5   3 -13   39.60    5.60
   5   3 -13   40.50    4.80
   5   3 -13   45.00    4.60
   5   3 -13   39.80    7.30
   5   3 -13   14.60   13.30
  -5   3  13   31.40    8.40
  -4  -3  13   97.59    8.00
   4  -3 -13   89.99    8.10
   4  -3 -13  110.09    7.70
   4  -3 -13   99.49    6.70
  -4  -3  13  103.09    8.50
  -4  -3  13   88.39    8.20
   4  -3 -13  106.09    5.30
  -4  -3  13  107.89    7.20
   4   3 -13   68.39   14.90
  -4   3  13  107.49   11.90
   4   3 -13  109.79    7.30
  -4   3  13  113.49    7.90
   4   3 -13  101.99    6.10
   4   3 -13  102.49    8.60
   3  -3 -13   85.69    4.60
  -3  -3  13   84.29    5.50
  -3  -3  13   73.69    6.90
  -3  -3  13   76.09    7.60
  -3  -3  13   83.79    6.60
   3  -3 -13   80.39    5.80
   3  -3 -13   78.59    6.80
   3  -3 -13   76.09    6.20
  -3   3  13   88.09    6.80
   3   3 -13   87.69    4.20
  -3   3  13   76.09    9.80
   3   3 -13   62.79    7.20
   3   3 -13   70.89    7.50
   3   3 -13   89.69    6.50
  -3   3  13   91.89    6.70
   2  -3 -13   56.59    3.70
  -2  -3  13   49.99    6.30
   2  -3 -13   55.09    5.90
   2  -3 -13   45.10    5.00
  -2  -3  13   47.80    4.10
  -2  -3  13   58.69    5.70
  -2  -3  13   49.60    6.00
  -2   3  13   47.00    5.80
   2   3 -13   49.99    6.40
   2   3 -13   44.10    5.20
  -2   3  13   52.69    7.00
  -2   3  13   51.19    7.10
  -2   3  13   72.09    6.00
   2   3 -13   22.20   12.40
   2   3 -13   63.89    5.90
  -1  -3  13    2.90    3.20
   1  -3 -13    4.10    2.10
   1  -3 -13    4.60    3.30
   1  -3 -13    3.60    3.00
   1  -3 -13    0.50    3.10
  -1  -3  13    4.40    3.10
  -1  -3  13    3.10    2.20
  -1  -3  13   -2.30    3.10
  -1   3  13    1.20    3.10
   1   3 -13    3.30   13.40
   1   3 -13   -2.40    3.70
   1   3 -13    3.30    3.60
   1   3 -13    4.00    3.90
  -1   3  13    6.50    3.40
  -1   3  13    1.50    4.40
   0  -3  13   66.39    5.70
   0  -3  13   60.69    6.10
   0  -3 -13   78.39    6.40
   0  -3  13   87.19    4.30
   0  -3 -13   72.69    6.00
   0  -3 -13   68.49    4.50
   0  -3 -13   78.29    5.80
   0  -3  13   66.19    5.90
   0   3  13   67.09    7.20
   0   3 -13   87.19   17.00
   0   3 -13   71.59    6.40
   0   3  13   71.09    6.50
   0   3 -13   76.89    6.40
   0   3  13   75.69    6.50
   1  -3  13  124.49    5.80
  -1  -3 -13  114.89    8.00
   1  -3  13  107.59    7.10
  -1  -3 -13  101.39    7.10
   1  -3  13  118.49    6.60
  -1  -3 -13  119.29    7.90
  -1  -3 -13  120.69    6.00
   1  -3  13  105.49    6.70
  -1   3 -13  117.39    7.40
   1   3  13  121.59    7.80
  -1   3 -13  127.59   18.50
  -1   3 -13  119.39    7.20
   1   3  13  111.89    7.70
   1   3  13  111.59    8.10
  -2  -3 -13   27.60    4.30
   2  -3  13   28.80    3.60
   2  -3  13   19.80    3.60
  -2  -3 -13   28.00    5.00
   2  -3  13   20.80    4.40
   2  -3  13   27.40    3.80
  -2  -3 -13   19.60    4.30
  -2  -3 -13   24.40    3.90
  -2   3 -13   21.10    4.60
   2   3  13   27.20    3.40
  -2   3 -13   35.70   14.90
   2   3  13   24.00    5.70
  -2   3 -13   10.30    3.80
   2   3  13   26.60    3.10
   2   3  13   21.00    5.00
   3  -3  13  305.97   19.70
   3  -3  13  313.77   13.10
  -3  -3 -13  315.27   14.30
   3  -3  13  296.07   13.70
   3  -3  13  302.17   11.10
  -3  -3 -13  308.37   14.10
   3  -3  13  308.57   12.40
  -3  -3 -13  298.07   13.60
  -3  -3 -13  305.37   13.30
   3   3  13  285.07   14.40
   3   3  13  315.37   12.10
  -3   3 -13  355.06   26.10
   3   3  13  306.27   12.00
   3   3  13  303.57   14.60
   3   3  13  304.17   14.20
  -3   3 -13  319.87   13.40
   4  -3  13   30.10    5.30
   4  -3  13   25.60    5.20
  -4  -3 -13   34.00    6.30
   4  -3  13   13.00   10.30
   4  -3  13   40.80    3.90
   4  -3  13   26.50    4.70
  -4  -3 -13   35.30    6.10
  -4  -3 -13   28.80    6.70
  -4   3 -13   26.30    8.80
   4   3  13   28.30    5.30
   4   3  13   22.80    7.70
   4   3  13   31.10    7.30
   4   3  13   29.40    4.80
   4   3  13   26.10    6.70
  -4   3 -13   49.40   17.50
   5  -3  13  138.09    9.90
  -5  -3 -13  108.49    9.10
   5  -3  13  133.99   14.80
  -5  -3 -13  128.19   11.50
   5  -3  13  127.09    9.80
   5  -3  13  110.99    8.50
   5  -3  13  111.19    5.80
  -5  -3 -13  128.09   12.60
   5   3  13   98.69   11.00
  -5   3 -13  122.49   11.10
   5   3  13  126.29   10.20
   5   3  13  126.49   10.40
   5   3  13  127.19   12.60
  -5   3 -13  128.89   21.00
   3  -4 -13  160.08    9.00
  -3  -4  13  168.88   10.60
  -3  -4  13  176.78    9.00
  -3  -4  13  158.58   10.50
   3  -4 -13  155.88    9.30
   3   4 -13  174.78   10.00
   3   4 -13  172.08   11.60
   3   4 -13  166.38   19.90
  -3   4  13  154.68    8.20
  -2  -4  13    1.10    4.50
   2  -4 -13   -2.60    3.60
   2  -4 -13    2.30    4.30
  -2  -4  13   -0.40    3.50
  -2  -4  13    5.20    3.30
  -2  -4  13    1.80    3.90
   2   4 -13   -1.00    3.90
  -2   4  13   -1.80    8.50
  -2   4  13   -3.40    3.70
   2   4 -13   -2.10    4.80
   2   4 -13   -0.20   13.30
   1  -4 -13    4.60    2.50
   1  -4 -13   15.70    4.00
  -1  -4  13   -3.80    4.30
  -1  -4  13   -1.40    4.30
  -1  -4  13    4.30    2.90
   1  -4 -13    1.00    4.10
  -1  -4  13   -0.50   10.30
  -1  -4  13    2.40    2.50
   1  -4 -13    3.50    2.40
   1   4 -13   -0.30   14.50
   1   4 -13    4.10    4.20
   1   4 -13   -4.60    4.90
  -1   4  13    3.70    3.90
  -1   4  13    3.90    7.90
   0  -4  13   20.10    4.60
   0  -4 -13   19.50    3.40
   0  -4  13   41.80   10.80
   0  -4  13   11.10    3.90
   0  -4 -13   14.00    3.30
   0  -4 -13   11.80    4.70
   0  -4 -13   10.30    4.40
   0   4 -13    2.10   15.70
   0   4  13   17.10    9.50
   0   4 -13   20.00    4.10
   1  -4  13    2.50    9.60
   1  -4  13   -4.40    3.30
  -1  -4 -13    4.60    4.60
  -1  -4 -13   -1.40    4.00
   1  -4  13    5.00    4.20
  -1  -4 -13    2.90    4.40
  -1  -4 -13    8.00    4.40
  -1   4 -13   -4.30   15.20
   1   4  13  -12.60    8.00
   1   4  13   -2.10    3.70
   1   4  13   -1.80    5.40
  -1   4 -13    3.00    3.60
   8   0 -14   66.49    8.70
  -8   0  14   70.89    9.50
   8   0 -14   63.09    8.60
  -8   0  14   80.99    9.00
  -8   0  14   72.09    8.90
  -8   0  14   51.09    8.10
   8   0 -14   56.29    7.40
   8   0 -14   69.69    8.90
  -7   0  14   -2.60    6.60
   7   0 -14    0.10    5.50
   7   0 -14    5.00    5.70
   7   0 -14    0.20    6.50
  -7   0  14   -5.20    5.10
  -7   0  14  -12.00    5.20
   6   0 -14  103.79    9.60
  -6   0  14  118.39    8.90
   6   0 -14   89.29    7.70
  -6   0  14  116.29    9.10
  -6   0  14  102.89    8.50
   6   0 -14  111.59    8.90
  -6   0  14  107.49    9.00
  -5   0  14    1.10    4.50
   5   0 -14    1.10    5.20
  -5   0  14    0.50    4.00
   5   0 -14   -0.50    4.00
   5   0 -14    4.00    3.50
  -5   0  14    0.00    4.40
  -5   0  14   -1.90    3.80
   5   0 -14    6.20    3.80
   4   0 -14   79.89    6.70
   4   0 -14   72.89    7.00
   4   0 -14   67.49    6.50
   4   0 -14   76.99    6.30
  -4   0  14   73.59    6.20
  -4   0  14   64.69    6.60
  -4   0  14   74.09    6.70
  -4   0  14   66.49    7.20
  -3   0  14    0.90    2.90
  -3   0  14    3.40    2.80
   3   0 -14   -0.30    2.90
   3   0 -14    0.80    3.00
   3   0 -14   -0.10    3.90
  -3   0  14   -1.40    3.00
   3   0 -14    2.00    2.70
  -3   0  14    1.50    3.50
  -2   0  14  295.17   11.60
  -2   0  14  285.07   11.60
   2   0 -14  300.67   11.80
   2   0 -14  308.57   12.30
   2   0 -14  302.77   11.60
  -2   0  14  287.37   11.70
   2   0 -14  295.17   11.70
  -2   0  14  285.27   11.80
   1   0 -14    7.40    3.00
  -1   0  14    1.00    3.30
  -1   0  14    4.80    2.70
   1   0 -14    2.00    3.10
   1   0 -14   -0.30    2.70
  -1   0  14    5.50    2.90
   1   0 -14    6.80    3.60
  -1   0  14    2.00    2.80
   0   0 -14  430.66   15.80
   0   0  14  407.46   15.50
   0   0  14  434.46   15.70
   0   0 -14  429.66   15.80
   0   0 -14  429.46   15.60
   0   0  14  433.96   15.80
   0   0 -14  428.36   15.60
   0   0  14  437.46   14.10
   0   0  14  442.46   15.70
  -1   0 -14    1.00    3.40
  -1   0 -14   -1.00    3.50
   1   0  14   -0.70    3.10
   1   0  14    3.60    2.90
   1   0  14    1.00    2.00
   1   0  14   -2.80    3.00
  -1   0 -14    0.80    2.60
   1   0  14   -2.20    2.50
  -1   0 -14    2.00    2.80
  -2   0 -14  866.11   28.00
   2   0  14  880.01   28.30
  -2   0 -14  861.51   28.30
  -2   0 -14  821.12   27.90
   2   0  14  800.82   27.90
  -2   0 -14  793.82   28.10
   2   0  14  807.12   27.70
   2   0  14  773.22   28.10
  -3   0 -14   -0.50    3.90
  -3   0 -14   -1.50    4.30
  -3   0 -14    1.10    3.60
   3   0  14   -3.10    4.10
   3   0  14   -0.90    3.40
   3   0  14    2.10    3.10
   3   0  14   -0.10    4.50
   3   0  14   -1.50    3.10
  -3   0 -14   -3.20    3.60
   4   0  14  675.53   25.00
   4   0  14  719.43   25.50
   4   0  14  723.43   25.30
  -4   0 -14  692.43   25.20
  -4   0 -14  682.93   25.60
  -4   0 -14  699.83   25.40
   4   0  14  729.33   25.50
  -4   0 -14  744.03   26.00
   4   0  14  708.83   25.90
   5   0  14    0.90    5.50
  -5   0 -14    4.80    5.70
   5   0  14   -0.80    4.20
   5   0  14   -3.20    4.70
  -5   0 -14   -2.80    4.70
  -5   0 -14   -1.90    4.90
  -5   0 -14    0.30    6.20
   6   0  14   28.90    7.40
   6   0  14   15.30    5.90
  -6   0 -14   30.00    7.80
  -6   0 -14   37.40    7.40
   6   0  14   27.10    7.20
  -6   0 -14   18.20    7.00
  -6   0 -14   26.10    7.50
  -7   0 -14   -6.50    8.20
   7   0  14   -6.10    6.30
  -7   0 -14   13.30    7.10
  -7   0 -14   -5.90    7.50
   7   0  14    0.60    6.80
   7   0  14    7.00    5.90
  -7   0 -14   11.60    7.20
   7   0  14    0.80    6.60
  -7   0 -14    7.40    7.20
   8  -1 -14   31.20    6.30
  -8  -1  14   24.70    7.40
  -8  -1  14   17.50    7.40
   8  -1 -14   31.30    5.60
  -8  -1  14   18.70    7.50
   8  -1 -14   12.00    6.40
  -8  -1  14   12.50    8.70
   8  -1 -14   20.70    7.20
  -8   1  14   33.80    6.00
   8   1 -14   26.50    7.60
  -8   1  14   13.20    7.10
  -8   1  14   29.50    7.20
  -8   1  14   32.40   11.20
   8   1 -14   39.80    9.10
   8   1 -14   26.60    7.90
   8   1 -14   23.10    8.60
   8   1 -14   10.90    7.30
   7  -1 -14   84.09    8.70
  -7  -1  14   83.39    9.90
  -7  -1  14   80.19   10.20
   7  -1 -14   94.89    8.40
   7  -1 -14   61.49    7.20
  -7  -1  14   83.79   10.00
   7  -1 -14   79.29    9.70
  -7   1  14   76.59    8.50
  -7   1  14   76.39    9.90
  -7   1  14   87.09    9.20
   7   1 -14   68.29    8.40
   7   1 -14  100.99   11.20
   7   1 -14   85.69    9.00
  -7   1  14   76.69   11.20
   7   1 -14   85.79   10.20
  -6  -1  14   20.40    6.30
   6  -1 -14   15.90    4.80
   6  -1 -14   13.60    4.70
  -6  -1  14    6.20    4.70
   6  -1 -14    9.10    4.50
  -6  -1  14    7.50    5.80
   6  -1 -14   16.80    4.80
  -6   1  14   10.80    4.60
   6   1 -14    8.30    6.50
  -6   1  14   11.60    5.00
   6   1 -14   15.00    5.30
  -6   1  14   15.10    5.30
   6   1 -14   13.10    5.10
   6   1 -14    7.40    4.90
   5  -1 -14  118.39    7.90
  -5  -1  14  107.49    8.30
  -5  -1  14  120.89    8.60
   5  -1 -14  116.39    8.30
  -5  -1  14  112.79    8.90
   5  -1 -14  120.09    8.30
  -5  -1  14  120.99    8.70
   5  -1 -14  116.39    7.90
  -5   1  14  122.49    7.80
  -5   1  14  110.29    8.50
   5   1 -14  109.29    8.90
   5   1 -14  106.89    7.80
   5   1 -14  103.99    8.90
  -5   1  14  113.99    7.80
  -5   1  14  115.79    8.30
   5   1 -14  127.79    8.50
  -4  -1  14  333.07   14.00
  -4  -1  14  348.87   14.00
  -4  -1  14  330.97   13.80
  -4  -1  14  334.77   14.00
   4  -1 -14  348.37   14.00
   4  -1 -14  332.67   13.40
   4  -1 -14  327.07   13.30
   4  -1 -14  337.57   13.50
   4   1 -14  335.77   13.70
  -4   1  14  307.07   13.70
  -4   1  14  349.57   13.30
   4   1 -14  331.87   14.10
  -4   1  14  333.97   13.90
   4   1 -14  326.17   13.90
   4   1 -14  334.07   14.40
  -4   1  14  321.67   12.90
  -3  -1  14   -2.20    2.90
  -3  -1  14   -6.60    3.60
   3  -1 -14   -0.60    2.90
   3  -1 -14   -1.70    2.70
   3  -1 -14    3.50    3.10
  -3  -1  14   -0.10    3.00
  -3  -1  14   -0.20    3.00
   3  -1 -14    1.50    3.60
  -3   1  14   -2.10    2.60
  -3   1  14   -3.00    3.10
   3   1 -14    0.60    3.60
   3   1 -14    0.50    3.70
  -3   1  14   -0.60    3.30
  -3   1  14    0.50    3.30
   3   1 -14   -2.40    2.70
   2  -1 -14   59.59    5.20
  -2  -1  14   57.99    5.40
   2  -1 -14   62.09    5.00
  -2  -1  14   53.69    4.70
  -2  -1  14   51.29    5.30
  -2  -1  14   56.99    5.10
   2  -1 -14   53.99    5.70
   2  -1 -14   55.29    5.10
  -2   1  14   50.89    5.80
   2   1 -14   60.69    5.20
   2   1 -14   55.89    5.60
   2   1 -14   54.69    5.00
  -2   1  14   56.29    4.80
   2   1 -14   54.99    6.30
  -2   1  14   57.69    4.80
  -2   1  14   57.49    5.40
  -1  -1  14   45.50    4.60
   1  -1 -14   43.70    5.00
  -1  -1  14   47.10    4.70
   1  -1 -14   47.70    4.90
   1  -1 -14   50.19    5.40
  -1  -1  14   49.10    5.00
   1  -1 -14   49.60    4.80
  -1  -1  14   50.09    5.00
  -1   1  14   53.79    4.70
   1   1 -14   49.20    5.90
   1   1 -14   53.79    5.20
   1   1 -14   49.60    4.80
   1   1 -14   48.90    5.20
  -1   1  14   54.89    4.40
  -1   1  14   42.00    5.00
  -1   1  14   50.69    4.60
  -1   1  14   52.19    5.70
   0  -1 -14    4.40    2.50
   0  -1 -14    5.40    2.60
   0  -1  14    4.50    2.50
   0  -1 -14    2.70    3.20
   0  -1  14    4.70    2.60
   0  -1 -14    4.10    3.10
   0  -1  14    1.10    2.80
   0  -1  14    2.40    2.50
   0   1  14    1.60    3.20
   0   1 -14    2.20    2.50
   0   1 -14    7.70    3.30
   0   1 -14    4.00    2.90
   0   1  14    1.60    2.40
   0   1 -14    1.60    3.20
   0   1  14    4.40    2.70
   0   1  14    0.50    2.80
   0   1  14    8.20    3.20
  -1  -1 -14   96.69    6.50
   1  -1  14  110.29    6.20
  -1  -1 -14  113.59    7.00
  -1  -1 -14  115.59    6.70
  -1  -1 -14  112.69    7.10
   1  -1  14  110.29    6.00
   1  -1  14  106.29    6.30
   1  -1  14  110.79    6.80
   1   1  14  104.29    6.00
  -1   1 -14   97.19    6.00
   1   1  14  111.19    6.70
  -1   1 -14  103.59    6.70
   1   1  14  106.99    6.40
  -1   1 -14  101.29    6.50
   1   1  14  106.09    6.80
   1   1  14  106.69    7.40
  -1   1 -14  113.19    7.10
   2  -1  14   94.69    6.50
   2  -1  14   80.69    8.20
  -2  -1 -14  108.39    6.80
  -2  -1 -14  104.89    7.20
   2  -1  14  106.79    6.50
   2  -1  14  104.39    6.50
  -2  -1 -14  107.89    6.90
  -2  -1 -14  100.29    7.20
   2  -1  14  103.39    6.50
  -2   1 -14  104.49    6.40
  -2   1 -14   94.59    6.80
   2   1  14  104.29    6.80
  -2   1 -14  100.19    7.00
   2   1  14  101.69    7.30
  -2   1 -14   96.29    6.70
   2   1  14  112.89    6.90
   2   1  14  107.99    7.20
   2   1  14   86.89    6.00
  -3  -1 -14   31.40    4.90
  -3  -1 -14   44.40    6.00
   3  -1  14   48.50    6.60
   3  -1  14   36.40    4.70
  -3  -1 -14   50.29    6.00
   3  -1  14   43.80    5.40
   3  -1  14   47.60    5.20
  -3  -1 -14   36.20    4.80
  -3   1 -14   42.70    5.60
  -3   1 -14   55.39    7.00
   3   1  14   50.29    5.80
   3   1  14   38.00    5.20
   3   1  14   49.60    6.50
  -3   1 -14   43.00    4.80
  -3   1 -14   53.49    6.00
   3   1  14   52.19    6.30
  -4  -1 -14  252.27   12.90
   4  -1  14  255.47   13.70
   4  -1  14  250.27   11.30
  -4  -1 -14  217.18   12.60
   4  -1  14  241.88   11.80
  -4  -1 -14  245.58   12.20
   4  -1  14  250.17   11.60
   4  -1  14  250.67   11.80
  -4   1 -14  245.18   11.50
   4   1  14  246.88   12.70
  -4   1 -14  256.37   11.80
   4   1  14  268.47   12.10
  -4   1 -14  233.78   11.40
   4   1  14  241.48   12.50
   4   1  14  248.68   12.20
   5  -1  14   -4.00    3.90
  -5  -1 -14    2.20    6.20
   5  -1  14    8.30    6.70
   5  -1  14   -3.00    4.60
   5  -1  14    4.40    5.30
   5  -1  14   18.30    5.20
  -5  -1 -14  -10.10    6.30
  -5  -1 -14    3.10    4.40
  -5   1 -14    4.60    4.80
  -5   1 -14   -7.90    5.70
   5   1  14    2.70    5.20
  -5   1 -14    1.20    4.50
   5   1  14    3.50    5.90
   5   1  14   -9.00    5.60
  -6  -1 -14   -1.10    8.10
  -6  -1 -14   -0.10    5.30
   6  -1  14    0.50    5.20
   6  -1  14    4.20    5.40
  -6  -1 -14    4.70    7.80
   6  -1  14    1.50    5.80
   6  -1  14    7.40    5.00
   6  -1  14    6.40    8.60
  -6  -1 -14   17.50    8.10
  -6   1 -14    9.90    5.60
  -6   1 -14   -3.30    6.10
   6   1  14    6.10    6.80
   6   1  14   -2.50    7.30
   6   1  14    5.50    6.70
   6   1  14    6.60    6.90
  -6   1 -14   -4.90    8.80
  -6   1 -14   -0.90    8.50
  -6   1 -14    2.70    4.90
  -7  -1 -14   -6.90    8.40
   7  -1  14    0.00    5.90
  -7  -1 -14    6.50    8.20
  -7  -1 -14    0.60   10.40
  -7  -1 -14    4.80    5.30
  -7  -1 -14    2.10    6.30
   7  -1  14    0.50    5.60
   7  -1  14    5.10    6.60
   7  -1  14   12.10    5.30
  -7   1 -14    8.70    7.40
  -7   1 -14   -3.90    6.80
   7   1  14    0.60    6.30
   7   1  14   -1.00    7.50
  -7   1 -14    1.00    9.10
   7   1  14    1.80    6.10
  -7   1 -14   18.40    6.70
   7   1  14    4.20    8.80
  -7   1 -14   14.40    7.40
   7  -2 -14    2.60    5.50
  -7  -2  14    0.50    4.90
  -7  -2  14    5.30    6.10
  -7  -2  14    3.60    6.50
   7  -2 -14    3.20    4.70
  -7  -2  14   -8.10    6.00
   7  -2 -14    5.80    5.80
   7  -2 -14   -0.90    5.30
   7   2 -14    6.50    7.00
  -7   2  14    1.30    4.10
  -7   2  14   -1.40    9.50
  -7   2  14   -0.10    3.30
   7   2 -14   -3.60    7.80
   7   2 -14    1.40    7.00
  -7   2  14    7.60    6.60
  -7   2  14    0.90    6.00
   7   2 -14    5.70   12.50
   7   2 -14    9.30    6.20
  -6  -2  14   -2.00    5.60
  -6  -2  14   -4.40    5.10
   6  -2 -14   -1.60    3.90
  -6  -2  14   -4.20    5.10
   6  -2 -14   -3.10    4.00
   6  -2 -14    0.00    4.60
  -6  -2  14   -3.30    4.60
   6  -2 -14   -1.70    4.40
   6   2 -14    4.70    5.60
  -6   2  14   -5.10    4.60
  -6   2  14    4.40    3.40
  -6   2  14   -4.70    2.90
   6   2 -14    0.20    4.90
  -6   2  14   -3.00    5.60
   6   2 -14   33.40   13.30
  -6   2  14   12.40    7.90
   6   2 -14   12.80    6.70
  -5  -2  14   41.90    5.50
   5  -2 -14   47.80    5.40
  -5  -2  14   37.50    5.40
   5  -2 -14   43.10    5.10
  -5  -2  14   53.79    6.60
   5  -2 -14   45.60    5.60
   5  -2 -14   42.10    5.10
  -5  -2  14   52.89    6.20
   5   2 -14   41.40    6.50
   5   2 -14   31.70    5.60
  -5   2  14   41.00    4.30
  -5   2  14   37.20    5.60
  -5   2  14   48.60    8.50
   5   2 -14   47.20    5.70
  -5   2  14   43.00    4.10
  -5   2  14   40.20    5.30
   5   2 -14   17.80   14.60
  -4  -2  14  179.98    9.70
  -4  -2  14  159.18    9.10
   4  -2 -14  165.68    8.20
   4  -2 -14  162.98    9.20
   4  -2 -14  178.38    9.20
   4  -2 -14  184.38    8.60
  -4  -2  14  155.98    9.20
  -4  -2  14  169.18    9.90
   4   2 -14  170.08    8.60
  -4   2  14  164.78    7.70
   4   2 -14  171.38    9.20
  -4   2  14  171.18    9.40
   4   2 -14  182.08   10.00
  -4   2  14  173.08    7.30
   4   2 -14  172.88   10.30
  -4   2  14  171.58    9.20
  -4   2  14  172.48   11.50
  -3  -2  14  111.09    7.40
  -3  -2  14  119.39    7.90
   3  -2 -14  122.49    7.30
   3  -2 -14  131.29    7.20
   3  -2 -14  122.79    6.50
  -3  -2  14  118.39    7.70
  -3  -2  14  109.09    7.20
   3   2 -14  125.29    8.30
  -3   2  14  123.49    6.20
  -3   2  14  127.29    7.50
  -3   2  14  134.69    8.90
   3   2 -14  121.49    7.70
   3   2 -14  120.89    7.30
  -3   2  14  124.79    7.60
   3   2 -14  131.09    7.00
  -3   2  14  121.09    5.60
   3   2 -14  115.39    6.40
  -2  -2  14   69.79    5.70
   2  -2 -14   66.59    5.50
  -2  -2  14   67.69    5.20
   2  -2 -14   74.79    5.70
   2  -2 -14   73.69    5.10
   2  -2 -14   71.79    5.60
  -2  -2  14   75.09    6.00
  -2  -2  14   71.39    6.30
  -2   2  14   72.69    6.40
   2   2 -14   58.49    6.30
  -2   2  14   73.29    6.40
   2   2 -14   62.19    4.80
   2   2 -14   62.89    6.70
  -2   2  14   73.89    4.60
  -2   2  14   73.19    6.40
  -2   2  14   74.29    6.00
   2   2 -14   68.59    5.10
  -2   2  14   68.69    5.00
   2   2 -14   75.99    5.60
  -1  -2  14  189.58    8.90
   1  -2 -14  180.68    8.60
   1  -2 -14  190.08    8.90
  -1  -2  14  196.48    8.80
   1  -2 -14  197.98    8.50
  -1  -2  14  194.18    8.40
   1  -2 -14  190.28    9.10
  -1  -2  14  196.78    9.10
   1   2 -14  192.58    9.10
  -1   2  14  204.28    8.10
  -1   2  14  192.18    8.20
  -1   2  14  195.18    9.10
   1   2 -14  192.68    8.30
   1   2 -14  208.88    8.00
  -1   2  14  211.28    8.50
   1   2 -14  199.68    9.70
   1   2 -14  161.28    7.40
  -1   2  14  205.38    9.20
  -1   2  14  197.78    9.50
   0  -2  14  299.67   11.70
   0  -2 -14  297.57   12.20
   0  -2  14  310.17   12.00
   0  -2 -14  299.67   12.00
   0  -2 -14  305.07   12.00
   0  -2  14  313.37   12.00
   0  -2  14  300.27   11.90
   0  -2 -14  314.87   12.20
   0   2  14  320.07   11.60
   0   2 -14  301.67   12.20
   0   2  14  303.17   12.50
   0   2  14  287.47   12.40
   0   2  14  303.27   12.40
   0   2 -14  301.67   10.90
   0   2 -14  311.27   12.40
   0   2  14  302.37   11.60
   0   2 -14  303.57   11.20
   1  -2  14   -0.40    2.30
   1  -2  14   -4.80    3.00
  -1  -2 -14    3.40    3.70
  -1  -2 -14    3.80    3.20
   1  -2  14   -1.00    6.70
   1  -2  14    6.40    3.10
  -1  -2 -14    6.50    3.40
  -1  -2 -14    4.10    2.90
   1  -2  14    5.10    2.80
  -1   2 -14    8.20    3.70
   1   2  14    2.00    3.30
  -1   2 -14    1.90    2.40
  -1   2 -14   -3.20    3.70
   1   2  14   -3.30    3.50
  -1   2 -14    2.10    2.00
   1   2  14    1.10    3.50
   1   2  14    2.50    3.00
   1   2  14   -1.30    3.80
   2  -2  14    3.00    6.70
   2  -2  14    4.20    3.10
   2  -2  14    3.20    2.60
  -2  -2 -14    5.60    4.20
   2  -2  14    1.30    3.00
  -2  -2 -14    4.60    3.70
  -2  -2 -14    8.10    4.00
   2  -2  14    1.60    3.50
  -2  -2 -14    7.20    3.80
  -2   2 -14   18.70   14.50
  -2   2 -14    2.90    2.50
  -2   2 -14    2.70    4.10
   2   2  14    4.40    4.10
  -2   2 -14    0.60    2.00
  -2   2 -14    3.60    4.00
   2   2  14   10.30    3.80
   2   2  14   -3.80    4.30
   2   2  14   -1.70    3.20
   2   2  14    2.70    3.70
  -3  -2 -14   86.09    7.00
   3  -2  14   79.89   11.50
   3  -2  14   63.09    7.10
  -3  -2 -14   87.89    7.50
  -3  -2 -14   86.39    7.40
   3  -2  14   83.39    5.80
   3  -2  14   93.19    7.50
   3  -2  14   90.59    6.20
  -3  -2 -14   82.19    7.80
   3   2  14   92.39    7.00
   3   2  14   67.79    8.30
  -3   2 -14  105.29   18.90
  -3   2 -14   78.39    5.50
  -3   2 -14   79.39    7.80
   3   2  14   89.69    7.80
  -3   2 -14   88.09    5.20
   3   2  14   81.29    7.80
  -3   2 -14   76.29    7.00
  -4  -2 -14    0.30    3.90
  -4  -2 -14    7.30    5.40
   4  -2  14    4.70    3.90
   4  -2  14    3.40    3.70
  -4  -2 -14    1.40    5.90
  -4  -2 -14    9.00    5.70
   4  -2  14    4.90    4.40
   4  -2  14    4.70    8.60
   4  -2  14    5.90    3.60
   4   2  14    0.30    4.30
   4   2  14   -1.60    4.40
  -4   2 -14    4.60    3.00
   4   2  14    7.80    5.00
  -4   2 -14   19.20   17.00
  -4   2 -14    8.10    4.50
  -4   2 -14    5.30    3.00
   4   2  14    3.70    6.00
   5  -2  14   -4.80    4.70
   5  -2  14    3.10    4.80
  -5  -2 -14    2.30    5.30
  -5  -2 -14    6.20    5.60
  -5  -2 -14   -0.10    6.10
   5  -2  14   -3.50    4.00
  -5  -2 -14   -2.80    6.30
   5  -2  14    6.60    9.40
   5  -2  14   -3.20    4.50
  -5   2 -14    0.10    6.10
  -5   2 -14  -10.60   17.50
  -5   2 -14   -3.50    3.10
   5   2  14   -6.60    6.00
  -5   2 -14   -3.50    3.60
   5   2  14    2.10    5.00
   5   2  14   13.00    6.90
  -5   2 -14   -8.10    5.50
  -6  -2 -14    4.30    8.40
   6  -2  14    6.20   11.20
   6  -2  14    2.10    6.00
  -6  -2 -14    6.40    6.30
   6  -2  14    1.90    5.70
   6  -2  14    6.90    5.30
  -6  -2 -14    4.00    6.60
   6  -2  14   -1.90    5.00
  -6  -2 -14  -12.00    4.90
  -6   2 -14   12.10    4.60
  -6   2 -14    6.40    7.40
  -6   2 -14    8.00   19.30
   6   2  14    0.30    6.80
   6   2  14    3.60    8.10
  -6   2 -14   17.70    7.60
   6   2  14    2.20    6.00
  -6   2 -14    3.60    3.60
   6   2  14    1.90    7.40
  -6  -3  14   32.80    7.30
   6  -3 -14   41.80    6.40
   6  -3 -14   44.80    5.80
  -6  -3  14   51.89    6.50
  -6  -3  14   60.49    7.80
  -6  -3  14   59.09    7.30
   6  -3 -14   59.29    7.00
   6  -3 -14   61.69    4.90
   6   3 -14   58.89    9.20
  -6   3  14   44.10   11.30
   6   3 -14   55.79    6.20
   6   3 -14   47.00    6.60
   6   3 -14   46.20    6.90
  -6   3  14   50.69    7.20
   5  -3 -14   24.00    4.60
  -5  -3  14   29.90    5.00
   5  -3 -14   31.10    5.50
  -5  -3  14   32.10    6.70
  -5  -3  14   37.50    5.80
  -5  -3  14   30.80    5.80
   5  -3 -14   21.80    5.00
   5  -3 -14   26.60    3.10
   5   3 -14   28.40    4.50
   5   3 -14   24.40    4.00
   5   3 -14   35.00    5.60
   5   3 -14   22.40    7.00
   5   3 -14    8.30   13.00
   5   3 -14   37.60    7.00
  -5   3  14   38.40    9.10
  -5   3  14   25.40    6.00
   4  -3 -14   40.60    3.80
   4  -3 -14   34.00    4.50
  -4  -3  14   34.50    4.60
  -4  -3  14   33.40    6.00
  -4  -3  14   36.00    5.30
  -4  -3  14   36.60    5.60
   4  -3 -14   38.30    5.30
   4  -3 -14   36.40    5.20
   4   3 -14   12.90   12.80
   4   3 -14   34.90    4.10
  -4   3  14   46.20    7.70
   4   3 -14   35.20    6.20
   4   3 -14   38.00    6.70
   4   3 -14   44.80    5.80
   3  -3 -14    6.50    3.30
   3  -3 -14    7.70    2.40
  -3  -3  14    9.70    4.40
  -3  -3  14    7.30    3.80
  -3  -3  14    1.20    3.70
  -3  -3  14    8.10    3.30
   3  -3 -14    8.40    4.10
   3  -3 -14    6.00    3.60
  -3   3  14    6.30    3.60
   3   3 -14   10.00    2.30
   3   3 -14   15.40    4.80
  -3   3  14   13.40    6.00
  -3   3  14   10.20    4.40
   3   3 -14   10.20    4.00
   3   3 -14   22.30   12.60
   2  -3 -14   28.90    4.30
  -2  -3  14   19.10    4.30
   2  -3 -14   26.40    4.00
  -2  -3  14   22.10    3.00
   2  -3 -14   20.60    2.70
  -2  -3  14   23.80    4.40
   2  -3 -14   27.40    4.00
  -2  -3  14   19.80    4.10
   2   3 -14   20.80    4.70
   2   3 -14   18.80    5.10
  -2   3  14   21.40    3.60
  -2   3  14   22.70    5.10
  -2   3  14   18.80    4.30
   2   3 -14    1.50   11.80
   2   3 -14   37.10    4.70
  -2   3  14   25.00    5.10
   1  -3 -14   37.20    3.50
   1  -3 -14   54.79    5.70
  -1  -3  14   42.00    4.80
  -1  -3  14   39.90    5.10
   1  -3 -14   51.29    6.20
  -1  -3  14   50.39    5.00
   1  -3 -14   43.80    5.30
  -1   3  14   39.30    4.70
  -1   3  14   37.70    4.90
   1   3 -14   15.90   12.60
   1   3 -14   45.50    5.30
  -1   3  14   30.30    5.60
   1   3 -14   39.50    5.30
   0  -3 -14  292.77   11.00
   0  -3  14  292.27   11.80
   0  -3  14  283.17   10.60
   0  -3 -14  277.37   11.70
   0  -3  14  292.57   12.10
   0  -3 -14  267.17   12.40
   0  -3  14  295.17   11.40
   0  -3 -14  292.07   12.10
   0   3  14  294.97   12.10
   0   3 -14  295.77   11.80
   0   3  14  286.17   12.30
   0   3  14  263.87   12.80
   0   3 -14  247.48   22.30
   0   3 -14  284.77   11.80
  -1  -3 -14   73.69    6.60
   1  -3  14   83.29    6.30
   1  -3  14   79.39    6.10
   1  -3  14   80.09    6.70
  -1  -3 -14   74.49    7.70
  -1  -3 -14   85.69    7.10
  -1  -3 -14   98.99    5.70
   1  -3  14   96.99    4.60
  -1   3 -14   87.29   16.70
  -1   3 -14   89.39    7.20
   1   3  14   88.29    7.90
  -1   3 -14   90.29    6.90
   1   3  14   79.29    7.40
   2  -3  14   -1.30    3.30
  -2  -3 -14   -1.10    4.20
   2  -3  14   -2.50    3.30
  -2  -3 -14   -1.60    3.60
   2  -3  14    2.90    4.20
  -2  -3 -14   -6.60    3.50
  -2  -3 -14   -1.10    4.00
  -2   3 -14    5.30   15.10
   2   3  14   -9.40    4.60
  -2   3 -14   -2.20    4.30
   2   3  14    2.90    2.40
   2   3  14    3.50    2.90
   2   3  14   -0.90    4.50
  -2   3 -14   -0.50    3.60
   3  -3  14    8.10    4.40
   3  -3  14    9.20   10.80
   3  -3  14   12.00    4.20
  -3  -3 -14   12.30    4.70
   3  -3  14   13.70    2.70
  -3  -3 -14    4.70    5.20
  -3  -3 -14    1.10    4.30
  -3  -3 -14   -0.90    4.90
   3  -3  14    7.00    4.40
   3   3  14    5.40    3.60
   3   3  14    1.80    3.70
  -3   3 -14   -0.50    3.80
   3   3  14    7.20    5.50
   3   3  14    0.50    4.40
  -3   3 -14    5.40   15.80
   3   3  14   -1.50    5.90
  -4  -3 -14  160.18   11.70
   4  -3  14  158.78    9.30
   4  -3  14  159.18   10.20
   4  -3  14  190.68   10.50
  -4  -3 -14  155.18   10.40
  -4  -3 -14  169.68   12.60
   4  -3  14  172.88    7.30
  -4  -3 -14  168.58   10.40
   4  -3  14  178.88   17.30
   4   3  14  169.08   12.20
  -4   3 -14  178.58   11.00
   4   3  14  168.38   10.00
   4   3  14  138.79   13.00
   4   3  14  154.88   10.00
   4   3  14  167.18   13.00
  -4   3 -14  169.28   21.80
   2  -4 -14   11.60    2.60
  -2  -4  14   11.70    4.50
  -2  -4  14   11.60    4.10
   2  -4 -14   18.50    4.20
   2  -4 -14    4.40    4.40
   2  -4 -14   12.50    2.20
  -2  -4  14    7.20    4.70
  -2  -4  14    9.10    4.60
   2   4 -14   18.50   15.80
  -2   4  14    4.40    6.30
   2   4 -14   15.30    5.90
  -2   4  14    0.10    8.30
  -1  -4  14   15.50   10.70
  -1  -4  14    8.20    4.20
   1  -4 -14    1.30    2.70
   1  -4 -14    5.70    4.40
  -1  -4  14    5.10    3.20
   1  -4 -14    7.90    4.20
  -1  -4  14    5.20    2.50
  -1  -4  14    0.30    4.80
   1   4 -14   -6.90   17.40
   1   4 -14    8.10    4.90
  -1   4  14    5.10    7.60
   0  -4  14    5.60    9.70
   0  -4  14    5.60    4.10
   0  -4  14    3.70    2.00
   0  -4 -14    6.20    3.50
   0  -4  14    4.80    2.70
   0  -4 -14    2.40    3.40
   0  -4  14    0.10    4.30
   0  -4 -14   -9.40    4.40
   0  -4 -14    5.90    4.50
   0   4  14    0.50    4.20
   0   4 -14    9.60    4.40
   0   4 -14    7.00    2.70
   0   4  14   22.20    5.60
   0   4 -14   -4.70   15.80
   0   4  14    5.90    7.80
  -1  -4 -14    3.10    4.70
  -1  -4 -14    0.20    5.00
  -1  -4 -14   16.40    4.50
   1  -4  14   -0.40    3.90
   1  -4  14    4.90    4.10
   1   4  14    5.90    7.90
  -1   4 -14    3.60    4.10
  -1   4 -14   13.10   17.80
   1   4  14   -3.30    5.80
   8   0 -15    4.90    7.60
  -8   0  15   -5.60    6.90
   8   0 -15    4.10    6.60
   8   0 -15   -4.90    6.00
  -8   0  15    1.20    7.20
   8   0 -15    0.20    6.10
  -8   0  15   16.80    7.10
  -8   0  15   -2.80    7.70
   7   0 -15  134.39   11.00
  -7   0  15  162.58   11.40
  -7   0  15  164.58   11.10
   7   0 -15  127.19    9.50
  -7   0  15  154.58   11.50
   7   0 -15  160.58   11.20
  -6   0  15    1.70    5.20
  -6   0  15   -2.80    5.00
  -6   0  15   -4.70    4.40
   6   0 -15   -5.50    5.20
   6   0 -15    3.70    4.50
   6   0 -15    1.10    4.70
  -6   0  15   -7.80    5.10
  -5   0  15   66.19    7.10
  -5   0  15   60.89    6.30
   5   0 -15   60.19    7.40
   5   0 -15   55.89    7.30
   5   0 -15   59.29    7.60
  -5   0  15   67.79    7.10
  -5   0  15   61.79    7.50
   5   0 -15   66.69    7.60
   4   0 -15    2.50    3.40
   4   0 -15   -2.80    3.40
  -4   0  15    0.60    3.60
   4   0 -15    2.60    4.30
  -4   0  15   -3.60    3.20
  -4   0  15    0.20    4.00
   4   0 -15    2.50    4.60
  -4   0  15    2.50    4.20
  -3   0  15  394.76   15.50
   3   0 -15  409.36   15.60
   3   0 -15  403.06   15.70
  -3   0  15  409.76   15.70
  -3   0  15  440.26   15.60
   3   0 -15  411.06   15.70
  -3   0  15  411.26   16.10
   3   0 -15  418.56   15.60
   2   0 -15    3.70    4.00
   2   0 -15    2.10    3.10
   2   0 -15    1.20    3.00
  -2   0  15    3.90    2.80
   2   0 -15    1.30    3.00
  -2   0  15   -2.60    3.10
  -2   0  15   -0.90    3.00
  -2   0  15   -1.10    2.60
   1   0 -15  853.61   28.20
  -1   0  15  838.82   28.10
   1   0 -15  819.72   28.50
   1   0 -15  850.11   28.10
  -1   0  15  827.52   28.20
  -1   0  15  844.22   28.30
  -1   0  15  842.02   28.50
   1   0 -15  837.32   28.40
   0   0 -15    3.10    3.00
   0   0 -15    3.10    2.90
   0   0  15    2.70    3.00
   0   0  15    5.60    3.10
   0   0  15    0.80    2.50
   0   0  15    3.50    1.70
   0   0 -15    0.80    3.10
   0   0 -15    3.70    3.50
   0   0  15   -1.10    3.20
   1   0  15    5.40    3.80
   1   0  15    4.20    2.20
   1   0  15   -2.90    2.30
  -1   0 -15   -1.00    4.00
  -1   0 -15   -1.10    3.40
  -1   0 -15    3.00    3.50
  -1   0 -15    1.20    2.90
   1   0  15    4.00    3.50
   1   0  15    3.30    3.20
  -2   0 -15    5.90    3.90
   2   0  15    0.00    3.20
   2   0  15    4.10    3.80
   2   0  15    3.80    3.20
  -2   0 -15    1.20    4.00
  -2   0 -15    2.80    3.30
   2   0  15    6.10    3.80
  -2   0 -15    4.10    2.90
  -3   0 -15  123.59    8.50
   3   0  15  149.79    7.80
   3   0  15  115.99    9.50
  -3   0 -15  130.09    8.50
   3   0  15  152.58    8.60
  -3   0 -15  125.99    8.80
  -3   0 -15  151.98    9.30
   3   0  15  155.78    8.90
   3   0  15  131.39    9.00
   4   0  15    3.10    4.10
   4   0  15   -0.50    4.90
   4   0  15    1.00    4.20
  -4   0 -15  -11.30    6.00
  -4   0 -15    0.80    5.50
   4   0  15    2.60    4.70
   4   0  15    3.60    4.40
  -4   0 -15    7.10    4.20
  -4   0 -15    1.90    4.80
  -5   0 -15   20.60    6.30
  -5   0 -15   -5.20    4.70
  -5   0 -15    8.70    5.90
   5   0  15    6.80    5.40
   5   0  15   14.30    6.50
  -5   0 -15    8.40    5.90
   5   0  15    8.50    5.50
  -6   0 -15    2.50    6.70
  -6   0 -15   -3.10    6.50
   6   0  15   -1.80    6.80
   6   0  15    1.00    6.70
  -6   0 -15   -1.60    6.50
  -6   0 -15    3.80    6.50
   6   0  15    0.40    5.90
   6   0  15    2.00    5.60
   7   0  15   12.10    7.10
  -7   0 -15   21.20    9.20
  -7   0 -15   18.20    7.50
  -7   0 -15   18.50    7.40
   7   0  15   28.50    7.40
  -7   0 -15   23.70    7.50
   7   0  15   15.00    6.10
   7   0  15   21.30    5.40
  -8  -1  15   34.40    7.50
   8  -1 -15   23.30    6.80
  -8  -1  15   26.70    8.60
  -8  -1  15   25.30    8.20
  -8  -1  15   27.20    6.80
   8  -1 -15   37.90    6.50
   8  -1 -15   40.70    7.30
   8  -1 -15   33.50    5.80
   8   1 -15   39.20    9.30
  -8   1  15   38.20    8.30
  -8   1  15   30.70    7.50
  -8   1  15   32.30    6.50
   8   1 -15   38.00    8.10
   8   1 -15   36.00    8.40
  -8   1  15   16.10    7.50
  -8   1  15   69.79   12.40
   8   1 -15   51.09    9.50
  -7  -1  15   -6.20    6.80
  -7  -1  15    4.10    5.60
   7  -1 -15    2.00    5.70
   7  -1 -15    1.20    4.40
  -7  -1  15   14.50    7.20
   7  -1 -15    1.30    5.90
   7  -1 -15   -9.10    5.50
   7   1 -15   -3.60    7.40
   7   1 -15   -9.60    5.20
   7   1 -15    0.30    6.20
   7   1 -15    5.30    6.20
  -7   1  15    2.90    5.30
  -7   1  15    2.60    9.60
  -7   1  15    2.90    5.10
  -7   1  15   11.80    6.30
  -6  -1  15  153.88   10.50
   6  -1 -15  137.89   10.00
   6  -1 -15  155.48    9.90
  -6  -1  15  140.99   10.00
  -6  -1  15  143.39   10.30
   6  -1 -15  146.49    9.10
   6  -1 -15  155.58    9.40
   6   1 -15  146.99   11.10
   6   1 -15  133.39   10.40
  -6   1  15  151.48   10.00
   6   1 -15  139.99   10.50
  -6   1  15  147.09    9.10
  -6   1  15  154.88    9.90
   5  -1 -15  167.68    9.40
   5  -1 -15  166.58    9.90
  -5  -1  15  168.28   10.10
   5  -1 -15  161.18    9.00
  -5  -1  15  183.48   10.80
  -5  -1  15  176.68   10.20
  -5  -1  15  166.18   10.20
   5  -1 -15  173.28    9.70
   5   1 -15  171.48    9.80
   5   1 -15  169.68   10.30
  -5   1  15  171.38   10.20
  -5   1  15  171.18    9.50
   5   1 -15  151.48   11.40
  -5   1  15  179.78    9.40
   5   1 -15  168.98   10.20
   4  -1 -15    9.80    3.80
  -4  -1  15   11.50    5.00
  -4  -1  15    8.30    3.80
  -4  -1  15   20.90    4.20
   4  -1 -15    9.80    3.90
  -4  -1  15   11.60    4.70
   4  -1 -15    9.50    4.00
   4  -1 -15    7.20    4.40
  -4   1  15    8.90    3.90
  -4   1  15    9.40    3.50
  -4   1  15   14.50    4.40
   4   1 -15    7.70    4.60
   4   1 -15    6.50    4.00
   4   1 -15    8.30    4.30
  -4   1  15   10.70    4.30
   4   1 -15    5.70    4.50
  -3  -1  15    0.80    3.30
  -3  -1  15    0.90    3.00
   3  -1 -15   -0.60    3.70
  -3  -1  15   -0.80    3.00
   3  -1 -15    1.80    3.30
   3  -1 -15    0.10    2.60
  -3  -1  15   -1.00    3.60
   3  -1 -15   -2.00    3.20
   3   1 -15   -2.00    3.20
  -3   1  15    1.40    3.50
  -3   1  15   -2.90    3.40
   3   1 -15    3.80    4.00
  -3   1  15   -0.10    2.90
   3   1 -15    4.00    4.80
   3   1 -15    5.50    3.90
  -3   1  15    1.80    3.80
  -2  -1  15  176.68    8.70
   2  -1 -15  189.98    8.80
  -2  -1  15  186.98    9.00
   2  -1 -15  184.58    8.80
  -2  -1  15  192.08    9.10
   2  -1 -15  181.38    8.60
  -2  -1  15  192.18    9.00
   2  -1 -15  197.28    9.30
  -2   1  15  181.68    8.40
  -2   1  15  188.08    8.80
   2   1 -15  185.18    9.00
  -2   1  15  181.28    8.60
  -2   1  15  186.28    9.00
   2   1 -15  186.38    8.70
   2   1 -15  179.98    9.00
   2   1 -15  201.68    9.90
   1  -1 -15  151.28    7.60
   1  -1 -15  147.19    7.60
   1  -1 -15  141.09    8.10
   1  -1 -15  147.09    7.80
  -1  -1  15  157.68    7.80
  -1  -1  15  146.09    7.70
  -1  -1  15  151.28    8.10
  -1  -1  15  151.18    7.70
   1   1 -15  152.48    7.50
   1   1 -15  154.78    8.10
  -1   1  15  144.49    7.80
   1   1 -15  159.88    8.00
  -1   1  15  147.69    8.40
  -1   1  15  152.58    7.40
  -1   1  15  150.88    7.70
  -1   1  15  155.18    7.00
   1   1 -15  156.88    7.90
   0  -1  15   71.79    6.10
   0  -1 -15   72.09    5.80
   0  -1  15   70.99    5.70
   0  -1 -15   76.59    6.00
   0  -1  15   74.49    5.40
   0  -1 -15   79.39    5.80
   0  -1  15   80.79    5.30
   0  -1 -15   68.99    6.40
   0   1 -15   71.29    5.40
   0   1  15   67.59    6.10
   0   1 -15   70.89    6.50
   0   1  15   71.79    5.60
   0   1  15   67.29    5.50
   0   1  15   78.99    5.00
   0   1  15   70.19    6.00
   0   1 -15   78.69    6.00
   0   1 -15   76.09    5.90
   1  -1  15   50.09    5.10
   1  -1  15   45.90    5.10
   1  -1  15   45.10    5.00
   1  -1  15   49.60    5.60
  -1  -1 -15   44.80    5.60
  -1  -1 -15   48.30    5.30
  -1  -1 -15   41.60    5.40
  -1  -1 -15   32.40    4.00
  -1   1 -15   45.00    5.40
   1   1  15   42.60    5.40
  -1   1 -15   48.40    5.00
   1   1  15   48.90    6.00
  -1   1 -15   42.70    5.60
  -1   1 -15   43.70    5.50
   1   1  15   46.80    4.70
   1   1  15   36.20    2.60
   1   1  15   40.30    5.10
   1   1  15   47.90    4.40
   2  -1  15  145.89   10.10
  -2  -1 -15  173.28    9.30
   2  -1  15  153.48    8.30
  -2  -1 -15  150.28    8.40
   2  -1  15  164.58    8.50
   2  -1  15  152.38    8.20
   2  -1  15  165.78    9.00
  -2  -1 -15  163.58    9.10
  -2  -1 -15  149.29    8.70
   2   1  15  155.38    8.60
   2   1  15  156.08    9.10
   2   1  15  155.48    8.90
   2   1  15  144.49    8.50
  -2   1 -15  161.28    9.10
  -2   1 -15  160.78    8.00
  -2   1 -15  158.38    8.50
  -2   1 -15  168.28    8.50
   2   1  15  151.78    7.70
   3  -1  15   -3.60    3.50
   3  -1  15    7.60    5.60
  -3  -1 -15   -0.40    4.40
   3  -1  15    1.70    4.30
   3  -1  15   -4.70    3.80
  -3  -1 -15    1.40    4.30
  -3  -1 -15   -0.90    4.80
  -3  -1 -15    4.00    4.20
  -3   1 -15   -0.40    3.80
   3   1  15    4.30    4.30
  -3   1 -15    1.10    4.60
  -3   1 -15    0.70    3.50
   3   1  15    5.30    4.40
   3   1  15   -1.10    4.40
   3   1  15    3.80    4.90
  -3   1 -15    9.90    4.80
   4  -1  15    1.20    4.20
   4  -1  15    9.00    3.80
  -4  -1 -15    3.00    5.40
  -4  -1 -15   11.50    5.90
   4  -1  15    7.40    6.10
  -4  -1 -15    6.80    4.50
   4  -1  15    5.20    4.70
   4  -1  15    5.50    4.20
   4   1  15    9.10    6.10
   4   1  15   11.10    4.80
   4   1  15    7.70    4.70
  -4   1 -15    0.50    4.40
  -4   1 -15    7.60    5.60
   4   1  15    9.10    4.90
  -4   1 -15   -0.90    4.30
  -5  -1 -15   -2.70    5.10
   5  -1  15   -1.70    6.90
   5  -1  15    4.40    4.60
  -5  -1 -15   -5.30    6.20
   5  -1  15  -11.00    5.10
   5  -1  15    5.60    5.30
  -5  -1 -15    6.20    6.60
   5  -1  15    2.90    3.90
   5   1  15    4.10    5.40
  -5   1 -15    4.60    4.70
  -5   1 -15    5.20    4.80
   5   1  15   -5.20    5.90
  -5   1 -15    8.80    7.00
   5   1  15    3.80    6.50
  -6  -1 -15   77.39    9.20
   6  -1  15   61.09    7.20
   6  -1  15   78.59    9.60
  -6  -1 -15   78.49   10.30
  -6  -1 -15   77.29   10.00
  -6  -1 -15   80.39    8.80
   6  -1  15   80.79    9.40
   6  -1  15   89.79   10.10
   6   1  15   89.89   10.00
   6   1  15   56.99    8.60
  -6   1 -15   84.69    9.20
  -6   1 -15   70.89    8.70
  -6   1 -15   76.49    8.90
   6   1  15   89.99    9.60
   6   1  15   89.59   10.60
  -6   1 -15   76.79   11.60
   7  -1  15   28.10    6.50
  -7   1 -15   12.20    8.20
   7   1  15   20.30    8.40
   7  -2 -15    9.70    5.50
  -7  -2  15    4.80    5.50
   7  -2 -15    0.60    6.00
  -7  -2  15   11.00    5.50
   7  -2 -15    5.10    5.10
  -7  -2  15    6.20    6.60
   7  -2 -15    3.00    5.70
  -7  -2  15   -2.40    6.30
  -7   2  15    3.60    4.40
  -7   2  15    3.50    6.90
   7   2 -15    1.90    6.80
  -7   2  15   -2.10    6.70
   7   2 -15    4.90   12.20
   7   2 -15   -3.80    5.80
  -7   2  15   12.00   10.40
  -7   2  15    3.50    3.70
   7   2 -15    7.20    7.80
   6  -2 -15   19.00    5.10
  -6  -2  15   19.70    5.20
   6  -2 -15   27.20    4.90
  -6  -2  15   26.10    6.50
   6  -2 -15   23.10    5.80
  -6  -2  15   28.60    6.20
   6  -2 -15   25.10    5.00
  -6  -2  15   31.70    6.70
  -6   2  15   19.30    3.60
  -6   2  15   24.40    6.00
   6   2 -15   21.10    5.70
  -6   2  15   14.10    8.90
  -6   2  15   20.00    4.10
   6   2 -15   45.70    7.70
   6   2 -15   41.40   14.70
  -6   2  15   23.40    6.30
   5  -2 -15   11.40    4.00
  -5  -2  15    9.10    4.30
   5  -2 -15    9.50    4.00
   5  -2 -15   17.30    4.80
  -5  -2  15   22.90    5.30
  -5  -2  15   11.00    5.10
   5  -2 -15    8.90    4.20
  -5  -2  15   12.50    5.20
  -5   2  15   13.20    3.20
   5   2 -15   12.50    5.10
  -5   2  15   15.90    4.60
   5   2 -15   13.50    5.90
   5   2 -15   16.80    4.80
  -5   2  15   13.60    3.00
  -5   2  15   14.10    7.80
  -4  -2  15   23.80    4.40
   4  -2 -15   25.90    4.80
   4  -2 -15   20.40    3.90
  -4  -2  15   24.60    5.10
   4  -2 -15   20.80    3.70
   4  -2 -15   23.20    4.60
  -4  -2  15   25.20    5.00
  -4  -2  15   12.00    4.50
  -4   2  15   25.60    5.00
  -4   2  15   27.00    6.90
  -4   2  15   23.30    3.10
   4   2 -15   23.60    4.40
   4   2 -15   18.20    4.50
  -4   2  15   19.20    3.40
   4   2 -15   23.30    5.90
  -4   2  15   16.80    4.80
  -3  -2  15  158.08    8.50
   3  -2 -15  152.58    7.90
   3  -2 -15  157.38    8.50
   3  -2 -15  167.18    8.50
  -3  -2  15  143.69    9.10
  -3  -2  15  158.18    8.60
  -3  -2  15  170.18    8.90
   3  -2 -15  154.38    8.30
  -3   2  15  157.58    7.50
  -3   2  15  150.98    6.90
   3   2 -15  159.58    8.40
   3   2 -15  160.28    8.10
  -3   2  15  159.88    9.70
  -3   2  15  152.98    8.70
   3   2 -15  160.88    7.30
   3   2 -15  155.28    9.70
   3   2 -15  160.48    8.80
  -3   2  15  157.58    8.70
  -2  -2  15   75.79    5.60
  -2  -2  15   69.99    6.30
   2  -2 -15   65.89    5.40
   2  -2 -15   64.99    6.20
   2  -2 -15   66.49    5.90
   2  -2 -15   62.79    5.80
  -2  -2  15   71.59    6.10
  -2  -2  15   67.49    6.40
   2   2 -15   63.29    5.70
  -2   2  15   65.19    6.40
  -2   2  15   64.09    6.30
  -2   2  15   78.69    6.70
   2   2 -15   78.69    7.20
   2   2 -15   64.99    5.30
  -2   2  15   68.69    6.40
   2   2 -15   59.09    6.40
   2   2 -15   69.49    4.50
  -2   2  15   70.89    5.40
   1  -2 -15  198.08    9.00
   1  -2 -15  197.28    9.20
  -1  -2  15  194.88    8.90
  -1  -2  15  201.18    9.30
  -1  -2  15  176.88    9.40
  -1  -2  15  211.48    9.40
   1  -2 -15  163.88    9.50
   1  -2 -15  206.48    9.30
   1   2 -15  204.48    8.40
  -1   2  15  203.48    8.60
   1   2 -15  208.58   10.20
  -1   2  15  210.08    8.50
  -1   2  15  194.78    8.60
  -1   2  15  190.28    9.60
  -1   2  15  218.38    9.80
  -1   2  15  190.78    9.40
   1   2 -15  204.88    8.70
   1   2 -15  198.78    9.60
   0  -2  15  113.19    7.30
   0  -2  15  124.99    6.60
   0  -2  15  135.99    7.30
   0  -2 -15  135.39    7.90
   0  -2 -15  132.89    7.50
   0  -2 -15  123.29    7.00
   0  -2 -15  122.49    7.30
   0  -2  15  123.49    7.20
   0   2  15  125.69    6.90
   0   2  15  127.99    8.10
   0   2  15  124.59    7.40
   0   2 -15  124.89    6.00
   0   2  15  125.29    7.80
   0   2 -15  124.59    8.10
   0   2 -15  117.39    6.40
   0   2 -15  116.39    7.60
   0   2  15  128.39    6.80
   1  -2  15  167.88    8.60
  -1  -2 -15  167.28    9.20
   1  -2  15  175.28    8.10
   1  -2  15  178.48    8.70
   1  -2  15  178.38   12.30
  -1  -2 -15  180.58    9.10
   1  -2  15  168.28    9.00
  -1  -2 -15  182.48    8.90
  -1  -2 -15  183.48    9.40
   1   2  15  176.08    9.70
  -1   2 -15  176.58    7.70
   1   2  15  176.78    8.70
  -1   2 -15  170.88    9.10
  -1   2 -15  182.58    9.00
   1   2  15  177.88    9.40
   1   2  15  176.68    9.00
  -1   2 -15  177.28    7.40
   1   2  15  174.78    8.40
  -2  -2 -15   98.89    7.90
  -2  -2 -15   95.79    7.20
   2  -2  15   91.49    7.30
  -2  -2 -15   99.19    7.60
   2  -2  15   89.99   11.20
   2  -2  15   91.39    6.50
   2  -2  15  102.29    7.10
   2  -2  15  107.99    6.20
  -2  -2 -15   94.39    7.10
   2   2  15   95.59    7.10
  -2   2 -15   93.09   17.40
   2   2  15  101.59    7.60
   2   2  15  103.79    7.20
  -2   2 -15   96.49    5.80
   2   2  15  101.79    7.40
  -2   2 -15  107.89    5.50
  -2   2 -15  102.19    7.40
  -2   2 -15   89.79    7.50
   2   2  15  105.49    7.00
  -3  -2 -15    3.40    4.40
   3  -2  15    1.40    3.60
   3  -2  15   -1.60    3.30
  -3  -2 -15   -0.10    3.40
  -3  -2 -15   -2.00    4.50
   3  -2  15   -1.40    3.40
  -3  -2 -15    2.20    4.50
   3  -2  15    3.50    4.10
   3  -2  15    6.60    7.80
   3   2  15   -1.10    4.20
  -3   2 -15   14.00   16.00
  -3   2 -15   -2.00    4.20
   3   2  15   -0.80    4.50
  -3   2 -15   -0.20    2.70
   3   2  15    0.60    3.60
   3   2  15    0.40    5.00
  -3   2 -15   -3.00    4.60
  -3   2 -15    1.20    2.80
  -4  -2 -15   66.29    7.50
   4  -2  15   78.99    6.70
   4  -2  15   60.09    8.00
  -4  -2 -15   81.49    8.90
   4  -2  15   72.59    7.30
   4  -2  15   74.89    6.40
  -4  -2 -15   75.09    9.60
  -4  -2 -15   64.69    8.20
  -4   2 -15   66.59    5.90
  -4   2 -15   75.99    5.80
  -4   2 -15  105.79   20.50
  -4   2 -15   68.89    7.80
   4   2  15   77.99    8.50
   4   2  15   86.49    9.00
   4   2  15   81.49   10.20
   4   2  15   74.29    7.00
   5  -2  15   72.19   11.30
  -5  -2 -15   80.39   10.10
   5  -2  15   70.09    8.00
   5  -2  15   69.89    7.90
  -5  -2 -15   83.89    9.60
  -5  -2 -15   68.59    8.70
   5  -2  15   70.49    9.00
   5  -2  15   67.49    7.30
  -5  -2 -15   69.19    8.80
  -5   2 -15  116.29   20.10
  -5   2 -15   52.09    6.50
   5   2  15   62.79    7.50
   5   2  15   80.19    9.50
   5   2  15   96.99   10.70
  -5   2 -15   71.49    9.10
  -5   2 -15   69.29    8.70
  -5   2 -15   59.99    6.10
   6  -2  15   -1.80    5.70
  -6  -2 -15    7.30    6.40
   6  -2  15    5.60    5.40
  -6  -2 -15    1.80    9.00
  -6  -2 -15   12.30    6.70
   6  -2  15    7.20    5.30
   6  -2  15   -8.30   11.50
   6  -2  15   -0.60    7.00
  -6  -2 -15   -4.10    5.90
   6   2  15    1.30    7.60
   6   2  15    7.50    9.50
   6   2  15    3.70    7.30
  -6   2 -15    4.50    5.00
  -6   2 -15   -5.20    3.90
  -6   2 -15   -0.30    8.50
  -6   2 -15   -8.00   17.10
   6   2  15   -1.80    7.30
  -6   2 -15    1.70    6.10
  -6  -3  15  -10.40    6.20
   6  -3 -15   -3.20    4.50
  -6  -3  15    9.70    7.20
  -6  -3  15    1.20    5.90
   6  -3 -15    2.90    5.80
  -6  -3  15    4.80    5.40
   6  -3 -15    1.60    6.20
   6   3 -15   -1.90    5.80
   6   3 -15   -0.10    7.90
   6   3 -15   -4.80    4.50
  -6   3  15   -2.00   10.40
  -6   3  15    6.30    6.30
   6   3 -15    5.60    6.30
   6   3 -15   -7.30    5.80
  -6   3  15   10.20    4.80
   5  -3 -15   18.90    3.10
  -5  -3  15   12.90    5.60
  -5  -3  15   18.60    5.90
  -5  -3  15   12.20    5.00
   5  -3 -15   11.90    5.20
  -5  -3  15    9.30    6.40
   5  -3 -15   14.30    4.70
   5  -3 -15   15.00    4.40
   5   3 -15   16.40    3.80
   5   3 -15   15.80    5.20
   5   3 -15   25.60    7.20
  -5   3  15   16.50    5.90
   5   3 -15   16.60    4.50
   5   3 -15    6.20   14.00
   5   3 -15   11.50    6.80
  -5   3  15   13.10    8.10
  -4  -3  15    9.30    5.60
   4  -3 -15   19.60    2.70
  -4  -3  15   20.80    5.30
   4  -3 -15   17.60    4.40
   4  -3 -15   17.70    4.90
  -4  -3  15   19.30    5.10
  -4  -3  15   14.00    4.00
   4  -3 -15   12.80    4.70
   4   3 -15   18.30    4.60
  -4   3  15   13.90    7.20
   4   3 -15   -2.40   12.70
   4   3 -15   13.80    5.70
   4   3 -15   12.60    3.50
   4   3 -15   20.70    6.50
   3  -3 -15   40.40    4.50
  -3  -3  15   49.30    5.50
  -3  -3  15   48.60    5.30
   3  -3 -15   46.90    5.50
  -3  -3  15   53.39    5.70
   3  -3 -15   49.70    4.00
  -3  -3  15   54.39    7.10
   3  -3 -15   55.69    5.50
  -3   3  15   33.80    4.90
  -3   3  15   41.80    5.50
   3   3 -15   50.69    5.90
   3   3 -15   45.00    6.30
   3   3 -15   39.10    4.20
  -3   3  15   59.19    7.30
  -2  -3  15    3.00    3.80
  -2  -3  15    3.10    2.50
   2  -3 -15    0.10    3.40
   2  -3 -15    3.40    2.40
   2  -3 -15   -4.50    3.80
  -2  -3  15   10.30    3.70
  -2  -3  15   -0.60    4.20
   2  -3 -15   -4.00    3.60
  -2   3  15    4.50    4.60
   2   3 -15   -0.70    4.40
  -2   3  15   -4.60    4.40
  -2   3  15    1.40    3.90
   2   3 -15   -1.10   10.80
   2   3 -15    6.50    4.40
  -2   3  15   10.90    3.50
   2   3 -15    4.50    3.90
   1  -3 -15   13.30    4.10
  -1  -3  15    5.10    4.10
  -1  -3  15   12.10    2.40
   1  -3 -15   11.50    2.40
  -1  -3  15   20.30    4.00
   1  -3 -15   11.00    4.40
  -1  -3  15    4.70    4.20
   1   3 -15   16.80    4.10
   1   3 -15   24.70   12.20
  -1   3  15    9.30    4.10
  -1   3  15    6.60    4.20
   1   3 -15   12.40    4.70
  -1   3  15    9.50    4.80
   0  -3 -15   43.30    4.00
   0  -3 -15   36.00    5.20
   0  -3  15   43.60    3.60
   0  -3 -15   38.50    4.60
   0  -3  15   35.00    4.50
   0  -3  15   37.80    5.00
   0  -3  15   46.20    5.20
   0  -3 -15   36.00    5.00
   0   3 -15   33.70    5.10
   0   3  15   32.70    5.40
   0   3  15   37.20    6.30
   0   3 -15   56.89   16.10
   0   3  15   28.80    4.80
   0   3 -15   36.10    5.10
   1  -3  15   58.09    6.30
   1  -3  15   72.79    4.20
  -1  -3 -15   59.39    7.30
  -1  -3 -15   61.19    6.40
  -1  -3 -15   58.99    7.00
   1  -3  15   64.69    5.90
  -1  -3 -15   62.49    5.50
   1  -3  15   55.79    6.90
   1   3  15   56.69    7.00
  -1   3 -15   56.49    6.30
  -1   3 -15   52.89    6.90
  -1   3 -15   55.19   15.80
   1   3  15   44.30    4.00
   1   3  15   61.09    7.20
   2  -3  15   47.00    5.50
   2  -3  15   46.20    5.00
   2  -3  15   63.19    4.00
  -2  -3 -15   43.20    5.40
  -2  -3 -15   56.59    6.20
  -2  -3 -15   54.79    6.70
  -2  -3 -15   64.29    7.20
   2  -3  15   44.50   11.00
   2  -3  15   48.50    5.40
   2   3  15   49.70    5.40
  -2   3 -15   57.49   16.20
   2   3  15   35.90    6.30
   2   3  15   46.80    6.10
   2   3  15   47.90    6.70
   3  -3  15    4.50   10.50
   3  -3  15    3.00    4.20
  -3  -3 -15   -3.60    5.20
   3  -3  15    6.50    4.70
  -3  -3 -15    7.40    4.60
   3  -3  15    4.50    2.80
   3  -3  15    7.60    4.20
  -3  -3 -15    3.80    6.00
  -3  -3 -15    2.70    4.60
   3   3  15    5.70    3.90
  -3   3 -15    5.60    4.30
   3   3  15    9.50    6.50
   3   3  15    9.00    5.30
   3   3  15    1.50    5.50
   3   3  15   10.30    3.70
  -3   3 -15    9.90   16.40
   4  -3  15    4.20    5.20
  -4  -3 -15   11.40    7.20
   4  -3  15    9.10    8.60
   4  -3  15   -3.70    4.60
  -4  -3 -15   -3.90    5.90
  -4  -3 -15   -3.20    5.80
   4  -3  15   10.60    5.00
  -4  -3 -15   -6.90    5.30
   4   3  15   -1.50    8.60
   4   3  15    8.60    5.00
  -4   3 -15    8.60   17.90
   4   3  15    6.40    7.50
  -4   3 -15   -2.90    4.70
   4   3  15    2.40    5.10
   4   3  15    0.90    6.00
  -4   3 -15    2.90    6.10
   1  -4 -15   -1.70    4.40
  -1  -4  15   -1.70    3.40
   1  -4 -15   -4.30    4.10
  -1  -4  15   -6.80    4.20
  -1  -4  15   -0.60    4.80
  -1   4  15    0.00    4.90
   1   4 -15   -2.70    4.90
   1   4 -15   -8.60   16.40
  -1   4  15   12.40    8.50
   8   0 -16   -4.50    6.70
   8   0 -16   22.60    7.20
   8   0 -16   20.70    7.90
   8   0 -16   18.00    6.50
  -8   0  16   30.20    7.60
  -8   0  16   12.50    7.30
  -8   0  16    9.60    7.00
  -8   0  16   17.00    8.20
  -7   0  16    4.10    6.00
  -7   0  16   -0.30    6.50
   7   0 -16   -7.10    6.90
   7   0 -16    7.40    5.90
  -7   0  16   -3.70    6.80
  -7   0  16   -5.00    5.10
   7   0 -16    0.90    6.00
  -6   0  16  221.48   12.30
   6   0 -16  221.18   12.30
   6   0 -16  238.88   11.90
  -6   0  16  191.78   11.80
  -6   0  16  229.68   12.60
   6   0 -16  224.48   12.40
  -6   0  16  245.98   13.50
  -5   0  16    5.30    4.50
   5   0 -16    2.40    4.30
   5   0 -16    2.90    4.90
  -5   0  16    1.70    4.00
  -5   0  16    1.80    5.80
  -5   0  16   -0.40    4.80
   5   0 -16    7.50    5.00
   5   0 -16    2.60    3.90
   4   0 -16  431.46   16.40
   4   0 -16  411.96   16.00
  -4   0  16  403.96   16.10
  -4   0  16  411.36   16.20
  -4   0  16  415.66   16.60
   4   0 -16  406.16   16.30
  -4   0  16  343.47   15.70
   4   0 -16  412.46   16.10
  -3   0  16   -3.50    3.60
  -3   0  16   -3.30    3.50
   3   0 -16    4.10    3.80
   3   0 -16    2.90    3.90
  -3   0  16    0.50    2.90
   3   0 -16    4.20    3.20
   3   0 -16   -0.30    3.50
  -3   0  16    2.80    4.30
   2   0 -16  420.76   15.30
  -2   0  16  375.76   15.10
   2   0 -16  424.96   15.60
   2   0 -16  405.96   15.60
   2   0 -16  409.96   15.40
  -2   0  16  409.16   15.30
  -2   0  16  401.66   15.80
  -2   0  16  392.96   15.20
   1   0 -16    6.70    3.60
   1   0 -16    5.70    3.70
   1   0 -16    0.40    2.80
  -1   0  16    8.50    3.00
  -1   0  16    2.70    3.30
  -1   0  16    3.70    3.30
   1   0 -16    0.40    3.10
  -1   0  16    3.80    3.90
   0   0 -16   18.40    3.70
   0   0 -16   14.20    3.60
   0   0  16   14.80    3.20
   0   0  16   13.40    3.90
   0   0  16   14.30    3.90
   0   0 -16   17.10    3.80
   0   0  16   19.30    2.10
   0   0  16   20.70    4.00
   0   0 -16   16.80    4.20
   1   0  16   -1.00    2.90
  -1   0 -16    2.00    3.10
  -1   0 -16    0.90    3.50
  -1   0 -16   -4.00    3.80
   1   0  16    0.30    2.10
   1   0  16    0.80    3.60
  -1   0 -16   -2.90    3.30
   1   0  16    4.40    2.80
   1   0  16    1.70    3.20
  -2   0 -16   78.39    7.20
   2   0  16   73.99    7.00
  -2   0 -16   77.39    6.70
  -2   0 -16   79.79    7.30
  -2   0 -16   78.39    6.90
   2   0  16   78.39    6.40
   2   0  16   71.99    7.00
   2   0  16   81.99    6.20
   3   0  16   -0.60    4.10
   3   0  16   -0.10    4.10
  -3   0 -16    5.20    5.10
   3   0  16    0.70    4.60
  -3   0 -16   -1.50    5.70
  -3   0 -16    0.90    3.70
   3   0  16   -4.50    3.60
   3   0  16    0.30    3.70
  -3   0 -16    3.00    4.60
   4   0  16   -1.30    5.00
  -4   0 -16    3.00    5.60
  -4   0 -16    1.40    5.30
   4   0  16    3.50    5.20
   4   0  16    2.50    4.80
   4   0  16    9.50    4.60
  -4   0 -16    8.40    5.20
  -4   0 -16    4.80    4.60
  -5   0 -16    5.90    6.80
   5   0  16   -1.20    5.20
  -5   0 -16    1.50    6.20
   5   0  16    5.40    5.80
   5   0  16   -0.20    5.20
  -5   0 -16   -5.00    6.50
  -6   0 -16    2.00    6.90
   6   0  16    7.50    6.10
   6   0  16   -4.20    7.10
  -6   0 -16   16.80    8.10
   6   0  16    6.60    6.20
   6   0  16   -1.70    7.50
  -6   0 -16    7.50    7.40
  -6   0 -16    6.10    6.70
  -8  -1  16   39.60    8.60
   8  -1 -16   29.80    7.70
  -8  -1  16   41.00    7.20
   8  -1 -16   31.80    6.50
  -8  -1  16   32.70    9.00
   8  -1 -16   35.00    6.20
  -8  -1  16   31.70    7.30
   8  -1 -16   31.70    7.40
   8   1 -16   26.40    8.20
  -8   1  16   39.60    8.20
  -8   1  16   41.60    8.00
   8   1 -16   11.60    5.90
  -8   1  16   41.00   11.50
   8   1 -16   24.00    7.80
  -8   1  16   32.50    7.40
  -8   1  16   31.50    6.80
   8   1 -16   39.50    7.50
  -7  -1  16    6.50    6.40
   7  -1 -16    5.80    5.90
   7  -1 -16    8.50    5.50
   7  -1 -16   14.50    6.00
  -7  -1  16    8.10    6.70
  -7  -1  16   11.30    6.90
   7  -1 -16   10.50    6.00
  -7   1  16   -3.00    4.90
   7   1 -16   14.40    6.90
   7   1 -16   10.10    6.90
  -7   1  16    5.20    4.90
  -7   1  16    5.50   10.40
   7   1 -16   -1.00    6.00
   7   1 -16   12.90    7.20
  -7   1  16   11.20    5.80
  -6  -1  16   21.70    5.30
   6  -1 -16   14.70    4.80
  -6  -1  16   22.00    6.50
   6  -1 -16   28.60    5.80
   6  -1 -16   13.70    5.10
  -6  -1  16   15.20    6.40
   6  -1 -16   18.20    5.70
   6   1 -16   14.60    6.30
  -6   1  16   22.20    7.00
  -6   1  16   31.50    5.60
   6   1 -16   18.20    5.70
   6   1 -16   27.10    7.30
  -6   1  16   21.60    5.10
  -5  -1  16  974.00   35.30
   5  -1 -16  970.80   34.80
   5  -1 -16 1014.20   35.00
  -5  -1  16 1082.09   35.80
   5  -1 -16 1062.29   35.20
   5  -1 -16 1046.10   35.00
  -5  -1  16 1071.99   35.40
  -5   1  16  986.40   34.60
   5   1 -16 1035.10   35.60
   5   1 -16  991.00   35.10
  -5   1  16  973.50   35.00
  -5   1  16 1010.40   34.60
   5   1 -16 1003.00   35.20
   5   1 -16 1099.39   35.90
   4  -1 -16  475.95   18.60
  -4  -1  16  495.85   18.80
   4  -1 -16  459.45   18.10
   4  -1 -16  502.05   18.60
   4  -1 -16  490.15   18.70
  -4  -1  16  472.05   18.50
  -4  -1  16  478.35   18.50
  -4  -1  16  499.45   18.70
   4   1 -16  475.55   18.60
   4   1 -16  429.06   18.60
   4   1 -16  498.75   19.40
   4   1 -16  522.15   18.80
  -4   1  16  519.55   18.10
  -4   1  16  485.95   18.60
  -4   1  16  486.25   18.20
  -4   1  16  500.35   18.80
  -3  -1  16    8.70    4.20
   3  -1 -16    1.50    3.60
  -3  -1  16    0.50    3.60
   3  -1 -16    7.30    4.80
  -3  -1  16    3.10    3.60
  -3  -1  16    9.00    4.00
   3  -1 -16   -2.10    3.70
   3  -1 -16    2.90    3.50
  -3   1  16   -1.60    3.80
  -3   1  16    2.60    3.70
   3   1 -16    7.20    4.50
  -3   1  16    3.10    4.20
   3   1 -16    1.90    3.90
  -3   1  16    7.20    3.40
   3   1 -16    3.90    3.20
   3   1 -16    6.00    4.10
  -2  -1  16  586.24   20.80
   2  -1 -16  564.64   20.60
  -2  -1  16  565.44   21.00
   2  -1 -16  560.24   20.70
   2  -1 -16  578.54   20.70
  -2  -1  16  595.64   20.80
  -2  -1  16  600.54   21.00
   2  -1 -16  601.94   21.20
  -2   1  16  599.24   21.30
  -2   1  16  584.64   20.80
   2   1 -16  597.44   21.20
  -2   1  16  587.94   20.60
   2   1 -16  567.44   20.70
   2   1 -16  582.34   20.90
   2   1 -16  598.14   20.60
  -2   1  16  584.54   20.40
  -1  -1  16    3.20    3.50
   1  -1 -16    5.50    3.30
   1  -1 -16    2.90    4.00
  -1  -1  16    3.70    3.10
  -1  -1  16    9.80    3.50
   1  -1 -16   -2.70    3.40
   1  -1 -16    5.70    2.90
  -1  -1  16    2.30    2.90
   1   1 -16    3.20    3.40
  -1   1  16    5.10    2.90
   1   1 -16    4.60    3.40
   1   1 -16    8.20    4.10
  -1   1  16    4.40    3.30
   1   1 -16    2.50    2.90
  -1   1  16    3.90    3.40
  -1   1  16    3.00    2.90
  -1   1  16    2.90    3.70
   0  -1 -16   80.39    6.90
   0  -1 -16   76.39    5.90
   0  -1 -16   75.59    6.00
   0  -1  16   74.19    6.00
   0  -1  16   71.99    6.00
   0  -1  16   74.49    6.50
   0  -1 -16   78.99    6.20
   0  -1  16   80.99    5.90
   0   1 -16   82.99    6.50
   0   1 -16   69.59    6.30
   0   1  16   76.99    6.60
   0   1  16   80.59    5.00
   0   1 -16   80.49    6.30
   0   1  16   73.49    5.90
   0   1  16   90.39    6.60
   0   1  16   84.09    6.60
   0   1 -16   78.89    5.80
   1  -1  16  555.44   20.00
   1  -1  16  567.54   20.40
  -1  -1 -16  566.64   20.30
  -1  -1 -16  569.94   20.20
  -1  -1 -16  573.84   20.50
  -1  -1 -16  555.94   20.30
   1  -1  16  583.44   20.10
   1  -1  16  573.34   20.10
   1   1  16  580.84   20.10
  -1   1 -16  554.04   19.90
   1   1  16  570.44   20.40
   1   1  16  592.74   20.70
  -1   1 -16  535.95   20.10
   1   1  16  533.25   20.10
  -1   1 -16  571.24   20.40
   1   1  16  492.45   18.00
  -1   1 -16  566.34   19.80
   1   1  16  547.55   19.40
   2  -1  16  127.39    8.60
  -2  -1 -16  140.49    8.80
  -2  -1 -16  137.59    8.70
   2  -1  16  125.39    8.10
   2  -1  16  148.49    8.30
   2  -1  16  123.49    8.30
   2  -1  16  123.59    9.90
  -2  -1 -16  139.99    9.00
  -2   1 -16  146.19    8.20
   2   1  16  132.19    7.50
   2   1  16  136.39    8.80
  -2   1 -16  139.69    8.90
  -2   1 -16  135.39    7.70
  -2   1 -16  136.49    8.30
   2   1  16  142.89    8.90
   2   1  16  123.09    8.50
   2   1  16  143.59    8.90
   3  -1  16   56.09    6.70
  -3  -1 -16   57.19    7.20
   3  -1  16   56.39    7.70
   3  -1  16   50.19    6.50
  -3  -1 -16   46.60    6.20
   3  -1  16   47.20    5.30
  -3  -1 -16   54.89    7.20
  -3  -1 -16   38.60    5.30
  -3   1 -16   42.40    5.30
   3   1  16   65.59    6.50
  -3   1 -16   46.30    5.30
   3   1  16   58.49    6.70
  -3   1 -16   41.90    7.10
   3   1  16   58.59    6.30
  -3   1 -16   58.39    7.70
   3   1  16   53.99    7.00
  -4  -1 -16   19.40    6.30
   4  -1  16   21.70    6.70
   4  -1  16   22.60    5.70
   4  -1  16   17.00    4.40
   4  -1  16   14.80    5.00
  -4  -1 -16   22.00    5.50
  -4  -1 -16   20.20    6.20
   4  -1  16   17.80    4.80
  -4   1 -16    7.80    5.10
  -4   1 -16   17.00    6.30
  -4   1 -16   17.80    4.80
   4   1  16   16.40    4.80
   4   1  16   21.30    5.60
   4   1  16   18.60    6.20
   4   1  16   20.70    6.50
  -5  -1 -16   43.80    7.90
  -5  -1 -16   51.19    8.60
   5  -1  16   51.49    6.70
   5  -1  16   56.39    8.20
   5  -1  16   36.40    6.20
   5  -1  16   47.30    6.20
   5  -1  16   30.80    6.80
  -5  -1 -16   38.40    7.00
  -5   1 -16   47.10    6.40
   5   1  16   48.90    8.00
   5   1  16   47.50    7.60
   5   1  16   45.20    7.60
  -5   1 -16   41.60    7.50
  -5   1 -16   35.00    6.00
   5   1  16   40.20    7.70
   6  -1  16   17.00    6.60
  -6  -1 -16    9.90    8.70
   6  -1  16   14.90    6.30
   6  -1  16    9.00    5.80
  -6  -1 -16   16.40    7.00
  -6  -1 -16    9.10    7.60
   6  -1  16    6.00    6.50
  -6  -1 -16   20.30    6.90
   6   1  16    5.30    7.20
  -6   1 -16   14.20    7.60
   6   1  16   15.60    7.20
   6   1  16    7.90    7.30
  -6   1 -16    7.50    7.50
   6   1  16    3.60    7.60
  -6   1 -16    4.40    9.20
  -6   1 -16   14.50    5.60
  -7  -2  16   -3.50    6.70
   7  -2 -16    3.10    6.00
  -7  -2  16    0.50    6.10
  -7  -2  16   -2.80    5.90
   7  -2 -16   -2.60    5.40
   7  -2 -16    2.70    5.20
   7  -2 -16   -2.00    6.00
  -7  -2  16    2.90    5.10
   7   2 -16   -9.20    7.10
  -7   2  16   -5.30   10.30
   7   2 -16   -8.30    5.00
   7   2 -16   11.60    6.70
  -7   2  16    0.90    6.50
  -7   2  16   -0.50    4.70
   7   2 -16    0.00    7.00
  -7   2  16   -0.50    6.70
   7   2 -16   11.80   12.20
  -7   2  16   -5.80    4.00
  -6  -2  16   45.90    7.40
  -6  -2  16   56.09    6.80
   6  -2 -16   59.39    7.30
  -6  -2  16   58.99    7.30
   6  -2 -16   51.99    6.50
   6  -2 -16   47.70    5.90
  -6  -2  16   53.29    7.80
   6  -2 -16   55.89    6.50
   6   2 -16   28.60    7.00
  -6   2  16   72.29   10.40
   6   2 -16   46.30    6.70
  -6   2  16   55.49    5.70
  -6   2  16   43.30    6.50
  -6   2  16   52.89    5.30
  -6   2  16   60.99    7.80
   6   2 -16   44.00    8.60
   5  -2 -16   44.90    6.00
  -5  -2  16   50.69    5.80
  -5  -2  16   46.70    6.60
   5  -2 -16   48.70    5.90
  -5  -2  16   52.19    7.20
  -5  -2  16   53.09    6.70
   5  -2 -16   63.59    6.30
   5  -2 -16   52.39    6.60
  -5   2  16   63.09    9.10
  -5   2  16   51.69    5.50
  -5   2  16   46.10    5.10
   5   2 -16   61.39    7.60
   5   2 -16   47.00    7.90
   5   2 -16   44.70    6.00
  -5   2  16   44.20    6.00
  -4  -2  16   -0.60    4.00
   4  -2 -16   -1.20    3.80
  -4  -2  16   -2.20    4.30
   4  -2 -16   -1.70    3.30
   4  -2 -16    0.10    4.10
  -4  -2  16    1.10    3.30
  -4  -2  16    3.10    4.40
   4  -2 -16    3.90    3.60
   4   2 -16    0.40    4.20
   4   2 -16    6.20    4.00
  -4   2  16    6.10    5.90
  -4   2  16    1.70    2.70
  -4   2  16    4.40    3.20
   4   2 -16   -5.80    4.70
  -4   2  16    2.00    4.60
  -4   2  16    5.20    4.00
   3  -2 -16    9.90    4.00
  -3  -2  16   11.60    4.30
  -3  -2  16   15.80    3.80
  -3  -2  16   13.00    4.20
   3  -2 -16   12.80    3.80
   3  -2 -16   17.10    4.40
   3  -2 -16   13.90    3.50
  -3  -2  16   10.90    4.20
  -3   2  16    9.60    3.10
   3   2 -16   16.30    3.40
   3   2 -16   15.80    3.70
   3   2 -16   23.00    5.70
   3   2 -16    9.00    5.00
  -3   2  16   14.80    3.00
  -3   2  16   13.40    4.40
  -3   2  16   21.50    5.40
   3   2 -16   20.20    4.10
  -3   2  16   15.20    4.50
   2  -2 -16    4.00    3.20
  -2  -2  16    7.40    3.60
   2  -2 -16   -6.50    3.40
   2  -2 -16    1.00    3.20
  -2  -2  16    2.90    3.40
  -2  -2  16    4.50    3.70
  -2  -2  16   14.80    4.10
  -2   2  16    1.60    3.80
   2   2 -16    4.10    4.90
  -2   2  16   -0.40    4.00
   2   2 -16    6.40    2.50
  -2   2  16    1.10    4.00
  -2   2  16    1.90    3.80
   2   2 -16    3.50    4.50
   2   2 -16    4.10    3.40
  -2   2  16    5.60    3.30
   2   2 -16    3.70    3.20
   1  -2 -16   89.39    6.70
  -1  -2  16   87.29    6.80
  -1  -2  16   82.99    6.60
  -1  -2  16   91.39    6.60
   1  -2 -16   83.69    6.20
  -1  -2  16   89.09    6.20
   1  -2 -16   85.49    6.50
   1  -2 -16  102.79    6.70
   1   2 -16   91.49    7.70
  -1   2  16   78.29    6.40
  -1   2  16   84.09    6.10
   1   2 -16   85.99    6.30
  -1   2  16   89.09    6.00
   1   2 -16   89.09    5.70
  -1   2  16   87.29    5.60
   1   2 -16   82.39    7.40
  -1   2  16   88.79    7.30
  -1   2  16   97.19    7.10
   0  -2 -16    3.00    3.80
   0  -2 -16   10.30    3.90
   0  -2 -16    0.30    3.80
   0  -2 -16    5.80    3.30
   0  -2  16    5.70    3.10
   0  -2  16    3.10    3.20
   0  -2  16    3.50    3.30
   0   2 -16    5.40    3.30
   0   2  16    0.20    3.20
   0   2 -16   12.30    4.30
   0   2  16    5.10    4.00
   0   2 -16    2.30    4.10
   0   2  16   -0.10    4.30
   0   2  16    6.30    3.80
   0   2 -16    2.20    2.60
   0   2  16   -0.40    3.10
   1  -2  16   87.99    5.90
   1  -2  16   81.49    6.10
   1  -2  16   93.99    6.90
  -1  -2 -16   91.49    7.80
   1  -2  16   87.19    6.90
  -1  -2 -16   86.89    7.00
  -1  -2 -16   79.79    7.20
  -1  -2 -16   92.49    7.00
   1  -2  16   90.19   10.80
  -1   2 -16   89.09    5.30
   1   2  16   84.79    7.70
  -1   2 -16   90.99    5.70
  -1   2 -16   88.49    7.40
  -1   2 -16   96.09    7.10
   1   2  16   88.29    8.10
   1   2  16   92.29    6.90
   1   2  16   71.49    6.50
   1   2  16   80.69    6.70
   2  -2  16   95.69   12.10
  -2  -2 -16  113.39    8.30
   2  -2  16  115.59    8.20
  -2  -2 -16  131.39    8.10
  -2  -2 -16  125.69    8.30
   2  -2  16  112.19    7.00
   2  -2  16  121.79    7.50
   2  -2  16  120.89    7.90
  -2  -2 -16  131.79    8.70
   2   2  16  119.09    8.10
  -2   2 -16  126.29    8.10
  -2   2 -16  122.79    6.30
   2   2  16  110.89    7.50
  -2   2 -16  117.89    6.50
   2   2  16  125.69    8.70
  -2   2 -16  110.89    8.90
   2   2  16  127.29    8.30
  -3  -2 -16    5.30    3.70
   3  -2  16   12.40    7.80
  -3  -2 -16    6.00    4.60
   3  -2  16    5.90    3.90
  -3  -2 -16    5.10    5.20
   3  -2  16    3.30    4.10
   3  -2  16    9.80    3.70
  -3  -2 -16    8.00    5.10
   3  -2  16    0.80    3.40
  -3   2 -16    3.50    4.40
  -3   2 -16    2.90    2.80
   3   2  16    5.10    5.30
   3   2  16    1.10    4.50
   3   2  16    7.70    4.10
  -3   2 -16   -3.30   15.70
  -3   2 -16   -6.20    5.10
   3   2  16    5.90    4.80
  -3   2 -16    1.10    3.10
   4  -2  16  452.55   16.90
  -4  -2 -16  422.36   17.40
  -4  -2 -16  439.86   18.50
  -4  -2 -16  409.66   18.50
   4  -2  16  428.76   17.70
  -4  -2 -16  433.76   18.40
   4  -2  16  433.86   17.10
   4  -2  16  400.76   17.10
  -4   2 -16  428.26   15.70
  -4   2 -16  412.16   15.60
  -4   2 -16  433.56   18.30
   4   2  16  455.85   18.90
   4   2  16  421.26   17.70
  -4   2 -16  414.16   17.30
   4   2  16  376.76   17.70
   4   2  16  396.66   17.00
  -5  -2 -16    7.60    6.80
   5  -2  16   19.30   10.10
   5  -2  16    5.70    5.10
  -5  -2 -16    2.40    6.40
  -5  -2 -16   17.20    6.00
   5  -2  16    5.20    5.40
  -5  -2 -16    0.20    6.70
   5  -2  16   15.90    6.00
   5  -2  16    4.10    4.70
   5   2  16   -3.00    7.40
  -5   2 -16   20.40   16.00
   5   2  16   -3.40    7.00
  -5   2 -16    6.20    7.10
  -5   2 -16    2.90    6.10
   5   2  16   -0.30    5.80
   5   2  16    3.70    4.80
  -5   2 -16   -3.00    3.90
  -5   2 -16    3.80    3.60
   5   2  16    6.90    6.90
  -5  -3  16   -0.70    5.00
   5  -3 -16   -3.50    4.90
   5  -3 -16    4.80    3.20
   5  -3 -16    3.60    5.20
  -5  -3  16   -9.60    5.40
  -5  -3  16    2.80    5.70
   5  -3 -16    3.40    4.40
  -5  -3  16   -6.80    4.90
  -5   3  16    5.40    5.90
   5   3 -16   -1.50    3.80
   5   3 -16   -5.00    4.50
   5   3 -16    6.20    6.60
   5   3 -16    2.10    6.90
   5   3 -16  -18.40   12.60
   5   3 -16   -5.40    4.60
  -5   3  16   -2.70    4.80
  -5   3  16    2.70    7.60
   4  -3 -16    7.70    2.70
  -4  -3  16    3.10    5.50
  -4  -3  16   -1.60    4.40
   4  -3 -16    4.40    4.60
  -4  -3  16   -5.20    4.70
   4  -3 -16   -5.20    4.00
   4  -3 -16    9.40    4.50
  -4  -3  16    1.50    4.00
   4   3 -16   -4.00    5.50
   4   3 -16   -4.90    4.00
  -4   3  16   -4.90    4.10
  -4   3  16    1.70    8.30
   4   3 -16    5.00    6.10
  -4   3  16    3.70    6.90
   4   3 -16   24.10   12.50
   4   3 -16    3.20    3.50
   4   3 -16   -1.10    2.80
   3  -3 -16   12.60    4.40
   3  -3 -16   11.50    4.50
  -3  -3  16   13.10    3.60
  -3  -3  16   14.70    4.50
  -3  -3  16   14.60    4.40
   3  -3 -16   12.60    4.00
  -3  -3  16    6.10    5.00
   3  -3 -16   13.10    2.60
   3   3 -16   15.50   12.70
   3   3 -16    9.70    5.10
  -3   3  16    4.50    4.30
   3   3 -16   12.30    3.00
   3   3 -16   10.50    6.60
   3   3 -16   12.70    4.20
  -3   3  16    9.60    6.20
   2  -3 -16    6.80    2.50
  -2  -3  16    2.30    3.80
  -2  -3  16   -1.10    4.20
  -2  -3  16    5.50    4.20
  -2  -3  16    5.20    2.70
   2  -3 -16    6.90    4.30
   2  -3 -16    8.30    3.90
   2  -3 -16    3.00    4.40
  -2   3  16   13.10    5.30
  -2   3  16   20.80    4.20
   2   3 -16    4.50    3.80
   2   3 -16   13.40    5.10
   2   3 -16    5.10   14.40
  -2   3  16    8.80    4.70
  -2   3  16   -1.50    3.90
   1  -3 -16   80.09    7.10
  -1  -3  16   62.39    4.60
   1  -3 -16   62.49    4.50
  -1  -3  16   65.09    7.10
  -1  -3  16   80.39    7.70
   1  -3 -16   70.19    6.30
   1  -3 -16   63.89    7.40
  -1  -3  16   56.89    5.90
   1   3 -16   43.20   16.00
  -1   3  16   59.49    7.00
  -1   3  16   57.49    6.90
   0  -3  16   11.20    2.40
   0  -3 -16    8.30    4.30
   0  -3  16    9.30    4.10
   0  -3 -16   11.30    3.00
   0  -3 -16    3.80    4.20
   0  -3  16    8.70    4.40
   0  -3 -16    0.90    4.00
   0  -3  16   12.00    3.80
   0   3  16   11.70    4.70
   0   3 -16    8.50    4.70
   0   3 -16   -0.90   16.10
   0   3  16   26.10    5.10
   0   3 -16    1.60    4.30
  -1  -3 -16    7.90    4.10
  -1  -3 -16    7.10    4.20
   1  -3  16   10.70    4.10
   1  -3  16    6.60    4.20
  -1  -3 -16    1.50    4.50
   1  -3  16    3.60   10.10
   1  -3  16    4.10    3.70
   1  -3  16    4.50    2.30
  -1  -3 -16   -2.40    3.50
  -1   3 -16   10.20   14.20
   1   3  16   -0.90    4.50
  -1   3 -16    0.90    3.90
  -1   3 -16    1.10    4.40
   1   3  16    1.90    2.00
   1   3  16    6.10    5.00
   1   3  16    1.60    2.70
   2  -3  16   54.19    6.80
  -2  -3 -16   59.09    7.50
   2  -3  16   44.30   10.90
   2  -3  16   53.19    6.80
   2  -3  16   60.99    4.40
  -2  -3 -16   52.29    6.50
   2  -3  16   50.09    5.40
  -2  -3 -16   48.50    5.50
  -2  -3 -16   41.70    6.30
   2   3  16   45.90    6.20
   2   3  16   40.90    6.30
   2   3  16   49.20    5.80
   2   3  16   47.70    7.20
  -2   3 -16   62.29   17.10
   3  -3  16   44.20    5.20
  -3  -3 -16   30.90    6.60
  -3  -3 -16   49.00    6.00
   3  -3  16   46.80    5.70
  -3  -3 -16   32.90    6.40
   3  -3  16   31.90    5.40
   3  -3  16   43.80   11.80
   3  -3  16   37.60    4.40
  -3  -3 -16   53.49    7.00
   3   3  16   36.30    7.50
  -3   3 -16   44.60   18.70
   3   3  16   41.60    6.90
   3   3  16   41.50    7.90
  -3   3 -16   47.80    7.10
   3   3  16   42.70    5.30
   3   3  16   29.50    4.50
   4  -3  16    2.50    9.10
   4  -3  16    0.70    4.80
  -4  -3 -16    5.10    5.00
  -4  -3 -16   17.60    7.00
  -4  -3 -16   -0.80    7.20
   4  -3  16    5.50    5.60
  -4  -3 -16    7.90    5.20
   4  -3  16    2.00    5.40
   4   3  16    5.70    8.60
   4   3  16    3.40    8.30
   4   3  16   -9.70    5.10
   4   3  16   -4.90    6.00
  -4   3 -16    6.40    6.70
  -4   3 -16   -6.70    4.50
   4   3  16    4.50    5.90
  -4   3 -16   13.20   17.20
   8   0 -17   -4.20    7.30
  -8   0  17   -9.90    6.80
   8   0 -17    0.10    5.80
  -8   0  17   -8.50    7.70
   8   0 -17    2.20    6.10
  -8   0  17    3.80    7.30
   8   0 -17   -0.70    6.80
  -8   0  17   -3.20    5.80
  -7   0  17    3.50    5.90
   7   0 -17    4.50    7.00
  -7   0  17    5.90    6.00
  -7   0  17   -3.10    6.10
   7   0 -17    4.30    6.00
  -7   0  17    0.20    6.10
   7   0 -17   -9.00    5.80
   6   0 -17    3.70    5.30
  -6   0  17    5.20    5.70
   6   0 -17    3.50    5.00
   6   0 -17    8.40    6.00
  -6   0  17    1.40    5.50
  -6   0  17   -4.60    5.20
  -5   0  17  353.36   15.20
   5   0 -17  356.96   15.80
  -5   0  17  358.16   15.20
   5   0 -17  344.87   15.10
  -5   0  17  344.37   15.30
   5   0 -17  342.07   15.10
  -5   0  17  333.67   15.40
   4   0 -17    4.50    4.50
   4   0 -17    3.80    4.60
   4   0 -17   -1.30    4.00
  -4   0  17    5.80    4.30
  -4   0  17    2.30    4.70
  -4   0  17    1.40    3.70
  -4   0  17   -0.90    4.20
   3   0 -17   18.50    4.60
  -3   0  17   11.40    4.90
  -3   0  17   18.30    4.10
   3   0 -17    7.70    4.60
   3   0 -17   22.10    4.50
  -3   0  17    8.70    4.20
   3   0 -17   11.40    4.10
  -3   0  17   18.90    4.30
  -2   0  17    0.10    2.90
   2   0 -17    0.80    3.00
  -2   0  17    0.60    3.70
   2   0 -17   -1.30    3.70
  -2   0  17    6.90    3.10
   2   0 -17    3.40    3.80
  -2   0  17    4.40    3.20
   2   0 -17    4.90    4.70
   1   0 -17    2.60    3.00
  -1   0  17    1.10    3.30
   1   0 -17    0.70    3.30
  -1   0  17    2.70    3.00
  -1   0  17    4.90    3.80
   1   0 -17    0.00    3.40
  -1   0  17   -1.10    3.50
   1   0 -17    2.60    4.00
   0   0  17   -2.70    4.10
   0   0  17    1.40    2.90
   0   0 -17    0.60    3.10
   0   0 -17    1.20    3.40
   0   0 -17    0.50    3.40
   0   0 -17    3.80    4.30
   0   0  17   -0.10    3.60
   0   0  17    5.10    1.80
   0   0  17    2.00    3.70
   1   0  17   11.40    2.50
   1   0  17   14.20    4.70
   1   0  17   12.80    4.00
   1   0  17   18.00    4.40
  -1   0 -17   12.70    3.90
   1   0  17   10.30    3.70
  -1   0 -17    7.90    4.20
  -1   0 -17    9.70    4.00
  -1   0 -17   14.70    5.00
  -2   0 -17   -1.00    5.10
  -2   0 -17   -5.10    4.10
  -2   0 -17   -4.20    4.20
   2   0  17    4.70    4.80
   2   0  17    1.30    3.70
   2   0  17   -6.50    3.80
   2   0  17   -1.20    3.70
  -2   0 -17    3.90    4.60
  -3   0 -17   27.80    5.70
   3   0  17   23.10    5.60
   3   0  17   20.30    5.20
  -3   0 -17   17.00    5.40
   3   0  17   27.00    4.70
   3   0  17   17.20    5.00
  -3   0 -17   21.40    6.90
  -3   0 -17   29.70    5.10
   3   0  17   28.10    5.10
  -4   0 -17  -11.60    5.40
   4   0  17    1.90    4.50
   4   0  17   -5.00    5.20
   4   0  17    3.00    6.10
  -4   0 -17   -4.00    5.80
  -4   0 -17   -1.30    5.40
   4   0  17   -2.70    4.80
  -4   0 -17   -0.80    4.90
  -5   0 -17   20.10    7.20
   5   0  17   36.20    6.30
  -5   0 -17   17.70    8.00
  -5   0 -17   25.10    7.90
   5   0  17   32.20    7.20
  -5   0 -17   27.10    7.80
   5   0  17   26.50    6.70
  -6   0 -17    5.00    7.80
   6   0  17    0.60    7.10
   6   0  17   -2.60    7.00
   6   0  17   -8.20    5.60
  -6   0 -17    7.50    7.30
  -6   0 -17   -4.30    7.90
   6   0  17    7.20    6.80
  -6   0 -17   17.60    7.80
   8  -1 -17   11.20    6.60
   8  -1 -17   -5.80    5.50
   8  -1 -17   -2.70    5.80
  -8  -1  17    2.00    8.20
  -8  -1  17    8.90    6.20
  -8  -1  17   13.70    7.30
   8  -1 -17    5.70    6.50
  -8  -1  17   -4.90    5.90
  -8   1  17   10.10    6.50
   8   1 -17    2.00    9.00
   8   1 -17   16.90    6.40
  -8   1  17    1.40    7.70
  -8   1  17   -6.50    8.80
  -8   1  17   -3.00    7.80
   8   1 -17   -2.20    7.10
  -8   1  17   -1.00    6.80
   8   1 -17   26.10    7.20
   7  -1 -17   28.70    6.20
   7  -1 -17   28.40    5.70
  -7  -1  17   27.10    7.20
  -7  -1  17   21.40    7.80
  -7  -1  17   39.10    8.20
  -7  -1  17   34.20    7.70
   7  -1 -17   24.70    6.20
   7  -1 -17   27.60    6.70
   7   1 -17   24.80    7.30
   7   1 -17   33.30    7.50
  -7   1  17   32.40    7.60
   7   1 -17   40.60    8.60
   7   1 -17   21.20    6.70
  -7   1  17   28.20    7.60
  -7   1  17   18.40    5.70
  -6  -1  17   52.19    6.70
  -6  -1  17   43.00    6.80
   6  -1 -17   45.00    6.80
  -6  -1  17   49.90    7.40
   6  -1 -17   54.19    7.30
   6  -1 -17   37.80    6.00
   6  -1 -17   44.00    6.50
   6   1 -17   57.29    7.20
  -6   1  17   57.89    6.30
   6   1 -17   44.90    7.30
  -6   1  17   44.70    7.30
  -6   1  17   46.30    6.10
   6   1 -17   50.89    7.90
  -5  -1  17   21.60    5.80
   5  -1 -17   20.90    5.30
   5  -1 -17   12.50    5.20
  -5  -1  17    5.00    5.70
   5  -1 -17   13.30    4.20
   5  -1 -17   11.00    4.30
  -5  -1  17   18.60    4.80
   5   1 -17    8.60    6.40
  -5   1  17   15.90    5.60
   5   1 -17   13.20    5.50
  -5   1  17   29.00    4.80
  -5   1  17   12.10    5.00
   5   1 -17   15.40    6.00
   5   1 -17   23.50    5.80
  -4  -1  17    1.60    4.30
   4  -1 -17    3.20    4.30
  -4  -1  17    0.10    4.00
  -4  -1  17   -2.90    4.70
  -4  -1  17   -0.80    4.00
   4  -1 -17   -0.90    4.30
   4  -1 -17   -2.10    3.90
   4   1 -17    3.40    4.00
  -4   1  17    6.40    4.30
  -4   1  17   -0.10    4.10
   4   1 -17    0.60    4.70
   4   1 -17   -0.20    4.90
  -4   1  17   -2.00    3.80
   4   1 -17    4.70    4.80
  -4   1  17   -2.10    3.80
  -3  -1  17    3.70    3.80
  -3  -1  17   -5.60    3.60
  -3  -1  17    5.80    4.60
   3  -1 -17   -2.50    4.00
  -3  -1  17   -0.60    3.60
   3  -1 -17    4.50    3.80
   3  -1 -17   -1.70    4.80
   3  -1 -17   -2.70    3.30
   3   1 -17   -1.10    4.70
  -3   1  17   -0.90    3.30
   3   1 -17    2.40    3.50
   3   1 -17    2.10    4.10
  -3   1  17   -6.00    3.40
  -3   1  17    1.00    4.00
  -3   1  17   -3.80    3.90
   3   1 -17    5.50    4.60
  -2  -1  17   77.39    6.80
  -2  -1  17   73.39    6.50
   2  -1 -17   75.99    6.50
  -2  -1  17   65.39    6.80
   2  -1 -17   71.09    6.40
   2  -1 -17   70.19    6.70
   2  -1 -17   66.19    6.40
  -2  -1  17   68.29    6.70
  -2   1  17   67.39    6.40
   2   1 -17   80.99    6.90
   2   1 -17   66.29    7.00
  -2   1  17   73.79    6.10
   2   1 -17   54.59    6.20
   2   1 -17   69.39    6.20
  -2   1  17   71.09    6.20
  -2   1  17   72.99    6.60
  -1  -1  17  195.28   10.10
   1  -1 -17  224.78   10.40
   1  -1 -17  208.68   10.20
   1  -1 -17  230.68   10.40
   1  -1 -17  207.18   10.10
  -1  -1  17  209.98   10.10
  -1  -1  17  205.68    9.80
  -1  -1  17  211.88   10.20
   1   1 -17  234.18   10.30
  -1   1  17  237.28    9.90
  -1   1  17  214.98   10.40
   1   1 -17  203.88   10.30
   1   1 -17  217.38   10.20
  -1   1  17  216.18   10.20
  -1   1  17  213.08   10.70
  -1   1  17  222.78    9.10
   1   1 -17  232.98    9.80
   0  -1  17   14.00    3.30
   0  -1 -17   21.40    4.30
   0  -1  17   16.50    3.50
   0  -1  17   17.60    4.30
   0  -1 -17   19.00    5.00
   0  -1 -17   12.60    3.80
   0  -1 -17   23.10    4.50
   0  -1  17   19.90    4.10
   0   1  17   16.70    4.50
   0   1 -17   20.50    3.80
   0   1  17   18.40    3.30
   0   1 -17   21.60    4.80
   0   1  17   18.20    3.50
   0   1  17   27.80    4.70
   0   1 -17   17.10    4.50
   0   1 -17   19.60    4.10
   0   1  17   22.00    4.40
   1  -1  17   45.50    5.90
   1  -1  17   45.40    5.20
  -1  -1 -17   42.40    5.40
  -1  -1 -17   48.30    5.70
   1  -1  17   45.60    5.70
  -1  -1 -17   35.80    6.00
  -1  -1 -17   28.20    4.70
   1  -1  17   29.50    4.30
  -1   1 -17   48.90    5.90
  -1   1 -17   49.80    6.50
  -1   1 -17   47.80    5.30
  -1   1 -17   37.50    4.40
   1   1  17   38.90    5.10
   1   1  17   43.70    4.70
   1   1  17   50.99    6.10
   1   1  17   43.40    5.20
   1   1  17   46.70    6.10
  -2  -1 -17  168.18    9.60
   2  -1  17  153.78    9.00
  -2  -1 -17  149.69    8.90
  -2  -1 -17  161.18    9.70
   2  -1  17  149.69    9.20
   2  -1  17  142.29   10.80
   2  -1  17  159.78    9.30
   2  -1  17  138.29    8.80
  -2  -1 -17  171.68    9.50
   2   1  17  173.68    8.30
   2   1  17  161.68    9.40
  -2   1 -17  164.28    9.80
  -2   1 -17  167.28    8.90
   2   1  17  159.18    9.70
   2   1  17  170.18    9.90
  -2   1 -17  164.98    9.20
  -2   1 -17  152.58    9.00
   2   1  17  150.98    9.60
   3  -1  17  462.35   17.50
   3  -1  17  468.55   17.90
   3  -1  17  449.66   17.60
  -3  -1 -17  474.55   19.00
   3  -1  17  408.16   19.30
  -3  -1 -17  433.66   18.20
  -3  -1 -17  476.55   18.30
  -3   1 -17  481.15   17.80
   3   1  17  433.46   18.10
   3   1  17  460.75   17.00
   3   1  17  437.76   18.00
   3   1  17  430.56   19.00
   3   1  17  458.85   18.10
  -3   1 -17  456.65   17.70
  -3   1 -17  488.25   18.50
   4  -1  17    6.00    5.20
   4  -1  17    0.50    4.50
   4  -1  17    5.00    6.50
   4  -1  17   -3.60    4.00
   4  -1  17    2.70    5.10
  -4  -1 -17    4.40    6.60
  -4  -1 -17    0.90    4.60
  -4  -1 -17    9.00    5.90
   4   1  17    4.10    5.40
  -4   1 -17    0.10    6.60
  -4   1 -17    2.40    4.60
  -4   1 -17    0.20    4.50
   4   1  17   -5.70    6.10
   4   1  17    3.30    5.90
   5  -1  17   14.60    5.00
   5  -1  17   26.20    6.30
   5  -1  17   21.00    7.90
   5  -1  17   27.70    6.60
  -5  -1 -17   28.60    8.10
  -5  -1 -17   24.70    7.80
   5  -1  17   12.70    6.10
  -5  -1 -17   13.10    6.10
   5   1  17   42.10    7.50
  -5   1 -17   17.00    6.70
   5   1  17   17.80    6.90
  -5   1 -17   16.80    5.50
   5   1  17   17.20    7.20
  -5   1 -17   19.70    5.70
   5   1  17   20.40    7.10
  -6  -1 -17   33.20    7.40
  -6  -1 -17   35.40    8.70
   6  -1  17   19.60    6.90
  -6  -1 -17   23.10    8.30
   6  -1  17   31.00    6.50
   6  -1  17   27.20    7.40
   6  -1  17   28.60    6.30
  -6  -1 -17   29.30    7.00
   6   1  17   24.80    8.10
   6   1  17   10.20    7.40
  -6   1 -17   14.20    7.10
  -6   1 -17   40.20    9.10
   6   1  17   21.40    7.50
   6   1  17   30.50    8.30
  -6   1 -17   25.30    6.70
  -6   1 -17   25.80   10.00
  -6   1 -17   27.60    7.30
   7  -2 -17   17.30    5.90
  -7  -2  17   10.90    5.30
  -7  -2  17   15.60    5.90
   7  -2 -17   -2.50    6.20
   7  -2 -17    3.50    5.80
   7  -2 -17    9.90    5.10
  -7  -2  17   32.40    7.80
  -7  -2  17    4.80    6.00
   7   2 -17   18.30    8.00
   7   2 -17   21.80    8.90
  -7   2  17    0.00    4.30
   7   2 -17   13.20    6.80
  -7   2  17   12.40    8.00
   7   2 -17   17.80   13.20
  -7   2  17   18.30    5.40
  -7   2  17   21.20    5.80
  -7   2  17   10.80   10.00
   7   2 -17   14.60    6.90
  -6  -2  17   37.70    5.70
   6  -2 -17   23.70    5.10
   6  -2 -17   20.00    6.40
  -6  -2  17   25.40    6.80
   6  -2 -17   23.50    5.60
  -6  -2  17   21.10    6.50
  -6  -2  17   24.20    6.80
   6  -2 -17   31.50    6.00
   6   2 -17   20.20    7.00
   6   2 -17   22.60    6.10
  -6   2  17   19.60    6.70
  -6   2  17   19.50    4.60
  -6   2  17   23.30    6.50
   6   2 -17   11.60    6.70
   6   2 -17   34.40   12.90
  -6   2  17   31.80    4.30
  -6   2  17   35.10    9.10
   5  -2 -17   67.19    7.00
   5  -2 -17   66.69    6.60
  -5  -2  17   58.39    7.40
   5  -2 -17   64.29    6.80
  -5  -2  17   60.29    7.30
  -5  -2  17   52.49    5.80
  -5  -2  17   59.69    7.20
   5  -2 -17   69.29    7.00
  -5   2  17   59.89    8.70
   5   2 -17   44.60    7.50
  -5   2  17   71.99    5.80
  -5   2  17   62.19    7.90
   5   2 -17   62.79    8.30
  -5   2  17   55.59    6.00
  -5   2  17   58.29    8.50
   5   2 -17   63.89    7.90
   4  -2 -17   63.49    6.80
  -4  -2  17   59.59    6.40
   4  -2 -17   62.79    6.00
  -4  -2  17   44.10    5.00
  -4  -2  17   51.89    6.20
   4  -2 -17   57.59    6.10
  -4  -2  17   43.80    5.60
   4  -2 -17   49.30    6.20
   4   2 -17   59.69    7.50
  -4   2  17   55.89    5.40
   4   2 -17   55.29    6.30
  -4   2  17   58.19    5.20
  -4   2  17   52.89    6.80
   4   2 -17   63.99    7.30
  -4   2  17   59.89    8.10
  -3  -2  17   14.60    4.30
   3  -2 -17   18.40    4.00
  -3  -2  17   18.00    4.20
  -3  -2  17   18.40    4.40
   3  -2 -17   18.00    4.30
   3  -2 -17   16.60    4.40
  -3  -2  17   17.50    3.90
   3  -2 -17   20.40    3.70
   3   2 -17   19.10    4.30
  -3   2  17   21.10    3.40
  -3   2  17   24.30    5.80
   3   2 -17   21.70    5.70
   3   2 -17   23.50    3.40
  -3   2  17   25.50    5.10
   3   2 -17   17.50    4.20
   3   2 -17   11.20    4.90
  -3   2  17   24.80    3.70
  -3   2  17   24.90    5.00
  -2  -2  17   11.40    3.90
   2  -2 -17   20.40    4.50
   2  -2 -17   19.50    4.40
  -2  -2  17   16.00    3.90
  -2  -2  17   11.50    4.50
   2  -2 -17   13.10    3.90
   2  -2 -17   14.50    3.70
  -2  -2  17    8.30    3.90
  -2   2  17   14.30    4.40
   2   2 -17   12.30    2.20
   2   2 -17   18.70    5.10
  -2   2  17   16.10    4.20
  -2   2  17   14.70    3.80
  -2   2  17    8.50    4.20
   2   2 -17   10.20    3.80
   2   2 -17   10.90    3.70
   2   2 -17   11.70    5.40
  -2   2  17    9.00    3.90
  -1  -2  17  426.16   16.00
   1  -2 -17  435.76   16.00
  -1  -2  17  410.86   16.20
  -1  -2  17  413.36   16.10
   1  -2 -17  395.96   16.10
   1  -2 -17  430.86   15.90
  -1  -2  17  395.66   15.70
   1  -2 -17  403.86   15.90
  -1   2  17  407.26   16.20
  -1   2  17  404.76   14.60
   1   2 -17  410.76   15.30
   1   2 -17  409.26   16.50
  -1   2  17  405.26   16.20
  -1   2  17  404.36   15.20
   1   2 -17  403.16   15.00
  -1   2  17  420.86   16.00
   1   2 -17  392.96   16.30
  -1   2  17  425.26   15.20
   0  -2  17   63.69    5.80
   0  -2 -17   73.39    7.30
   0  -2 -17   66.29    6.40
   0  -2 -17   61.59    6.30
   0  -2  17   68.79    6.90
   0  -2  17   73.99    5.70
   0  -2  17   61.49    6.80
   0  -2 -17   57.99    6.60
   0   2  17   73.49    7.20
   0   2  17   58.79    6.00
   0   2 -17   73.99    5.40
   0   2 -17   61.19    6.90
   0   2  17   69.69    6.20
   0   2 -17   67.69    7.00
   0   2 -17   67.89    5.80
   0   2  17   68.29    6.30
   0   2  17   67.69    7.70
   1  -2  17   19.60    3.80
  -1  -2 -17   10.50    3.80
   1  -2  17   10.80    3.40
   1  -2  17   16.50    7.60
  -1  -2 -17   16.60    4.60
   1  -2  17   15.50    4.10
  -1  -2 -17   10.50    3.60
   1  -2  17   13.60    4.30
  -1  -2 -17    7.40    4.30
   1   2  17   14.70    3.90
   1   2  17   12.50    4.20
   1   2  17   14.80    5.00
  -1   2 -17   28.60    5.00
   1   2  17   12.10    4.60
  -1   2 -17   16.70    5.00
  -1   2 -17   12.10    3.00
   1   2  17    8.60    3.90
  -1   2 -17   16.20    3.40
  -2  -2 -17  105.89    8.50
   2  -2  17  107.19    6.90
   2  -2  17  106.59    7.20
   2  -2  17   77.59   12.20
  -2  -2 -17  104.59    8.30
   2  -2  17  101.29    7.90
   2  -2  17   92.99    7.00
  -2  -2 -17   94.49    7.70
  -2  -2 -17  110.39    7.80
  -2   2 -17   91.29    8.10
  -2   2 -17   95.29    8.30
   2   2  17   97.99    9.10
   2   2  17  103.39    8.20
  -2   2 -17  101.69    6.30
  -2   2 -17   97.59    6.10
   2   2  17   95.69    6.90
   2   2  17   95.59    8.30
   3  -2  17  135.19    8.30
  -3  -2 -17  142.39    9.30
   3  -2  17  130.89    9.20
   3  -2  17  146.19    8.30
  -3  -2 -17  143.59    9.80
  -3  -2 -17  137.99   10.50
   3  -2  17  156.78    9.20
  -3  -2 -17  142.99   10.50
  -3   2 -17  146.19    7.60
  -3   2 -17  139.89    9.40
   3   2  17  143.99   10.00
   3   2  17  146.49    8.50
  -3   2 -17  160.28   21.00
  -3   2 -17  130.89    7.60
   3   2  17  155.38    9.70
   3   2  17  135.39   10.60
  -4  -2 -17   -8.00    5.80
  -4  -2 -17    7.60    6.50
   4  -2  17    1.00    4.70
  -4  -2 -17   10.10    5.30
  -4  -2 -17    7.90    6.50
   4  -2  17    2.40    4.10
   4  -2  17   -0.30    5.50
   4  -2  17   -2.70    9.70
   4  -2  17   -2.00    4.20
   4   2  17   -4.20    4.00
   4   2  17   -3.10    5.80
  -4   2 -17    3.20    3.70
   4   2  17    4.90    7.10
   4   2  17    3.70    5.40
  -4   2 -17   -0.70    3.90
  -4   2 -17    7.10    6.60
  -4   2 -17    8.40   15.80
  -4   2 -17   -1.20    5.40
   5  -2  17    8.40    5.70
   5  -2  17    1.30    5.20
  -5  -2 -17    6.80    4.80
   5  -2  17   -1.10   10.40
  -5  -2 -17   10.50    7.40
   5  -2  17    7.40    6.00
  -5  -2 -17    3.10    7.50
  -5  -2 -17    6.90    6.60
   5  -2  17   -1.40    5.00
   5   2  17    3.80    6.70
  -5   2 -17    9.10    7.00
   5   2  17   -8.80    7.10
  -5   2 -17   11.60    7.40
   5   2  17    5.60    6.40
  -5   2 -17   21.40   15.90
   5   2  17   15.60    7.40
   5   2  17   -7.20    4.50
  -5   2 -17    4.70    4.20
  -5   2 -17    1.70    4.50
  -5  -3  17    5.70    5.30
   5  -3 -17   -9.90    4.70
   5  -3 -17    2.50    4.50
   5  -3 -17   11.00    3.30
   5  -3 -17    6.00    5.60
  -5  -3  17    7.70    4.80
  -5  -3  17    6.90    6.60
  -5  -3  17  -10.30    4.80
  -5   3  17    7.90    8.60
   5   3 -17   -6.10    7.70
   5   3 -17   16.30   14.70
   5   3 -17    4.10    4.80
  -5   3  17    1.30    5.20
   5   3 -17  -10.50    4.50
   5   3 -17   -6.30    5.80
  -5   3  17   -6.30    6.00
   5   3 -17    5.00    4.30
   4  -3 -17   22.60    5.20
   4  -3 -17   37.70    4.70
   4  -3 -17   23.50    4.90
  -4  -3  17   25.20    6.60
  -4  -3  17   29.50    5.80
  -4  -3  17   38.10    5.40
  -4  -3  17   22.90    5.70
   4  -3 -17   32.60    5.60
  -4   3  17   28.80    6.40
  -4   3  17   16.70    7.60
   4   3 -17   32.10    7.60
   4   3 -17   36.50    6.90
   4   3 -17   29.30    4.60
   4   3 -17   11.00   12.20
   4   3 -17   27.00    5.30
  -3  -3  17   23.00    4.10
   3  -3 -17   25.70    5.10
   3  -3 -17   20.70    4.90
  -3  -3  17   25.20    5.00
  -3  -3  17   25.80    5.10
   3  -3 -17   23.10    3.00
  -3  -3  17   23.50    5.40
   3  -3 -17   15.90    4.30
   3   3 -17   36.00    6.80
   3   3 -17   12.10    3.20
   3   3 -17   28.60    4.60
  -3   3  17   42.80    6.70
   3   3 -17   13.10    5.90
   3   3 -17   38.10   15.70
  -2  -3  17   21.20    4.50
   2  -3 -17   18.40    4.70
  -2  -3  17   22.70    3.50
   2  -3 -17   26.30    4.40
   2  -3 -17   22.00    4.90
  -2  -3  17   18.40    4.50
  -2  -3  17   24.30    5.30
   2  -3 -17   21.70    3.00
   2   3 -17   25.80    4.10
  -2   3  17   39.10    4.90
   2   3 -17    3.00   14.20
   2   3 -17   21.70    5.80
  -2   3  17   18.40    5.00
  -2   3  17   22.50    5.70
   1  -3 -17   95.49    8.20
  -1  -3  17  108.49    5.90
   1  -3 -17   97.79    8.10
  -1  -3  17   99.89    7.10
   1  -3 -17   99.59    7.40
  -1  -3  17   98.89    8.40
   1  -3 -17  112.69    6.10
  -1  -3  17   76.49    7.60
  -1   3  17   94.89    8.30
   1   3 -17   93.09    8.50
  -1   3  17   87.59    8.10
   0  -3  17    3.60    3.90
   0  -3  17    8.00    4.20
   0  -3  17    4.40    2.40
   0  -3 -17    2.20    4.20
   0  -3 -17    5.80    4.20
   0  -3  17   -4.10    3.80
   0  -3 -17    1.40    3.10
   0  -3 -17    0.40    4.20
   0   3  17   -1.20    4.70
   0   3  17    0.40    1.80
   0   3 -17    5.00    4.90
   0   3  17    4.80    1.50
   0   3  17   -0.50    4.70
   0   3 -17   13.10   16.20
   1  -3  17   -2.20    8.90
  -1  -3 -17    8.00    4.20
   1  -3  17    6.10    3.90
   1  -3  17    4.90    4.10
  -1  -3 -17    5.20    4.90
  -1  -3 -17    2.50    4.40
  -1  -3 -17   -5.80    4.00
   1  -3  17    8.20    2.50
   1  -3  17    3.40    4.00
   1   3  17   11.00    5.20
   1   3  17    0.80    3.10
  -1   3 -17    4.00    4.30
  -1   3 -17    3.50   14.60
   1   3  17   -0.90    4.20
   1   3  17   -0.10    5.50
   1   3  17    1.40    2.40
   2  -3  17   64.19    4.50
  -2  -3 -17   46.60    6.00
   2  -3  17   59.19    7.30
  -2  -3 -17   44.90    5.60
  -2  -3 -17   41.30    6.90
   2  -3  17   47.50    5.50
  -2  -3 -17   51.79    6.60
   2  -3  17   51.49    5.80
   2  -3  17   44.10   10.80
   2   3  17   43.00    7.00
   2   3  17   50.79    7.60
   2   3  17   51.39    6.20
  -2   3 -17   63.09   18.00
   2   3  17   31.10    5.90
  -2   3 -17   55.29    7.20
  -3  -3 -17    4.20    5.50
  -3  -3 -17   15.50    5.30
   3  -3  17   10.70    9.90
   3  -3  17   19.20    5.40
   3  -3  17    8.40    5.20
  -3  -3 -17   26.20    6.90
   3  -3  17   15.60    5.20
  -3  -3 -17   10.40    5.90
   3   3  17    3.80    7.40
   3   3  17    3.30    4.80
  -3   3 -17   13.10   18.00
  -3   3 -17    1.40    5.00
   3   3  17   13.50    7.30
  -3   3 -17   13.80    6.70
   3   3  17   17.80    5.40
   3   3  17   11.50    6.70
  -8   0  18   40.70    9.70
  -8   0  18   47.30    7.80
  -8   0  18   47.30    8.20
   8   0 -18   50.09    8.70
   8   0 -18   61.99    8.70
  -8   0  18   41.90    8.00
   8   0 -18   48.70    7.60
   8   0 -18   53.89    7.80
   7   0 -18   11.70    7.90
  -7   0  18    0.70    6.50
   7   0 -18   11.50    5.90
   7   0 -18    2.20    6.30
  -7   0  18    4.80    6.80
  -7   0  18   -2.80    6.50
   7   0 -18    8.60    7.00
  -7   0  18   -6.60    5.80
   6   0 -18 1001.30   36.40
  -6   0  18 1016.30   35.90
   6   0 -18  984.10   35.80
  -6   0  18 1019.20   36.30
   6   0 -18 1046.20   35.90
  -6   0  18 1041.30   36.50
   5   0 -18    5.50    5.10
   5   0 -18    3.60    5.60
  -5   0  18    9.50    5.10
  -5   0  18    2.30    5.00
  -5   0  18   -4.20    5.30
   5   0 -18   -2.00    5.50
  -5   0  18    5.30    5.60
   4   0 -18   -1.40    4.30
   4   0 -18   -3.70    4.50
   4   0 -18    1.40    4.50
  -4   0  18   -4.80    4.90
  -4   0  18    1.00    4.20
  -4   0  18   -0.70    4.30
  -4   0  18    1.40    4.40
   3   0 -18   -1.70    4.20
  -3   0  18    0.80    3.90
  -3   0  18   -0.30    4.50
   3   0 -18   -4.00    3.40
  -3   0  18   -2.20    3.90
  -3   0  18    2.60    4.10
   3   0 -18    4.20    4.10
   3   0 -18   -4.30    4.80
  -2   0  18  168.28    9.10
   2   0 -18  164.58    9.40
  -2   0  18  166.98    9.00
   2   0 -18  175.38    9.30
   2   0 -18  164.68    9.40
  -2   0  18  160.08    9.10
  -2   0  18  162.48    9.30
   2   0 -18  181.58    9.50
  -1   0  18   -3.20    3.50
  -1   0  18   -0.30    3.90
   1   0 -18    1.20    3.60
   1   0 -18    4.20    3.80
  -1   0  18    1.60    3.40
  -1   0  18    0.50    3.50
   1   0 -18   -6.80    4.20
   1   0 -18    5.50    4.10
   0   0  18  312.07   13.10
   0   0 -18  314.07   13.80
   0   0 -18  303.07   13.00
   0   0 -18  311.47   13.10
   0   0  18  319.47   13.70
   0   0  18  294.77   13.20
   0   0  18  313.67   13.30
   0   0 -18  331.97   13.50
   1   0  18    1.00    2.20
  -1   0 -18    3.70    4.70
   1   0  18    3.40    4.40
   1   0  18    1.00    3.60
  -1   0 -18    1.10    3.90
   1   0  18    0.30    3.90
  -1   0 -18   -3.10    3.80
  -1   0 -18   -1.00    4.40
   1   0  18    3.70    3.10
   2   0  18  100.09    8.00
  -2   0 -18  117.49    8.40
   2   0  18  112.19    9.40
   2   0  18  115.39    6.00
   2   0  18  110.89    8.20
   2   0  18   94.69    7.50
  -2   0 -18  114.89    8.90
  -2   0 -18  110.29    8.40
  -2   0 -18   94.09    9.50
   3   0  18   -0.80    3.90
   3   0  18   -3.60    4.60
  -3   0 -18   -6.30    6.00
   3   0  18    2.10    4.30
   3   0  18   -5.10    4.70
  -3   0 -18    0.50    5.30
  -3   0 -18   -0.30    5.40
  -3   0 -18    0.80    4.20
  -4   0 -18  125.19   10.70
   4   0  18  119.79    9.60
  -4   0 -18  116.99   11.00
   4   0  18  111.39    9.40
  -4   0 -18  119.79   10.10
   4   0  18  117.69   11.10
   4   0  18  113.79    8.80
  -5   0 -18   -3.10    6.30
   5   0  18   -3.40    7.00
  -5   0 -18   -0.90    6.50
   5   0  18   -6.50    6.00
   5   0  18   -2.10    6.70
  -5   0 -18  -12.90    6.80
   5   0  18   -9.60    6.70
  -5   0 -18    1.20    6.60
  -6   0 -18  200.18   14.90
  -6   0 -18  184.18   14.40
  -6   0 -18  194.18   15.00
   6   0  18  173.38   12.80
   6   0  18  204.98   13.50
   6   0  18  190.78   12.90
   6   0  18  175.38   12.30
  -6   0 -18  174.38   15.10
  -7  -1  18   15.60    7.40
  -7  -1  18    8.80    5.90
   7  -1 -18   16.50    6.80
  -7  -1  18   16.80    7.70
   7  -1 -18   20.10    5.90
   7  -1 -18   24.00    6.90
  -7  -1  18   13.30    6.40
   7  -1 -18   12.60    7.10
  -7   1  18   15.50    5.90
  -7   1  18   12.50    5.90
   7   1 -18   -1.40    6.50
   7   1 -18   16.50    7.80
   7   1 -18   10.00    7.30
  -7   1  18   20.00    7.70
   7   1 -18    9.30    7.10
  -6  -1  18   10.70    6.50
   6  -1 -18    1.00    5.80
   6  -1 -18   11.60    5.00
  -6  -1  18    5.60    7.20
  -6  -1  18   12.60    5.40
   6  -1 -18    0.20    5.90
   6  -1 -18   11.40    6.00
  -6   1  18    1.60    6.40
   6   1 -18   11.50    7.20
  -6   1  18    0.90    5.10
  -6   1  18   11.00    4.90
   6   1 -18   -2.70    7.90
   6   1 -18    7.10    6.00
   6   1 -18    4.80    5.90
  -5  -1  18    3.40    4.70
   5  -1 -18    3.30    4.90
  -5  -1  18    2.80    4.90
   5  -1 -18    2.90    5.10
  -5  -1  18    1.20    5.30
   5  -1 -18    7.70    4.50
   5  -1 -18   -6.10    4.80
   5   1 -18    3.20    5.40
   5   1 -18    4.50    5.00
  -5   1  18    0.40    5.50
  -5   1  18   -5.40    4.30
  -5   1  18    3.20    4.20
   5   1 -18   -0.30    5.40
   5   1 -18   -4.70    5.70
  -4  -1  18   28.70    5.00
  -4  -1  18   38.30    5.40
  -4  -1  18   34.80    6.20
  -4  -1  18   31.90    6.20
   4  -1 -18   32.50    5.90
   4  -1 -18   35.80    5.60
   4  -1 -18   19.70    4.30
   4   1 -18   36.00    5.80
   4   1 -18   34.70    5.50
  -4   1  18   41.10    5.40
  -4   1  18   51.79    5.90
  -4   1  18   24.90    5.20
   4   1 -18   32.00    6.40
   4   1 -18   32.20    6.00
  -3  -1  18  328.87   13.50
  -3  -1  18  323.27   13.80
  -3  -1  18  302.87   13.90
   3  -1 -18  297.97   13.40
   3  -1 -18  322.97   13.60
   3  -1 -18  310.17   13.70
  -3  -1  18  319.47   13.70
   3  -1 -18  293.37   13.30
  -3   1  18  314.87   13.40
   3   1 -18  303.77   13.60
   3   1 -18  294.37   13.80
  -3   1  18  306.27   13.30
   3   1 -18  323.97   14.00
   3   1 -18  330.07   13.60
  -3   1  18  331.77   14.20
  -3   1  18  328.27   13.20
   2  -1 -18  102.69    7.90
   2  -1 -18  101.49    8.20
  -2  -1  18   88.69    7.90
  -2  -1  18   89.39    7.70
  -2  -1  18   98.29    7.80
   2  -1 -18   93.99    7.40
   2  -1 -18   89.89    7.70
  -2  -1  18   99.29    7.50
   2   1 -18   97.69    7.70
  -2   1  18   95.39    7.20
   2   1 -18   94.19    7.20
  -2   1  18   96.59    7.50
   2   1 -18   97.19    7.40
  -2   1  18   90.29    7.50
   2   1 -18   93.59    8.70
  -2   1  18   89.89    7.40
  -1  -1  18   28.60    5.00
  -1  -1  18   28.40    4.90
   1  -1 -18   40.70    5.10
  -1  -1  18   25.20    4.60
   1  -1 -18   30.70    5.30
   1  -1 -18   15.40    4.40
   1  -1 -18   27.90    4.60
  -1  -1  18   26.80    4.60
  -1   1  18   29.90    5.00
   1   1 -18   28.30    5.20
  -1   1  18   36.00    4.50
  -1   1  18   36.70    4.90
  -1   1  18   30.60    4.50
  -1   1  18   28.30    4.70
   1   1 -18   32.70    4.90
   1   1 -18   30.30    5.30
   1   1 -18   38.80    4.80
   0  -1  18   65.89    7.00
   0  -1  18   74.69    7.30
   0  -1  18   72.19    6.70
   0  -1 -18   67.09    7.30
   0  -1  18   54.09    6.70
   0  -1 -18   67.69    6.20
   0  -1 -18   62.99    7.60
   0  -1 -18   71.99    7.10
   0   1 -18   69.09    6.40
   0   1 -18   68.79    6.40
   0   1  18   67.89    7.30
   0   1  18   66.59    6.50
   0   1 -18   69.49    7.70
   0   1 -18   71.39    7.10
   0   1  18   75.29    7.90
   0   1  18   68.69    5.20
   0   1  18   70.99    7.40
  -1  -1 -18   19.10    4.60
   1  -1  18   31.40    4.60
  -1  -1 -18   17.10    4.20
   1  -1  18   23.10    4.90
  -1  -1 -18   24.00    4.60
  -1  -1 -18   14.60    5.00
   1  -1  18   28.30    5.00
   1  -1  18   26.10    4.30
  -1   1 -18   16.10    4.10
  -1   1 -18   20.70    4.80
   1   1  18   21.50    4.50
   1   1  18   18.20    4.70
  -1   1 -18   21.40    5.30
   1   1  18   22.20    5.10
   1   1  18   21.40    2.80
  -1   1 -18   23.60    4.70
   1   1  18   20.40    5.20
   1   1  18   25.20    4.10
  -2  -1 -18   14.40    4.30
   2  -1  18   16.10    4.70
   2  -1  18   10.90    4.10
   2  -1  18   12.50    3.60
  -2  -1 -18   25.00    6.00
   2  -1  18   10.30    6.20
  -2  -1 -18    8.10    4.40
  -2  -1 -18   14.80    5.00
   2  -1  18   20.60    4.70
   2   1  18   11.80    4.60
   2   1  18   21.10    5.60
   2   1  18   16.80    5.00
   2   1  18   15.80    4.20
  -2   1 -18   16.10    4.50
  -2   1 -18   14.40    4.60
   2   1  18   16.90    4.90
  -2   1 -18   19.00    5.00
   3  -1  18   76.09    7.50
   3  -1  18   85.29   10.50
   3  -1  18   96.59    8.30
  -3  -1 -18   97.59    9.00
  -3  -1 -18   81.39    8.80
  -3  -1 -18   86.69    8.20
   3  -1  18  110.09    7.60
  -3   1 -18  100.09    8.00
   3   1  18   82.99    8.90
   3   1  18   76.59    6.40
   3   1  18   90.69    9.40
   3   1  18   95.19   10.20
   3   1  18   81.79    8.60
  -3   1 -18  101.19    9.40
  -3   1 -18   85.39    8.60
   4  -1  18   45.90    5.80
  -4  -1 -18   55.19    8.60
  -4  -1 -18   48.40    7.40
  -4  -1 -18   52.79    7.70
   4  -1  18   47.90    6.60
   4  -1  18   43.50    7.60
   4  -1  18   49.10    6.80
   4  -1  18   46.70    6.20
   4   1  18   46.00    7.20
  -4   1 -18   40.60    6.20
   4   1  18   49.99    7.80
  -4   1 -18   48.90    6.10
  -4   1 -18   55.19    8.20
   4   1  18   45.30    7.10
  -5  -1 -18   -4.60    7.10
   5  -1  18   11.50    6.30
  -5  -1 -18    8.50    7.30
   5  -1  18   -0.50    7.40
  -5  -1 -18   -4.10    7.10
   5  -1  18    5.80    5.90
   5  -1  18    1.40    5.20
  -5  -1 -18    5.60    6.60
   5  -1  18    3.90    5.90
   5   1  18   -4.90    6.70
  -5   1 -18    6.20    7.60
  -5   1 -18   -7.70    6.00
   5   1  18    6.60    6.30
  -5   1 -18   -2.30    5.20
   5   1  18    3.00    6.70
   5   1  18   -2.00    6.60
  -6  -1 -18    5.90    5.90
  -6  -1 -18   14.40    8.30
   6  -1  18   -2.70    5.80
   6  -1  18   -3.20    7.00
  -6  -1 -18   -2.70    6.40
   6  -1  18    2.10    6.70
   6  -1  18    3.20    4.90
   6  -1  18    4.70   15.30
  -6  -1 -18   -4.70    7.20
  -6   1 -18   -1.70    8.20
  -6   1 -18   -1.20    6.80
   6   1  18   -1.30    8.40
  -6   1 -18    0.70   17.30
  -6   1 -18    2.70    7.30
  -6   1 -18  -12.10    8.80
   6   1  18   -9.10    5.70
   6   1  18   -4.20    6.30
   7  -2 -18    2.70    6.20
   7  -2 -18   10.20    7.50
  -7  -2  18    7.70    6.60
   7  -2 -18   17.20    5.50
  -7  -2  18   14.00    7.90
   7  -2 -18   24.30    5.50
  -7  -2  18   11.10    6.50
   7   2 -18   13.00    9.80
   7   2 -18   21.70    7.90
  -7   2  18    6.10    6.00
  -7   2  18   27.30   11.90
  -7   2  18    8.00    8.40
  -7   2  18    3.10    4.30
  -7   2  18   20.30    6.50
   7   2 -18   14.30    7.90
   6  -2 -18   62.39    8.10
   6  -2 -18   46.80    6.50
   6  -2 -18   36.20    7.00
  -6  -2  18   52.49    8.40
   6  -2 -18   43.90    6.60
  -6  -2  18   44.60    7.30
  -6  -2  18   50.49    7.50
  -6  -2  18   56.19    6.70
   6   2 -18   29.10   13.20
  -6   2  18   59.39    8.00
   6   2 -18   52.69    8.10
  -6   2  18   46.70    5.50
  -6   2  18   52.59    6.60
   6   2 -18   37.10    6.70
   6   2 -18   46.50    8.40
  -6   2  18   46.50    9.40
   6   2 -18   41.00    8.20
  -6   2  18   40.80    7.20
  -5  -2  18   18.40    5.90
  -5  -2  18   18.90    5.00
   5  -2 -18   27.70    6.10
  -5  -2  18   22.70    6.20
   5  -2 -18   28.40    5.10
   5  -2 -18   23.10    5.00
  -5  -2  18   16.00    5.30
   5  -2 -18   23.90    4.50
   5   2 -18   17.40    5.50
   5   2 -18   10.80    6.90
  -5   2  18    8.90    4.70
  -5   2  18   23.50    3.90
  -5   2  18   11.30    6.10
  -5   2  18   12.30    7.50
   5   2 -18   35.20    6.00
  -5   2  18   13.00    3.80
  -4  -2  18   -2.00    4.30
   4  -2 -18    2.90    3.90
  -4  -2  18   -2.80    3.30
  -4  -2  18    4.30    4.90
   4  -2 -18    0.90    3.80
   4  -2 -18    1.90    4.80
   4  -2 -18   -5.20    4.10
  -4  -2  18    2.60    4.30
   4   2 -18   -1.70    5.80
  -4   2  18    3.60    4.40
  -4   2  18   -3.20    3.30
  -4   2  18   -2.30    3.00
   4   2 -18    1.90    4.30
   4   2 -18    1.10    5.30
  -4   2  18   16.40    7.10
   3  -2 -18  209.48   10.70
  -3  -2  18  210.88   11.10
   3  -2 -18  213.38   10.10
   3  -2 -18  196.68   10.00
   3  -2 -18  198.08   10.30
  -3  -2  18  201.68   10.20
  -3  -2  18  203.98   10.50
  -3  -2  18  204.38   10.60
   3   2 -18  216.88   10.40
  -3   2  18  207.98   11.00
  -3   2  18  213.48   11.40
  -3   2  18  217.88    9.20
  -3   2  18  207.18    9.50
   3   2 -18  207.58   10.50
   3   2 -18  217.48    8.30
   2  -2 -18  253.27   11.50
   2  -2 -18  260.57   12.10
  -2  -2  18  270.37   12.30
  -2  -2  18  277.77   11.80
   2  -2 -18  257.97   11.60
  -2  -2  18  261.67   11.80
   2  -2 -18  248.38   11.40
  -2  -2  18  269.87   11.60
  -2   2  18  262.47   11.70
  -2   2  18  254.57   11.10
   2   2 -18  256.97   12.70
  -2   2  18  265.27   11.50
  -2   2  18  247.98   12.10
   2   2 -18  260.27   11.20
   2   2 -18  251.37   11.50
  -2   2  18  267.37   12.30
   2   2 -18  256.57   12.50
   1  -2 -18   80.99    6.70
   1  -2 -18   85.99    6.90
   1  -2 -18   77.39    7.60
  -1  -2  18   84.09    6.90
  -1  -2  18   82.29    6.80
  -1  -2  18   84.09    7.70
   1  -2 -18   78.89    6.90
  -1  -2  18   77.19    6.50
   1   2 -18   85.89    7.90
  -1   2  18   75.99    7.60
  -1   2  18   90.39    7.90
   1   2 -18   81.19    6.30
   1   2 -18   72.49    8.10
  -1   2  18   84.29    6.50
  -1   2  18   80.89    5.40
  -1   2  18   88.39    6.70
   1   2 -18   77.59    6.70
  -1   2  18   77.89    6.30
   0  -2  18    1.20    3.50
   0  -2 -18   -0.50    4.30
   0  -2 -18    5.60    3.90
   0  -2 -18    5.80    3.90
   0  -2  18    0.10    3.30
   0  -2  18   -1.20    4.00
   0  -2  18    4.50    3.60
   0  -2 -18    0.40    3.30
   0   2 -18    5.60    4.60
   0   2  18    3.80    4.70
   0   2  18   -1.20    3.60
   0   2  18   -1.70    3.50
   0   2 -18   -3.10    4.30
   0   2 -18    1.80    2.90
   0   2 -18    2.20    3.50
   0   2  18    1.00    3.50
   0   2  18    0.20    4.60
  -1  -2 -18    1.70    3.90
   1  -2  18   -4.80    6.80
  -1  -2 -18    3.70    4.20
   1  -2  18   -0.90    3.20
  -1  -2 -18    1.40    4.20
   1  -2  18    0.00    3.80
   1  -2  18   -1.10    3.40
  -1  -2 -18    0.30    4.20
   1  -2  18    3.70    3.30
  -1   2 -18    0.90    2.90
  -1   2 -18    0.30    3.10
   1   2  18   -0.20    4.10
   1   2  18   -1.80    3.70
  -1   2 -18    2.00    4.60
   1   2  18    3.70    5.00
   1   2  18    2.50    4.20
  -1   2 -18    2.60    4.90
   2  -2  18    9.90    8.50
   2  -2  18    7.20    4.10
   2  -2  18    5.70    3.70
  -2  -2 -18   17.00    5.00
  -2  -2 -18   17.80    5.50
   2  -2  18   10.50    3.60
  -2  -2 -18    8.60    4.10
  -2  -2 -18    6.80    4.30
   2  -2  18   15.90    4.10
  -2   2 -18   11.30    3.50
  -2   2 -18   12.80    4.90
   2   2  18   10.80    5.80
   2   2  18   13.40    5.40
   2   2  18    6.40    4.60
  -2   2 -18    9.20    3.50
   2   2  18   10.40    4.00
   3  -2  18    0.50    3.90
  -3  -2 -18   -4.50    5.30
  -3  -2 -18    5.50    4.30
  -3  -2 -18    9.00    5.40
   3  -2  18    0.80    4.20
   3  -2  18   -3.70    4.00
  -3  -2 -18   -1.10    5.20
   3  -2  18    0.80    4.60
  -3   2 -18    7.10    5.20
  -3   2 -18    6.30   15.70
   3   2  18   -8.60    4.80
   3   2  18    6.70    5.50
  -3   2 -18    4.90    3.50
   3   2  18   -0.90    4.20
  -3   2 -18    2.70    3.40
  -3   2 -18    1.20    6.20
   3   2  18    1.50    5.20
   4  -2  18    6.20    9.30
  -4  -2 -18   -1.70    6.50
  -4  -2 -18   -3.70    6.70
  -4  -2 -18    7.30    5.40
  -4  -2 -18    0.40    7.30
   4  -2  18   10.60    4.60
   4  -2  18    8.30    5.00
   4  -2  18    1.60    5.10
   4  -2  18    5.90    5.80
  -4   2 -18    9.70   17.00
   4   2  18    8.60    6.00
   4   2  18    7.20    7.10
  -4   2 -18    8.70    7.10
   4   2  18    5.30    4.50
  -4   2 -18    6.80    4.60
  -4   2 -18    0.60    3.80
  -4   2 -18    4.70    6.20
   4   2  18   11.10    6.10
   5  -2  18    7.20    5.70
  -5  -2 -18   -2.80    6.80
  -5  -2 -18   -9.20    5.50
   5  -2  18   13.10    5.30
  -5  -2 -18   -0.80    7.90
   5  -2  18   -6.60    5.10
   5  -2  18    5.90   11.20
   5  -2  18    0.20    6.30
  -5  -2 -18   -9.00    5.30
   5   2  18    3.50    7.10
   5   2  18   -2.20    5.50
   5   2  18    0.50    7.40
   5   2  18   -5.80    7.40
  -5   2 -18    0.00    5.10
  -5   2 -18   -9.80    8.10
  -5   2 -18    9.90   15.60
   5   2  18   -2.90    6.00
  -5   2 -18    2.50    5.70
  -5   2 -18   -0.30    4.50
  -5  -3  18    6.60    5.20
   5  -3 -18    5.60    5.40
   5  -3 -18    7.50    4.90
  -5  -3  18    6.80    5.20
   5  -3 -18   13.10    6.40
   5  -3 -18   13.70    3.50
  -5  -3  18   -6.70    6.70
  -5  -3  18   11.60    4.90
   5   3 -18   -2.70    4.10
   5   3 -18   10.30    5.60
   5   3 -18   -0.50    4.40
  -5   3  18    1.40    8.50
   5   3 -18    4.70    8.30
  -5   3  18   12.30    6.80
  -5   3  18   17.60    5.60
   5   3 -18   13.30    6.00
   4  -3 -18    2.90    4.90
   4  -3 -18   15.90    3.60
  -4  -3  18    8.00    5.50
  -4  -3  18    8.20    5.20
   4  -3 -18    2.80    5.00
  -4  -3  18    4.40    4.90
   4  -3 -18    9.40    5.20
  -4  -3  18    3.40    5.90
  -4   3  18    2.20    7.50
   4   3 -18    4.10    3.40
  -4   3  18    6.30    6.20
  -4   3  18   10.00    5.20
   4   3 -18    0.70    6.60
   4   3 -18    5.40    6.60
   4   3 -18    8.10    4.60
   4   3 -18    0.90   13.70
   4   3 -18    6.00    4.10
   3  -3 -18   15.60    4.90
  -3  -3  18   21.70    5.80
  -3  -3  18   23.30    4.60
  -3  -3  18   24.90    5.10
  -3  -3  18   26.10    5.30
   3  -3 -18   25.90    5.40
   3   3 -18   21.60    7.00
   3   3 -18   33.60    6.60
   3   3 -18   15.90   13.70
   3   3 -18   40.10    4.90
  -3   3  18   20.00    6.00
  -3   3  18   28.10    6.70
   2  -3 -18    3.30    4.50
   2  -3 -18    3.80    4.70
  -2  -3  18   -0.20    4.70
  -2  -3  18   -1.20    4.20
   2  -3 -18    6.90    4.30
  -2  -3  18   -2.90    3.10
   2  -3 -18    9.60    3.20
  -2  -3  18    3.90    4.30
  -2   3  18    0.80    5.20
   2   3 -18    1.40    1.60
   2   3 -18   13.10    5.40
   2   3 -18   26.30   14.60
   2   3 -18    2.50    3.60
  -2   3  18    1.60    4.90
  -2   3  18    2.10    5.10
   2   3 -18    6.70    6.30
  -2   3  18   15.50    4.70
   2   3 -18    1.50    2.20
   1  -3 -18   14.80    3.30
  -1  -3  18    9.00    4.40
   1  -3 -18    9.40    4.40
  -1  -3  18   14.10    5.00
   1  -3 -18   12.30    4.90
  -1  -3  18   16.40    3.20
  -1  -3  18    3.00    4.60
   1  -3 -18   12.30    4.40
  -1   3  18    9.70    4.60
  -1   3  18   11.30    5.60
   1   3 -18   11.20    5.70
  -1   3  18   17.10    5.30
   1   3 -18   16.80   15.30
   1   3 -18   11.30    7.20
   0  -3  18   41.00    5.40
   0  -3 -18   35.70    5.90
   0  -3  18   39.10    4.30
   0  -3 -18   40.30    4.50
   0  -3  18   42.90    5.40
   0  -3  18   38.50    5.20
   0  -3 -18   31.40    5.50
   0  -3 -18   37.60    5.40
   0  -3  18   35.70   11.90
   0   3  18   40.10    6.50
   0   3 -18   20.30    5.60
   0   3 -18   19.60   17.00
   0   3  18   37.40    5.90
   0   3  18   37.50    6.40
  -1  -3 -18    3.70    5.30
  -1  -3 -18    3.20    4.30
   1  -3  18    4.00   10.70
   1  -3  18    8.80    4.60
   1  -3  18    4.40    2.80
   1  -3  18    6.20    4.30
  -1  -3 -18   -2.20    4.70
   1  -3  18   -4.90    4.10
  -1  -3 -18    0.20    4.80
  -1   3 -18    5.20   16.80
  -1   3 -18   -2.70    5.50
  -1   3 -18   -0.60    4.70
   1   3  18   -2.10    6.00
   1   3  18    3.70    3.40
   1   3  18   13.00    5.80
   1   3  18   -1.50    2.90
   1   3  18   -4.20    4.00
  -2  -3 -18   11.20    6.00
   2  -3  18    6.20    9.90
  -2  -3 -18   13.70    5.30
   2  -3  18   12.20    4.70
  -2  -3 -18   24.20    5.70
   2  -3  18   12.70    4.90
   2  -3  18   15.90    4.90
  -2  -3 -18   15.70    6.40
   2   3  18   12.00    6.20
  -2   3 -18    0.10    5.00
   2   3  18    3.00    6.60
  -2   3 -18    5.60   16.10
   2   3  18   15.20    4.30
   2   3  18   16.20    5.50
  -2   3 -18   11.00    6.30
  -3  -3 -18   47.70    7.80
  -3  -3 -18   51.69    6.30
  -3  -3 -18   66.19    7.30
  -3  -3 -18   46.80    7.10
   3  -3  18   51.99   10.50
   3  -3  18   56.09    7.30
   3  -3  18   62.19    6.90
   3   3  18   49.00   10.80
   3   3  18   44.40    6.50
  -3   3 -18   45.20    7.90
  -3   3 -18   69.19   20.10
   3   3  18   72.29    9.00
   3   3  18   32.90    8.60
  -8   0  19    1.30    8.10
  -8   0  19    4.80    7.20
   8   0 -19    7.90    8.40
  -8   0  19   -2.80    5.90
  -8   0  19   -6.00    6.90
   7   0 -19  111.49   11.80
   7   0 -19   98.49   12.40
  -7   0  19   94.39   11.80
   7   0 -19  117.19   12.20
  -7   0  19   98.19   12.70
   7   0 -19  120.89   11.40
  -7   0  19  110.69   12.20
  -7   0  19  127.99   12.10
  -6   0  19    1.30    6.00
  -6   0  19    2.00    6.70
   6   0 -19    1.40    5.80
   6   0 -19    2.10    6.40
  -6   0  19   15.30    6.40
   6   0 -19    4.70    6.20
  -5   0  19  682.03   26.00
   5   0 -19  726.13   26.30
   5   0 -19  701.93   26.10
  -5   0  19  731.93   26.90
  -5   0  19  698.63   26.30
  -4   0  19   -2.30    4.90
   4   0 -19    1.50    4.80
  -4   0  19   -3.50    4.00
   4   0 -19    2.50    5.40
  -4   0  19   -4.60    4.10
  -4   0  19   -9.00    4.70
  -3   0  19  247.38   12.90
  -3   0  19  269.57   12.50
   3   0 -19  286.77   13.00
  -3   0  19  290.87   12.60
  -3   0  19  304.27   13.40
   3   0 -19  255.17   13.50
   3   0 -19  271.17   12.60
   3   0 -19  283.47   12.70
   2   0 -19    1.00    4.20
   2   0 -19    0.10    4.60
   2   0 -19   -0.50    3.80
   2   0 -19    2.60    5.10
  -2   0  19   -2.70    4.30
  -2   0  19   -1.20    4.30
  -2   0  19   -1.60    3.50
  -2   0  19   -5.00    3.80
  -1   0  19  134.09    8.80
   1   0 -19  124.49    8.60
  -1   0  19  129.09    8.50
   1   0 -19  137.39    8.30
  -1   0  19  127.99    8.80
  -1   0  19  134.69    9.40
   1   0 -19  113.99    8.80
   1   0 -19  146.69    9.80
   0   0  19    2.90    3.80
   0   0  19   -2.90    4.30
   0   0 -19    2.90    4.90
   0   0  19   -1.80    3.80
   0   0 -19    2.10    4.40
   0   0 -19    4.40    5.30
   0   0  19    7.10    5.10
   0   0 -19    0.20    3.90
   0   0  19    3.90    2.00
   1   0  19 1139.89   38.00
   1   0  19 1149.69   38.20
   1   0  19 1161.98   37.80
   1   0  19 1131.19   38.30
  -1   0 -19 1173.28   38.20
  -1   0 -19 1101.89   38.10
  -1   0 -19 1167.18   38.50
   1   0  19 1056.69   36.00
   1   0  19 1127.99   38.40
  -1   0 -19 1123.49   38.40
  -2   0 -19  -11.10    5.20
  -2   0 -19   -5.50    4.40
  -2   0 -19    4.20    4.80
   2   0  19   -3.20    4.40
   2   0  19    1.80    3.20
   2   0  19    2.40    5.10
  -2   0 -19    3.00    4.80
   2   0  19    2.60    4.30
   2   0  19   -2.20    3.70
  -3   0 -19  151.38   11.40
   3   0  19  138.79   10.10
  -3   0 -19  133.99   10.50
   3   0  19  133.99    9.50
  -3   0 -19  131.99    9.80
   3   0  19  144.99    8.70
  -3   0 -19  137.29   10.80
   3   0  19  132.69   10.20
   4   0  19    8.60    6.30
   4   0  19    7.10    4.90
   4   0  19    0.90    6.90
   4   0  19   -4.60    4.70
  -4   0 -19   -0.90    6.30
  -4   0 -19    4.00    6.40
  -4   0 -19    3.70    6.30
  -5   0 -19  100.59   12.50
   5   0  19   81.09   10.50
   5   0  19   96.79   10.50
   5   0  19  103.29   11.10
  -5   0 -19  100.49   12.20
  -5   0 -19   97.59   12.30
   5   0  19   99.09   12.30
  -5   0 -19   95.19   11.80
  -6   0 -19    5.80    8.00
   6   0  19   -2.30    6.40
  -6   0 -19    1.40    6.50
  -6   0 -19    7.20    7.10
   6   0  19  -10.30    8.30
   6   0  19   -0.50    6.30
  -6   0 -19    9.40   10.00
   7  -1 -19  173.28   12.10
   7  -1 -19  180.38   12.20
  -7  -1  19  184.98   13.30
   7  -1 -19  194.18   12.90
  -7  -1  19  186.28   13.40
  -7  -1  19  159.88   13.10
  -7  -1  19  190.48   14.20
   7  -1 -19  203.88   14.10
   7   1 -19  171.88   13.40
   7   1 -19  194.88   14.30
  -7   1  19  188.78   12.70
  -7   1  19  190.48   11.90
   7   1 -19  183.98   14.50
  -7   1  19  178.68   13.10
  -7   1  19  202.18   13.20
   7   1 -19  202.88   14.40
   6  -1 -19  147.49   10.20
  -6  -1  19  128.49   10.90
  -6  -1  19  112.89   11.20
  -6  -1  19  145.59   11.20
   6  -1 -19  129.39    9.70
   6  -1 -19  143.09   10.10
   6  -1 -19  146.29   11.60
   6   1 -19  127.09   12.30
  -6   1  19  155.38   11.20
   6   1 -19  134.09   11.60
  -6   1  19  123.59    9.90
   6   1 -19  140.79   11.90
   6   1 -19  142.09   11.70
  -5  -1  19   34.80    6.00
  -5  -1  19   30.80    6.40
   5  -1 -19   32.20    6.20
   5  -1 -19   31.40    5.90
   5  -1 -19   20.10    6.00
   5  -1 -19   30.00    5.20
  -5  -1  19   26.00    6.00
   5   1 -19   23.70    6.60
  -5   1  19   28.30    5.20
   5   1 -19   30.40    6.90
  -5   1  19   24.90    6.60
  -5   1  19   26.20    5.10
   5   1 -19   29.60    6.50
   4  -1 -19   65.19    6.40
  -4  -1  19   63.29    7.60
  -4  -1  19   65.29    8.50
   4  -1 -19   68.19    6.90
   4  -1 -19   60.59    7.80
  -4  -1  19   64.19    7.00
  -4  -1  19   66.59    8.20
   4   1 -19   60.29    8.00
  -4   1  19   74.19    7.60
   4   1 -19   67.19    8.60
  -4   1  19   75.69    8.30
   4   1 -19   65.99    7.30
  -4   1  19   66.39    8.40
   4   1 -19   60.59    7.40
   3  -1 -19    5.30    3.70
  -3  -1  19   10.90    4.70
   3  -1 -19    4.90    5.30
  -3  -1  19    5.40    4.20
  -3  -1  19    9.90    3.80
  -3  -1  19    9.30    4.40
   3  -1 -19    7.70    4.10
   3  -1 -19    6.10    4.30
   3   1 -19   12.30    4.70
   3   1 -19    5.00    4.80
  -3   1  19    7.20    4.60
   3   1 -19   10.60    4.90
   3   1 -19    7.10    5.90
  -3   1  19    6.00    4.70
  -3   1  19    9.90    4.30
  -3   1  19   12.90    4.20
   2  -1 -19   14.80    5.30
   2  -1 -19   28.70    4.80
  -2  -1  19   18.10    4.60
  -2  -1  19   16.80    4.20
  -2  -1  19    7.30    3.60
   2  -1 -19   13.90    4.80
   2  -1 -19   19.90    4.30
  -2  -1  19   12.60    4.10
   2   1 -19   17.90    4.80
  -2   1  19   15.60    4.80
   2   1 -19   13.30    5.30
   2   1 -19   13.40    4.50
  -2   1  19   14.20    4.70
  -2   1  19   11.40    4.50
   2   1 -19   10.20    4.70
  -2   1  19   14.80    4.40
  -1  -1  19   96.29    7.00
  -1  -1  19   79.49    7.10
   1  -1 -19  101.99    7.80
   1  -1 -19   86.19    8.10
   1  -1 -19   97.69    7.60
  -1  -1  19   89.59    7.60
   1  -1 -19   95.39    7.80
  -1  -1  19   91.29    7.60
   1   1 -19   91.39    8.00
   1   1 -19   88.49    7.80
   1   1 -19   86.59    7.50
   1   1 -19   95.19    7.30
  -1   1  19  101.69    7.40
  -1   1  19  102.69    8.00
  -1   1  19  101.19    6.00
  -1   1  19   91.59    7.30
  -1   1  19  101.79    8.50
   0  -1  19  132.19    8.40
   0  -1 -19  149.79    9.20
   0  -1 -19  147.39    9.60
   0  -1  19  135.59    8.60
   0  -1  19  143.79    8.90
   0  -1 -19  145.49    8.90
   0  -1  19  148.99    9.00
   0  -1 -19  149.49    9.10
   0   1 -19  144.99    8.80
   0   1  19  142.89    9.80
   0   1  19  143.69    8.70
   0   1  19  154.38    9.60
   0   1 -19  140.29    9.20
   0   1  19  138.39    7.00
   0   1 -19  126.49    8.80
   0   1 -19  138.99    8.60
   0   1  19  135.39    9.00
   1  -1  19  115.69    8.30
   1  -1  19   94.09    9.60
   1  -1  19  114.99    7.70
   1  -1  19  109.59    7.80
   1  -1  19  122.89    8.30
  -1  -1 -19  124.59    8.60
  -1  -1 -19  119.29    9.00
  -1  -1 -19  120.09    9.00
  -1  -1 -19  119.79    8.40
   1   1  19  121.09    6.80
   1   1  19  121.69    8.50
   1   1  19  121.49    8.80
   1   1  19  120.19    9.60
  -1   1 -19  125.49    9.00
  -1   1 -19  121.39    8.70
   1   1  19  111.29    9.00
  -1   1 -19   96.79    8.00
   1   1  19  101.49    5.10
  -1   1 -19   96.19    9.10
   2  -1  19  101.49    8.30
   2  -1  19  100.69    8.40
  -2  -1 -19  109.59    8.80
   2  -1  19  112.69   10.50
   2  -1  19  101.89    7.50
  -2  -1 -19   94.79    9.20
  -2  -1 -19  106.99    8.60
   2  -1  19  105.19    7.70
   2   1  19   93.09    4.30
   2   1  19  101.69    6.50
  -2   1 -19   82.59    8.60
   2   1  19   93.09   10.00
  -2   1 -19  105.99    8.20
   2   1  19  102.29    8.50
  -2   1 -19  104.59    9.30
   2   1  19  106.59    8.90
   2   1  19  112.19    8.80
  -3  -1 -19   44.40    7.50
   3  -1  19   51.79    7.00
   3  -1  19   49.10    5.70
  -3  -1 -19   53.09    6.70
   3  -1  19   47.30    6.20
   3  -1  19   35.10    7.60
  -3  -1 -19   62.39    7.80
  -3   1 -19   41.20    5.60
   3   1  19   51.89    7.90
  -3   1 -19   54.59    8.10
   3   1  19   46.20    5.80
   3   1  19   43.90    6.80
   3   1  19   47.70    6.90
  -3   1 -19   52.89    6.40
  -4  -1 -19   31.40    8.50
   4  -1  19   28.40    6.80
   4  -1  19   27.00    4.90
  -4  -1 -19   39.80    7.50
   4  -1  19   36.60    7.80
   4  -1  19   28.50    6.00
   4  -1  19   40.10    7.00
  -4  -1 -19   26.40    7.10
   4   1  19   23.40    6.10
   4   1  19   39.50    7.70
   4   1  19   27.70    7.00
  -4   1 -19   30.80    6.10
   4   1  19   35.60    6.90
  -4   1 -19   39.60    7.30
  -4   1 -19   32.70    6.20
  -5  -1 -19   29.10    8.80
   5  -1  19   16.50    5.90
   5  -1  19   20.00    6.50
   5  -1  19    3.40    8.10
  -5  -1 -19   16.30    7.40
   5  -1  19   17.90    6.40
  -5  -1 -19   25.70    7.80
   5  -1  19   10.40    6.30
  -5  -1 -19   13.50    8.00
  -5   1 -19   12.50    7.10
  -5   1 -19   22.40    7.30
   5   1  19   11.40    7.50
   5   1  19   24.90    8.40
   5   1  19   29.50    8.50
  -5   1 -19   12.90    6.00
   5   1  19   21.40    7.20
  -6  -2  19   49.40    7.40
   6  -2 -19   69.89    7.90
   6  -2 -19   45.00    6.40
  -6  -2  19   73.59    7.40
   6  -2 -19   45.40    7.40
  -6  -2  19   49.90    7.20
  -6  -2  19   56.89    7.40
   6  -2 -19   48.10    7.90
  -6   2  19   55.39    7.00
   6   2 -19   52.79    7.90
  -6   2  19   50.89    8.30
   6   2 -19   45.70    7.70
  -6   2  19   35.50    8.00
   6   2 -19   60.99    7.60
  -6   2  19   51.39    6.10
  -6   2  19   76.19   11.70
   6   2 -19   44.40    7.50
  -5  -2  19    2.60    5.90
   5  -2 -19    0.10    4.30
   5  -2 -19   -5.70    4.80
  -5  -2  19    5.40    5.70
   5  -2 -19   -3.90    5.80
   5  -2 -19    3.30    4.20
  -5  -2  19    6.00    4.80
  -5  -2  19   -9.40    5.10
   5   2 -19    0.10    6.50
  -5   2  19    6.10    4.00
  -5   2  19    2.60    4.10
  -5   2  19    4.70    6.40
   5   2 -19   -0.40    4.60
  -5   2  19   -0.50    5.30
   5   2 -19    4.30    5.00
  -5   2  19    6.60    7.30
  -4  -2  19   27.70    6.30
   4  -2 -19   28.60    5.00
  -4  -2  19   24.30    5.70
   4  -2 -19   25.90    5.20
  -4  -2  19   21.00    5.40
   4  -2 -19   34.80    5.00
  -4  -2  19   20.30    4.80
   4  -2 -19   31.20    5.60
  -4   2  19   29.50    7.70
  -4   2  19   29.30   11.00
   4   2 -19   28.80    4.20
   4   2 -19   24.80    5.50
  -4   2  19   19.50    4.30
  -4   2  19   25.50    4.10
  -4   2  19   32.20    5.60
   4   2 -19   13.10    6.30
   4   2 -19   30.70    5.50
  -3  -2  19   57.09    6.40
   3  -2 -19   50.39    5.60
  -3  -2  19   48.60    6.10
  -3  -2  19   67.89    6.50
   3  -2 -19   54.39    6.40
   3  -2 -19   47.80    6.40
   3  -2 -19   44.90    5.50
  -3  -2  19   60.89    6.70
  -3   2  19   58.79    6.30
   3   2 -19   52.49    3.80
  -3   2  19   45.80    6.00
  -3   2  19   57.49    7.90
   3   2 -19   53.69    7.10
   3   2 -19   51.89    5.90
  -3   2  19   55.59    5.70
   2  -2 -19   -3.60    4.10
   2  -2 -19    3.00    3.60
  -2  -2  19   -0.80    3.90
  -2  -2  19   -1.40    4.50
   2  -2 -19   -1.70    3.60
  -2  -2  19    2.90    3.10
  -2  -2  19   -9.80    3.50
   2  -2 -19   -2.50    4.10
  -2   2  19   -3.60    4.30
  -2   2  19   -1.50    3.80
   2   2 -19   -0.50    3.50
   2   2 -19    2.70    5.30
   2   2 -19    5.10    5.30
  -2   2  19    4.00    4.30
   2   2 -19   -0.40    4.00
  -2   2  19    2.00    3.90
  -2   2  19    2.30    3.70
   1  -2 -19   -3.40    4.10
   1  -2 -19    6.60    4.20
  -1  -2  19    2.90    4.10
  -1  -2  19    3.00    3.70
  -1  -2  19    0.60    3.70
  -1  -2  19   -0.30    3.90
   1  -2 -19   -2.00    3.60
   1  -2 -19    0.30    4.10
  -1   2  19   -3.30    3.60
  -1   2  19    2.10    2.90
   1   2 -19    6.40    3.70
   1   2 -19    2.10    4.70
   1   2 -19   -0.30    4.50
  -1   2  19   -3.50    4.10
   1   2 -19   -0.80    3.40
  -1   2  19   -0.20    4.50
  -1   2  19    0.00    3.80
  -1   2  19   -0.30    3.90
   0  -2  19   81.69    7.70
   0  -2  19   79.19    7.00
   0  -2 -19   64.29    6.50
   0  -2 -19   69.29    6.00
   0  -2  19   89.89    6.50
   0  -2 -19   69.79    7.10
   0  -2  19   62.89    6.20
   0  -2 -19   65.89    7.70
   0   2 -19   66.39    6.30
   0   2 -19   75.09    6.10
   0   2  19   65.49    6.40
   0   2 -19   49.70    6.50
   0   2  19   74.49    6.90
   0   2  19   73.79    7.90
   0   2  19   78.69    7.50
   0   2 -19   73.89    7.80
  -1  -2 -19  115.29    9.30
  -1  -2 -19  117.19    8.40
   1  -2  19  118.99    7.50
   1  -2  19  120.49    9.00
   1  -2  19  105.09    7.30
  -1  -2 -19  103.99    8.00
   1  -2  19   96.89   12.70
  -1  -2 -19  122.09    8.10
   1  -2  19  111.39    7.80
   1   2  19  114.39    8.80
  -1   2 -19  125.69    7.00
   1   2  19  108.19    7.20
  -1   2 -19  111.79    7.00
   1   2  19  123.09    9.30
  -1   2 -19  104.69    8.30
   1   2  19  113.49    8.40
   2  -2  19  220.38   10.70
  -2  -2 -19  236.98   11.80
   2  -2  19  238.98   11.80
  -2  -2 -19  234.68   11.90
  -2  -2 -19  231.98   12.60
   2  -2  19  211.88   11.00
   2  -2  19  218.88   11.00
  -2  -2 -19  233.48   12.50
  -2   2 -19  220.28   10.00
   2   2  19  215.08   11.90
  -2   2 -19  220.58   10.10
   2   2  19  216.78   13.10
   2   2  19  221.18   11.60
  -2   2 -19  237.78   11.80
   2   2  19  202.68   10.40
  -3  -2 -19    8.60    6.60
   3  -2  19    6.40    4.50
   3  -2  19   15.60    4.70
  -3  -2 -19    9.30    5.70
  -3  -2 -19    3.40    5.40
   3  -2  19    4.20    5.30
  -3  -2 -19   12.20    5.30
   3  -2  19   13.20    4.90
  -3   2 -19   11.50    5.40
  -3   2 -19   12.10    4.00
   3   2  19    3.70    5.60
   3   2  19    5.10    5.10
   3   2  19   10.40    4.30
  -3   2 -19   13.40    4.00
  -3   2 -19   13.60    6.60
   3   2  19   14.80    5.70
  -4  -2 -19   18.10    7.20
   4  -2  19   17.60    5.30
   4  -2  19    7.80    5.50
   4  -2  19   14.50   10.20
   4  -2  19   17.40    5.40
  -4  -2 -19   24.60    7.10
  -4  -2 -19   10.70    6.70
  -4  -2 -19   18.80    5.70
   4  -2  19   16.30    6.40
   4   2  19   27.50    6.50
  -4   2 -19   21.50    8.10
   4   2  19   23.20    6.00
   4   2  19   12.30    6.00
   4   2  19   25.20    6.80
  -4   2 -19   19.80   16.50
  -4   2 -19   21.30    5.00
   4   2  19   13.20    6.60
  -4   2 -19   20.50    5.00
  -4   2 -19   24.20    7.20
  -4  -3  19    2.40    6.20
   4  -3 -19   -5.30    4.60
  -4  -3  19   15.00    5.10
  -4  -3  19    9.60    5.00
   4  -3 -19   15.40    3.70
   4  -3 -19   12.50    5.70
  -4  -3  19   -2.20    4.90
   4  -3 -19    5.10    5.60
   4   3 -19    3.20    4.30
   4   3 -19   -3.10    7.10
  -4   3  19    4.60    7.50
  -4   3  19    0.80    5.50
   4   3 -19   10.20   13.30
   4   3 -19    5.00    3.60
  -4   3  19   -4.70    5.90
   4   3 -19   -5.60    4.10
   4   3 -19   15.80    6.80
  -3  -3  19    9.50    4.90
  -3  -3  19   11.10    6.00
  -3  -3  19   13.40    4.50
   3  -3 -19    6.10    5.10
   3  -3 -19    5.90    5.20
  -3  -3  19    5.70    5.20
   3  -3 -19   16.50    3.60
   3   3 -19   14.10   13.80
  -3   3  19    4.20    6.10
   3   3 -19    1.10    3.20
   3   3 -19   -1.00    3.60
   3   3 -19   14.40    7.10
  -3   3  19   13.70    6.60
   3   3 -19   -0.90    2.80
   3   3 -19    5.10    6.10
  -3   3  19    2.70    5.00
  -2  -3  19   27.80    5.90
  -2  -3  19   24.60    5.40
   2  -3 -19   20.70    5.10
  -2  -3  19   20.90    4.20
  -2  -3  19   35.10    5.30
   2  -3 -19   15.40    4.90
   2  -3 -19   22.50    4.00
   2  -3 -19   21.80    5.60
   2   3 -19   21.60    7.10
  -2   3  19   30.00    5.30
   2   3 -19   -2.60   14.30
  -2   3  19   16.90    5.70
  -2   3  19   20.30    6.30
   2   3 -19   25.00    6.10
  -2   3  19   26.00    5.10
   1  -3 -19   15.40    3.90
  -1  -3  19   12.30    4.80
  -1  -3  19    0.80    4.70
   1  -3 -19   16.10    5.40
  -1  -3  19   11.70    4.90
  -1  -3  19   10.80    3.50
   1  -3 -19   14.40    5.00
   1  -3 -19    4.80    4.60
   1   3 -19   12.60    5.60
  -1   3  19    6.30    5.10
  -1   3  19    9.90    5.80
   1   3 -19    9.00    6.20
  -1   3  19   10.50    4.80
   1   3 -19   28.10   16.10
   0  -3  19   12.30   11.30
   0  -3  19    2.80    4.60
   0  -3  19   -0.60    4.80
   0  -3  19   12.00    4.50
   0  -3 -19    7.40    4.60
   0  -3  19    3.10    3.30
   0  -3 -19   -6.60    4.80
   0  -3 -19   -1.10    3.90
   0  -3 -19   -5.60    4.40
   0   3  19    0.80    4.60
   0   3 -19    1.80   16.10
   0   3  19   -2.90    2.80
   0   3 -19   -0.30    5.90
   0   3 -19    2.30    5.30
   0   3  19    5.10    5.90
   0   3  19   -0.60    5.30
   0   3  19    2.10    2.50
   1  -3  19    4.40    4.30
  -1  -3 -19    0.20    5.40
  -1  -3 -19    3.70    4.80
  -1  -3 -19    6.70    5.80
   1  -3  19    3.60    4.70
   1  -3  19    8.80    3.30
   1  -3  19  -12.20   11.80
   1  -3  19    5.00    4.60
  -1  -3 -19    5.70    5.40
  -1   3 -19   12.00    6.50
   1   3  19    1.20    5.60
   1   3  19    0.70    3.30
   1   3  19    9.10    4.50
   1   3  19    0.00    3.50
  -1   3 -19    9.70    5.20
  -1   3 -19    8.40   17.30
   1   3  19    9.80    6.70
  -2  -3 -19   16.30    5.60
   2  -3  19   23.40    5.50
  -2  -3 -19   10.00    5.10
   2  -3  19    3.00    8.60
  -2  -3 -19    8.20    6.50
   2  -3  19   10.70    5.40
  -2  -3 -19    2.90    5.80
   2  -3  19    9.60    4.90
  -2   3 -19   16.40    6.80
   2   3  19   12.40    4.80
   2   3  19    9.40    6.50
   2   3  19    2.40    3.90
  -2   3 -19    3.30    5.50
   2   3  19   11.90    6.60
   2   3  19   10.70    6.90
  -2   3 -19   -0.50   16.40
   7   0 -20   -8.90    6.80
  -7   0  20    4.60    7.00
   7   0 -20    9.30    6.60
  -7   0  20    4.40    7.50
   7   0 -20  -11.30    7.10
  -7   0  20    2.60    7.30
  -7   0  20    2.00    6.70
   7   0 -20    4.80    6.90
   6   0 -20  267.47   15.30
  -6   0  20  282.07   15.90
   6   0 -20  295.27   15.60
   6   0 -20  304.57   15.30
  -6   0  20  308.87   15.50
  -6   0  20  313.57   15.20
  -6   0  20  334.27   15.60
   5   0 -20   -5.50    4.80
   5   0 -20   -6.20    6.40
  -5   0  20    2.30    6.10
   5   0 -20    5.60    5.10
  -5   0  20    2.20    5.20
  -5   0  20    2.30    6.80
  -4   0  20   20.10    5.40
  -4   0  20   28.30    6.70
   4   0 -20   11.20    5.10
  -4   0  20   15.70    4.70
   4   0 -20   23.90    6.00
  -4   0  20   21.40    5.20
   4   0 -20   21.00    6.60
  -3   0  20    0.20    5.00
  -3   0  20    5.80    4.20
   3   0 -20    4.10    5.70
   3   0 -20    3.00    6.00
   3   0 -20    3.70    4.60
   3   0 -20    3.80    4.00
  -3   0  20    0.20    5.00
  -3   0  20    0.30    4.40
   2   0 -20   14.90    4.30
   2   0 -20    8.20    5.50
  -2   0  20   17.20    4.70
  -2   0  20   12.00    4.90
   2   0 -20   17.50    5.20
  -2   0  20   14.50    4.60
   2   0 -20   12.50    5.10
  -2   0  20    8.00    4.90
   1   0 -20    1.10    5.30
  -1   0  20    3.50    4.30
   1   0 -20    1.50    4.20
   1   0 -20    0.00    4.40
  -1   0  20    0.50    4.40
  -1   0  20    3.60    4.50
  -1   0  20   -4.60    4.60
   1   0 -20    5.50    5.30
   0   0  20   53.59    7.00
   0   0  20   63.69    7.40
   0   0 -20   61.49    7.10
   0   0 -20   66.39    7.60
   0   0  20   65.99    7.10
   0   0 -20   64.39    7.60
   0   0  20   64.89    7.40
   0   0 -20   62.19    7.20
   1   0  20    7.30    4.70
   1   0  20    6.40    2.40
  -1   0 -20    6.60    4.20
   1   0  20    1.00    4.30
   1   0  20    9.10    5.60
  -1   0 -20   13.10    5.10
  -1   0 -20    5.50    6.10
   1   0  20    9.30    4.40
  -1   0 -20    7.30    5.20
   1   0  20    9.40    5.70
  -2   0 -20  369.56   15.80
   2   0  20  361.06   13.20
   2   0  20  355.16   15.60
   2   0  20  357.96   14.90
  -2   0 -20  363.06   15.50
   2   0  20  350.96   15.40
  -2   0 -20  356.36   15.70
   2   0  20  354.06   15.40
  -2   0 -20  347.97   15.80
  -3   0 -20    8.40    6.10
  -3   0 -20   10.40    6.10
  -3   0 -20    7.40    5.50
   3   0  20   -1.70    5.90
   3   0  20   -0.10    4.40
   3   0  20    1.70    4.50
   3   0  20    2.80    6.50
   4   0  20   18.20    5.70
  -4   0 -20   41.30    8.00
   4   0  20   33.90    7.10
   4   0  20   34.50    8.20
  -4   0 -20   30.80    7.50
  -4   0 -20   24.70    7.40
   4   0  20   28.10    5.80
  -4   0 -20   18.20    6.30
   5   0  20    2.80    6.10
  -5   0 -20   15.50    7.40
   5   0  20    7.90    7.40
  -5   0 -20   -6.50    7.20
  -5   0 -20    7.60    7.70
   5   0  20    9.70    7.10
  -5   0 -20    6.20    8.60
   5   0  20   -9.20    7.20
   7  -1 -20   38.80    8.10
  -7  -1  20   29.70    6.60
   7  -1 -20   36.50    7.70
  -7  -1  20   66.29    8.70
   7  -1 -20   48.30    6.80
   7  -1 -20   29.70    6.00
  -7  -1  20   33.00    8.80
  -7  -1  20   25.00    8.20
  -7   1  20   46.00    9.00
  -7   1  20   51.29    7.60
  -7   1  20   30.60    6.60
   7   1 -20   52.19    9.10
   7   1 -20   33.20    8.30
   7   1 -20   29.30    8.60
   7   1 -20   44.50    9.00
  -7   1  20   41.70    7.80
   6  -1 -20  139.19   11.10
  -6  -1  20  122.79   12.30
   6  -1 -20  121.29   10.10
  -6  -1  20  130.79   11.50
  -6  -1  20  153.48   13.60
  -6  -1  20  116.99   11.20
   6  -1 -20  122.29   10.70
   6  -1 -20  125.59   12.00
   6   1 -20  126.39   12.70
  -6   1  20  152.78   12.20
   6   1 -20  119.09   11.10
  -6   1  20  129.09   11.00
  -6   1  20  126.49   10.40
   6   1 -20  162.88   12.60
   6   1 -20  128.39   11.90
   5  -1 -20   56.59    6.70
   5  -1 -20   64.29    7.40
   5  -1 -20   53.59    7.60
  -5  -1  20   56.99    7.40
  -5  -1  20   67.99    8.10
   5  -1 -20   52.79    6.80
  -5  -1  20   48.80    6.70
   5   1 -20   52.59    7.10
   5   1 -20   45.00    7.80
   5   1 -20   39.20    7.30
  -5   1  20   49.40    7.30
  -5   1  20   62.39    7.90
  -5   1  20   53.49    6.50
  -4  -1  20   47.00    5.90
  -4  -1  20   67.89    8.90
   4  -1 -20   57.79    7.20
   4  -1 -20   67.29    8.60
   4  -1 -20   73.49    8.40
   4  -1 -20   61.29    7.10
  -4  -1  20   57.69    6.80
  -4   1  20   68.79    7.70
  -4   1  20   77.79    8.30
   4   1 -20   60.99    6.60
  -4   1  20   77.09    9.10
   4   1 -20   72.79    9.00
   4   1 -20   68.19    8.20
   3  -1 -20   21.50    5.80
  -3  -1  20   25.20    5.60
   3  -1 -20   23.80    4.50
   3  -1 -20   21.80    5.50
  -3  -1  20   19.90    5.30
  -3  -1  20   28.30    5.00
   3  -1 -20   22.10    5.60
  -3  -1  20   27.80    6.10
   3   1 -20   21.60    5.50
  -3   1  20   28.40    5.10
   3   1 -20   17.20    6.80
  -3   1  20   13.90    5.50
   3   1 -20   23.00    6.10
  -3   1  20   27.90    5.60
   3   1 -20   29.30    5.60
   2  -1 -20  403.66   16.30
   2  -1 -20  384.96   16.30
  -2  -1  20  380.86   15.80
  -2  -1  20  387.16   16.00
  -2  -1  20  402.86   16.20
   2  -1 -20  401.66   15.90
  -2  -1  20  419.46   16.30
   2  -1 -20  407.36   15.90
  -2   1  20  350.06   16.10
   2   1 -20  400.56   16.60
   2   1 -20  398.66   16.20
  -2   1  20  384.76   16.20
  -2   1  20  400.56   15.80
  -2   1  20  324.37   15.80
   2   1 -20  386.16   16.00
   2   1 -20  417.26   16.10
   1  -1 -20   63.59    7.20
  -1  -1  20   49.40    6.50
   1  -1 -20   52.29    6.90
  -1  -1  20   59.49    7.40
   1  -1 -20   49.80    5.70
  -1  -1  20   60.89    6.80
  -1  -1  20   65.99    6.60
   1  -1 -20   69.79    7.50
  -1   1  20   48.50    6.00
   1   1 -20   45.20    5.90
  -1   1  20   44.70    5.30
   1   1 -20   57.49    7.60
   1   1 -20   54.59    6.60
  -1   1  20   53.39    6.40
  -1   1  20   51.79    5.90
   1   1 -20   52.29    5.70
  -1   1  20   72.59    5.30
   0  -1 -20    0.20    3.50
   0  -1  20   -2.30    4.70
   0  -1  20    1.30    4.20
   0  -1 -20    0.00    4.60
   0  -1 -20    2.10    4.80
   0  -1  20   -2.50    4.20
   0  -1 -20    5.80    4.50
   0  -1  20   -3.90    3.50
   0   1  20    0.00    5.30
   0   1 -20    3.70    4.20
   0   1  20    3.20    4.20
   0   1 -20   -1.30    5.00
   0   1 -20   -2.90    4.00
   0   1  20    6.40    5.00
   0   1  20    4.50    4.20
   0   1  20   -1.60    3.10
   0   1 -20   -0.20    5.30
  -1  -1 -20  327.47   14.70
   1  -1  20  319.97   13.60
   1  -1  20  315.97   13.90
  -1  -1 -20  315.47   14.40
  -1  -1 -20  312.97   14.00
   1  -1  20  314.17   13.40
   1  -1  20  320.57   15.70
  -1  -1 -20  305.57   14.80
   1  -1  20  324.47   13.80
  -1   1 -20  317.27   13.50
   1   1  20  301.97   13.90
   1   1  20  313.17   12.20
   1   1  20  314.87   14.60
   1   1  20  306.17   14.40
  -1   1 -20  319.07   14.10
  -1   1 -20  310.07   14.10
   1   1  20  282.57   11.00
   1   1  20  315.47   14.30
  -2  -1 -20   33.00    6.50
   2  -1  20   27.50    5.60
   2  -1  20   26.20    7.30
   2  -1  20   29.90    5.70
  -2  -1 -20   27.40    5.50
  -2  -1 -20   21.90    6.10
   2  -1  20   25.10    5.20
   2  -1  20   29.60    4.90
   2   1  20   26.90    6.10
   2   1  20   31.10    6.50
  -2   1 -20   21.70    5.30
  -2   1 -20   24.80    4.90
   2   1  20   28.90    6.30
   2   1  20   23.00    2.60
   2   1  20   34.40    4.80
   2   1  20   30.30    6.10
  -2   1 -20   23.00    6.00
   3  -1  20   13.60    5.60
  -3  -1 -20   -6.10    6.90
   3  -1  20    7.80    7.10
   3  -1  20    5.30    5.40
  -3  -1 -20   21.40    6.20
  -3  -1 -20    4.60    6.40
   3  -1  20    6.00    3.90
   3   1  20    8.50    5.30
  -3   1 -20    2.70    6.00
  -3   1 -20   12.10    5.30
   3   1  20    9.10    6.00
   3   1  20   18.20    6.40
  -3   1 -20   10.50    4.90
   3   1  20    7.00    3.90
  -4  -1 -20    5.50    8.10
  -4  -1 -20   -6.80    7.00
   4  -1  20   10.70    4.80
  -4  -1 -20   -0.20    6.80
   4  -1  20    1.60    7.50
  -4  -1 -20    4.30    7.70
   4  -1  20    9.90    5.70
   4  -1  20    4.10    6.40
   4  -1  20   -0.30    5.50
  -4   1 -20    7.00    5.70
   4   1  20    4.30    3.60
  -4   1 -20   -4.00    7.00
   4   1  20    5.20    6.40
   4   1  20    4.60    6.50
  -4   1 -20   10.80    7.00
   4   1  20    2.50    6.00
   4   1  20    1.80    6.20
  -5  -1 -20   93.89   10.70
  -5  -1 -20  121.99   11.70
   5  -1  20   78.69    9.10
  -5  -1 -20   91.39   10.50
   5  -1  20   83.49    9.30
   5  -1  20   84.99   10.70
   5  -1  20   82.19    9.30
  -5  -1 -20   74.49   10.20
  -5   1 -20   83.79    8.90
  -5   1 -20   84.69   10.50
  -5   1 -20   76.49   10.20
   5   1  20   95.39   10.40
  -5   1 -20   73.69    9.40
   5   1  20   82.19   10.00
   5   1  20   84.29   11.10
   5   1  20   76.69    9.10
   6  -2 -20   35.30    8.20
  -6  -2  20   65.99    8.00
   6  -2 -20   47.80    7.00
   6  -2 -20   44.60    6.40
  -6  -2  20   53.79    7.10
  -6  -2  20   65.39    8.30
  -6  -2  20   52.89    6.50
   6  -2 -20   43.00    6.40
  -6   2  20   55.09    7.70
   6   2 -20   61.79    8.20
   6   2 -20   78.19    9.80
  -6   2  20   56.69    6.00
   6   2 -20   47.40    9.00
  -6   2  20   37.60   10.40
  -6   2  20   48.00    6.40
  -6   2  20   46.60    8.10
   6   2 -20   54.49    7.90
   5  -2 -20    6.60    5.00
  -5  -2  20    0.00    6.10
   5  -2 -20    5.70    5.20
  -5  -2  20    0.60    4.80
  -5  -2  20    7.40    5.40
   5  -2 -20    5.40    6.30
   5  -2 -20    7.10    4.60
  -5  -2  20    1.80    5.60
  -5   2  20    0.70    5.90
  -5   2  20    6.90    7.20
   5   2 -20    2.80    6.30
  -5   2  20    0.80    4.30
   5   2 -20    3.40    5.40
  -5   2  20    6.00    4.60
   5   2 -20    6.80    7.30
  -5   2  20    5.20    6.80
   4  -2 -20  131.39    9.00
   4  -2 -20  114.39    9.00
  -4  -2  20  153.98    9.80
   4  -2 -20  140.99   10.50
  -4  -2  20  138.29    9.30
  -4  -2  20  144.59   10.50
  -4  -2  20  149.09   11.00
   4   2 -20  129.49    6.70
   4   2 -20  138.69    9.70
   4   2 -20  141.79   10.10
  -4   2  20  125.49    9.80
  -4   2  20  135.69   10.80
  -4   2  20  142.19   11.70
   4   2 -20  133.49    9.70
  -4   2  20  137.29    8.30
  -4   2  20  123.09    8.40
   3  -2 -20    9.00    4.70
   3  -2 -20    2.20    4.00
   3  -2 -20   -2.10    4.50
  -3  -2  20   -1.20    3.90
   3  -2 -20   10.10    4.50
  -3  -2  20    0.30    4.40
  -3  -2  20    1.90    4.00
  -3  -2  20    4.90    5.40
  -3   2  20    3.60    3.80
  -3   2  20    1.60    3.90
   3   2 -20    1.50    4.40
  -3   2  20    4.80    5.00
  -3   2  20   -3.30    4.80
   3   2 -20    3.00    5.10
   2  -2 -20   37.80    5.10
  -2  -2  20   36.30    5.00
  -2  -2  20   40.40    5.90
   2  -2 -20   26.50    4.50
  -2  -2  20   31.70    4.50
   2  -2 -20   37.20    5.40
  -2  -2  20   32.90    4.80
   2  -2 -20   35.90    5.60
  -2   2  20   41.20    5.90
  -2   2  20   40.10    5.00
   2   2 -20   48.50    6.50
  -2   2  20   35.40    4.80
   2   2 -20   33.10    5.20
   2   2 -20   32.40    5.10
  -1  -2  20    0.40    3.90
   1  -2 -20    5.30    4.20
   1  -2 -20    7.10    3.80
  -1  -2  20    1.00    3.60
  -1  -2  20    1.60    3.70
   1  -2 -20   -0.50    4.50
   1  -2 -20    4.10    4.30
  -1  -2  20   10.50    4.80
  -1   2  20    1.60    2.80
  -1   2  20   -0.30    5.00
   1   2 -20    7.20    5.50
   1   2 -20   -2.10    3.80
  -1   2  20    0.40    4.00
   1   2 -20    0.40    3.70
  -1   2  20    4.90    3.90
  -1   2  20    3.30    4.40
   0  -2  20   42.80    5.60
   0  -2 -20   41.40    5.30
   0  -2 -20   34.80    6.10
   0  -2  20   29.70    5.30
   0  -2  20   29.40    4.70
   0  -2  20   32.10    5.30
   0  -2 -20   28.90    5.40
   0  -2 -20   33.50    4.90
   0   2 -20   35.10    4.60
   0   2  20   39.50    5.40
   0   2 -20   40.70    6.20
   0   2  20   42.90    5.60
   0   2  20   34.50    4.90
   0   2  20   34.60    5.90
   0   2 -20   34.40    4.50
   1  -2  20    7.70    4.60
   1  -2  20    2.50    3.90
  -1  -2 -20   17.60    5.00
   1  -2  20    7.40    4.10
  -1  -2 -20    7.70    4.40
  -1  -2 -20   14.10    5.10
   1  -2  20   10.30    4.20
  -1  -2 -20    3.80    5.20
   1   2  20   10.50    6.10
   1   2  20   11.50    4.70
   1   2  20    5.60    5.20
   1   2  20   10.90    3.90
  -1   2 -20    8.10    3.90
  -1   2 -20   15.00    3.80
  -1   2 -20    4.90    5.10
  -2  -2 -20   55.99    7.30
  -2  -2 -20   65.09    7.90
  -2  -2 -20   73.09    8.20
   2  -2  20   67.89    8.60
  -2  -2 -20   56.09    7.10
   2  -2  20   53.09    7.10
   2  -2  20   72.49    7.10
   2  -2  20   61.59    7.20
  -2   2 -20   68.59    6.60
  -2   2 -20   77.89    8.30
   2   2  20   61.69    6.30
  -2   2 -20   81.09    9.60
  -2   2 -20   67.09    6.60
   2   2  20   79.49    8.40
   2   2  20   62.09    6.90
   2   2  20   69.39    8.40
  -3  -2 -20    0.30    5.50
  -3  -2 -20   -1.80    6.30
   3  -2  20   -4.50    4.60
  -3  -2 -20   -7.60    5.80
  -3  -2 -20   10.30    5.70
   3  -2  20    7.00    9.70
   3  -2  20   10.80    5.30
   3  -2  20   -4.00    5.40
   3  -2  20    7.30    4.40
  -3   2 -20    1.00    7.10
   3   2  20  -14.20    6.00
   3   2  20  -13.40    6.00
   3   2  20   -6.30    4.20
  -3   2 -20   -0.80    6.30
  -3   2 -20   -3.50    4.30
  -3   2 -20    1.60    4.40
   3   2  20    2.70    5.50
  -4  -2 -20   11.70    5.80
   4  -2  20    1.20    6.50
   4  -2  20   -6.40    4.70
   4  -2  20   13.10    5.80
   4  -2  20   -0.30   10.40
  -4  -2 -20   -4.50    5.90
  -4  -2 -20   16.50    7.60
  -4  -2 -20    2.90    6.40
   4  -2  20   10.00    5.40
   4   2  20    5.20    7.20
  -4   2 -20   13.70    5.40
   4   2  20    9.60    6.80
  -4   2 -20   -7.40    8.00
  -4   2 -20   10.80    6.70
   4   2  20   -2.30    7.60
  -4   2 -20   -1.30   17.50
   4   2  20  -10.00    6.00
  -4   2 -20   10.10    4.80
   4   2  20   11.10    5.60
   4  -3 -20   -5.80    5.50
  -4  -3  20    0.40    6.60
  -4  -3  20   -1.30    5.20
  -4  -3  20   10.00    5.10
   4  -3 -20    8.10    5.10
  -4  -3  20   -0.70    4.50
   4  -3 -20   -3.90    5.80
  -4   3  20    3.50    6.30
   4   3 -20    4.70    3.80
   4   3 -20    0.00    3.70
   4   3 -20    4.30    4.70
  -4   3  20   -7.20    7.70
  -4   3  20    2.10    5.60
   4   3 -20    4.10    6.00
   4   3 -20   -0.70    8.30
   3  -3 -20    8.80    6.00
  -3  -3  20   19.20    5.00
   3  -3 -20   16.50    4.20
   3  -3 -20   17.30    5.60
  -3  -3  20   15.00    5.60
  -3  -3  20   11.70    7.00
  -3  -3  20   15.00    5.40
  -3   3  20    3.10    5.60
  -3   3  20   10.00    6.50
   3   3 -20    1.50    6.70
   3   3 -20   11.00    7.00
  -3   3  20   23.80    7.10
   3   3 -20    5.70    3.70
   2  -3 -20   10.00    5.40
  -2  -3  20    8.20    4.30
   2  -3 -20    9.20    4.90
  -2  -3  20   13.10    5.30
  -2  -3  20   20.40    5.50
  -2  -3  20   24.70    6.60
   2  -3 -20    9.30    5.30
   2  -3 -20   18.90    4.30
  -2   3  20   13.10    6.30
   2   3 -20    3.00    2.30
  -2   3  20   13.40    4.80
  -2   3  20   11.10    4.50
   2   3 -20   20.90    7.60
   2   3 -20   11.40   16.10
   2   3 -20    0.40    3.00
  -2   3  20    8.20    4.50
   1  -3 -20    8.60    5.10
  -1  -3  20   15.20    5.00
  -1  -3  20   14.20    5.40
   1  -3 -20   16.10    4.50
   1  -3 -20    9.30    5.20
  -1  -3  20    8.90    4.80
   1  -3 -20   17.10    5.60
  -1  -3  20   14.40    4.10
  -1   3  20    5.70    2.70
   1   3 -20   11.50    6.80
  -1   3  20    9.80    5.80
   1   3 -20   26.40   17.10
  -1   3  20   13.10    4.90
   1   3 -20   15.10    6.20
  -1   3  20   11.60    6.30
   0  -3 -20    2.00    5.60
   0  -3  20    5.90    5.50
   0  -3  20   14.70    5.40
   0  -3 -20    7.60    5.60
   0  -3 -20    9.40    5.30
   0  -3  20   10.20   11.00
   0  -3  20   13.30    3.70
   0  -3 -20   13.90    4.70
   0  -3  20    8.50    4.70
   0   3  20    0.70    3.30
   0   3  20    9.30    6.00
   0   3  20    0.80    4.60
   0   3 -20    7.50    6.50
   0   3  20   22.00    6.70
   0   3 -20    7.10   16.70
   0   3  20    3.50    3.00
   0   3 -20   16.60    5.90
   1  -3  20   42.40    5.60
   1  -3  20   51.39    7.00
   1  -3  20   37.60   10.80
   1  -3  20   48.70    5.60
   1  -3  20   47.90    6.30
  -1  -3 -20   46.20    6.30
  -1  -3 -20   43.20    6.90
  -1  -3 -20   33.50    6.00
  -1  -3 -20   50.49    7.10
   1   3  20   43.20    6.10
  -1   3 -20   37.90   20.10
   1   3  20   37.30    7.40
  -1   3 -20   55.29    7.60
   1   3  20   48.90    7.90
  -2  -3 -20   29.90    6.30
   2  -3  20   10.00    5.40
  -2  -3 -20   16.50    7.20
  -2  -3 -20   30.80    5.60
   2  -3  20   23.00    5.80
   2  -3  20    8.10    9.80
   2  -3  20   15.50    4.90
  -2  -3 -20   34.00    6.20
  -2   3 -20   22.00    7.50
   2   3  20   30.50    8.70
  -2   3 -20    9.50    5.80
   2   3  20   26.50    5.90
   2   3  20   23.80    6.20
  -2   3 -20    9.00   20.70
   2   3  20   15.90    8.00
   7   0 -21    4.30    5.90
   7   0 -21    3.10    5.90
   7   0 -21   14.30    7.30
  -7   0  21    7.00    8.00
  -7   0  21   -4.80    6.90
   7   0 -21   -6.20    7.20
  -7   0  21   -2.20    6.60
  -7   0  21    6.30    7.00
  -6   0  21    5.90    6.40
   6   0 -21    2.30    6.60
  -6   0  21    7.70    6.30
   6   0 -21    6.60    6.70
   6   0 -21    3.30    7.60
  -6   0  21    2.30    6.00
   6   0 -21   -1.20    7.00
  -6   0  21    3.40    6.90
  -5   0  21   16.10    6.50
   5   0 -21   14.20    7.40
   5   0 -21   16.70    5.90
  -5   0  21   21.50    6.80
   5   0 -21   18.20    6.70
  -5   0  21   13.80    5.80
   4   0 -21    3.50    6.80
  -4   0  21   -0.50    4.10
   4   0 -21    4.40    5.30
   4   0 -21    0.20    5.30
  -4   0  21   -1.00    5.30
  -4   0  21   -3.50    5.00
  -4   0  21   -2.00    5.20
   3   0 -21   56.79    6.30
  -3   0  21   69.09    7.90
  -3   0  21   67.39    7.50
  -3   0  21   71.99    8.10
   3   0 -21   61.79    7.60
  -3   0  21   71.79    8.10
   3   0 -21   66.39    8.70
  -2   0  21   -0.90    4.30
   2   0 -21   -2.50    4.70
   2   0 -21   -4.80    4.40
   2   0 -21   -0.40    5.60
   2   0 -21   -7.60    5.20
  -2   0  21   -1.70    4.20
  -2   0  21   -1.70    4.70
  -2   0  21   -7.50    4.10
  -1   0  21  233.38   11.70
  -1   0  21  220.48   11.70
   1   0 -21  225.78   12.60
   1   0 -21  221.08   11.40
  -1   0  21  236.28   11.60
  -1   0  21  223.58   11.80
   1   0 -21  218.98   11.40
   1   0 -21  207.88   11.60
   0   0 -21    3.30    5.20
   0   0  21   -1.40    4.50
   0   0 -21    2.80    4.70
   0   0 -21   10.10    5.20
   0   0  21    4.50    4.40
   0   0 -21    8.40    4.70
   0   0  21    3.60    5.10
   1   0  21    4.00    4.80
   1   0  21   10.40    4.90
  -1   0 -21   10.20    4.90
   1   0  21   12.30    4.90
   1   0  21    6.30    5.20
  -1   0 -21    5.90    5.20
  -1   0 -21   12.80    6.10
   1   0  21   11.20    2.40
  -1   0 -21    7.50    4.80
   2   0  21    2.10    5.90
   2   0  21    0.70    4.80
  -2   0 -21    2.70    5.60
  -2   0 -21    0.70    4.40
  -2   0 -21    3.60    5.80
  -2   0 -21    8.10    6.80
   2   0  21    2.90    4.70
   2   0  21    1.70    3.40
   2   0  21    7.20    5.30
   3   0  21  114.09    9.80
  -3   0 -21  124.69   10.50
  -3   0 -21  105.49   11.00
   3   0  21  125.59    8.70
   3   0  21  110.89   10.60
  -3   0 -21  106.29   10.20
   3   0  21  126.59   11.80
   4   0  21   -2.40    6.30
   4   0  21   -6.90    5.40
   4   0  21   -6.80    5.10
   4   0  21   -2.80    7.50
  -4   0 -21    6.00    8.20
  -4   0 -21    2.60    7.10
  -4   0 -21   -0.60    6.80
  -4   0 -21   -3.10    6.30
   4   0  21   -0.80    6.40
  -5   0 -21   45.90    8.50
   5   0  21   79.29    9.80
  -5   0 -21   62.09    9.90
   5   0  21   35.60    6.20
  -5   0 -21   45.30    8.50
  -5   0 -21   48.70    9.90
   5   0  21   52.69    8.10
   5   0  21   55.89    8.80
   7  -1 -21   58.29    8.40
   7  -1 -21   64.19    7.80
   7  -1 -21   48.00    7.20
  -7  -1  21   40.50    7.30
  -7  -1  21   64.19   10.10
   7  -1 -21   63.79    7.30
  -7  -1  21   79.29    8.50
  -7  -1  21   51.69    9.00
  -7   1  21   74.49    8.50
   7   1 -21   85.69    9.80
   7   1 -21   70.59    8.90
  -7   1  21   77.79   10.70
  -7   1  21   91.99   11.90
   7   1 -21   63.99    8.80
   7   1 -21   62.89   10.10
  -7   1  21   52.79    9.10
   6  -1 -21   79.79    9.70
   6  -1 -21   82.49   10.00
   6  -1 -21   81.69    9.80
  -6  -1  21   58.69    8.10
  -6  -1  21   94.49   10.80
  -6  -1  21   71.09    9.40
   6  -1 -21   75.89    9.80
  -6  -1  21   82.69    9.70
  -6   1  21   78.39   10.20
   6   1 -21   85.89   11.10
   6   1 -21   71.89    9.00
  -6   1  21   76.99    9.40
   6   1 -21   84.59   10.60
  -6   1  21   77.79    8.00
   6   1 -21   73.49    9.10
   5  -1 -21   10.50    5.50
   5  -1 -21   -0.20    6.10
   5  -1 -21    4.70    4.50
  -5  -1  21   -1.00    6.30
  -5  -1  21    7.00    5.60
  -5  -1  21   -0.50    5.00
   5  -1 -21    1.50    5.80
  -5   1  21    4.10    4.80
   5   1 -21    2.20    6.30
  -5   1  21    4.30    6.40
   5   1 -21   -0.20    6.90
  -5   1  21    2.90    4.60
   5   1 -21   -3.30    6.20
   5   1 -21    4.20    6.50
  -4  -1  21   23.00    5.50
   4  -1 -21   32.40    6.20
  -4  -1  21   29.40    5.80
   4  -1 -21   30.80    6.70
  -4  -1  21   34.90    7.00
   4  -1 -21   15.00    4.30
   4  -1 -21   30.70    6.70
   4   1 -21   29.00    6.50
  -4   1  21   20.50    5.40
  -4   1  21   25.60    5.90
  -4   1  21   32.00    5.70
   4   1 -21   23.90    6.50
   3  -1 -21  122.19    9.80
  -3  -1  21  139.79    9.80
   3  -1 -21  120.69    9.10
  -3  -1  21  113.69    8.70
  -3  -1  21  115.49    9.60
   3  -1 -21  130.59    8.70
   3  -1 -21  117.89    9.80
  -3  -1  21  136.49    9.80
   3   1 -21  119.19    9.80
  -3   1  21  114.79    8.70
   3   1 -21  120.79    9.70
   3   1 -21  115.99   10.20
   3   1 -21  128.89    9.60
  -3   1  21  117.79    9.20
  -3   1  21  119.49    9.20
  -2  -1  21  194.68   10.60
  -2  -1  21  171.48   10.30
  -2  -1  21  188.38   10.90
   2  -1 -21  201.08   11.10
   2  -1 -21  194.58   11.20
   2  -1 -21  198.78   10.60
   2  -1 -21  183.08   11.00
  -2  -1  21  183.08   10.00
   2   1 -21  166.78   11.20
   2   1 -21  170.78   10.50
   2   1 -21  192.78   10.70
   2   1 -21  173.38   10.60
  -2   1  21  196.28   11.50
  -2   1  21  163.08   10.60
  -2   1  21  193.98   10.30
  -1  -1  21  109.19    9.10
   1  -1 -21  140.39    9.80
   1  -1 -21  128.79    8.60
  -1  -1  21  129.19    8.60
   1  -1 -21  117.29    9.30
   1  -1 -21  120.19    9.80
  -1  -1  21  113.69    8.90
  -1  -1  21  117.49    9.20
  -1   1  21  115.29    8.40
   1   1 -21  109.99   10.30
   1   1 -21  114.59    9.40
  -1   1  21  113.69   10.20
   1   1 -21  120.49    8.70
  -1   1  21  124.79    9.50
  -1   1  21  122.19    9.30
   0  -1 -21  101.09    9.60
   0  -1 -21  129.49    9.60
   0  -1  21  110.69    8.80
   0  -1  21  107.49    8.80
   0  -1  21  125.69    9.40
   0  -1  21  115.09    8.20
   0  -1 -21  115.29    8.70
   0  -1 -21  110.59    9.20
   0   1  21  111.49    8.70
   0   1 -21  109.09   10.00
   0   1  21  115.09    9.50
   0   1  21  109.99    9.30
   0   1  21  106.69    6.50
   0   1  21  126.09   10.30
   0   1 -21  111.39    8.60
   0   1 -21  111.59    9.30
   1  -1  21   78.49   10.50
   1  -1  21   87.19    7.60
   1  -1  21   71.49    8.40
   1  -1  21   81.69    8.50
  -1  -1 -21   99.99    8.70
  -1  -1 -21   78.49    8.20
  -1  -1 -21   53.29    6.80
  -1  -1 -21   66.09    8.20
   1  -1  21   85.09    7.40
   1   1  21   82.99    4.50
   1   1  21   90.29    8.70
   1   1  21   85.49    9.00
   1   1  21   78.29    8.40
   1   1  21   80.99    8.60
   1   1  21   74.29    5.70
  -1   1 -21   87.19    8.70
  -1   1 -21   81.59    7.80
  -1   1 -21   86.09    8.70
   2  -1  21   -1.60    6.50
   2  -1  21    5.80    4.40
   2  -1  21   -0.10    5.80
   2  -1  21    0.30    4.50
  -2  -1 -21    9.00    6.20
  -2  -1 -21    2.40    4.80
   2  -1  21    7.70    5.30
  -2  -1 -21   -5.40    6.00
  -2   1 -21    7.20    7.00
  -2   1 -21    2.60    4.90
   2   1  21   -1.60    5.50
   2   1  21   -2.40    1.60
   2   1  21   -6.30    5.40
  -2   1 -21    3.30    4.50
   2   1  21   -2.40    5.60
   2   1  21    6.00    3.60
   3  -1  21  125.89   10.50
  -3  -1 -21  127.49   10.70
  -3  -1 -21  119.09   11.80
   3  -1  21  131.79    9.70
   3  -1  21  133.99   12.30
  -3  -1 -21  145.19   11.40
   3  -1  21  129.29    9.00
  -3   1 -21  129.79   11.20
  -3   1 -21  132.69    9.80
   3   1  21  127.69   11.00
   3   1  21  125.29    7.60
   3   1  21  112.59   11.30
   3   1  21  121.19   11.50
   3   1  21  124.79   10.90
  -4  -1 -21   30.20    8.40
  -4  -1 -21   31.10    7.70
   4  -1  21   38.70    7.20
   4  -1  21   49.20    6.60
   4  -1  21   36.90    7.50
  -4  -1 -21   30.20    8.20
   4  -1  21   50.19    9.10
   4  -1  21   43.50    7.40
  -4  -1 -21   26.90    7.40
  -4   1 -21   29.70    7.20
   4   1  21   32.60    7.90
   4   1  21   46.10    8.00
   4   1  21   39.20    4.80
   4   1  21   29.60    7.20
   4   1  21   15.30    6.80
  -4   1 -21   36.60    6.70
  -4   1 -21   38.90    8.60
   5  -1  21    4.50    4.90
   5  -1  21    2.40    5.90
  -5  -1 -21    4.50    9.00
  -5  -1 -21  -14.80    6.50
   5  -1  21   11.50    6.80
  -5  -1 -21   -2.10    7.10
  -5  -1 -21   12.90    7.40
   5  -1  21    3.70    7.60
  -5   1 -21   12.50    9.20
   5   1  21    7.50    8.80
   5   1  21    8.00    6.20
  -5   1 -21   14.60    7.50
   5   1  21   10.20    6.20
  -5   1 -21   20.60    9.30
  -5   1 -21    9.30    7.20
  -6  -2  21    6.70    7.70
  -6  -2  21   -0.20    7.60
   6  -2 -21    1.10    5.20
  -6  -2  21   12.10    5.60
  -6  -2  21   10.30    5.40
   6  -2 -21    1.60    5.20
   6  -2 -21   -3.80    7.70
   6  -2 -21    8.60    6.80
   6   2 -21   15.30   10.70
   6   2 -21   13.20    7.40
  -6   2  21    3.80    5.00
  -6   2  21    9.30    7.60
  -6   2  21   13.90   10.30
  -6   2  21    0.00    5.80
  -6   2  21   -6.90    6.20
   6   2 -21   -4.50    7.20
   6   2 -21  -10.10    8.70
  -5  -2  21   10.80    6.70
   5  -2 -21   11.20    6.70
   5  -2 -21   26.90    5.80
  -5  -2  21   17.90    5.90
  -5  -2  21   13.50    5.40
   5  -2 -21   17.40    5.50
  -5  -2  21   21.20    6.40
   5  -2 -21   10.00    5.70
   5   2 -21   15.20    7.60
  -5   2  21   -0.40    6.50
   5   2 -21    7.90    7.60
  -5   2  21   18.70    7.10
  -5   2  21    3.10    4.70
   5   2 -21   12.90    5.70
  -5   2  21   18.50    7.80
  -5   2  21   18.80    4.80
  -4  -2  21    1.70    6.00
   4  -2 -21   -0.50    4.90
  -4  -2  21   -4.60    4.00
  -4  -2  21    2.10    5.30
   4  -2 -21   -4.40    4.60
  -4  -2  21   -1.80    5.70
   4  -2 -21    1.10    5.50
   4   2 -21   -0.60    4.90
   4   2 -21    2.00    2.80
  -4   2  21   -1.80    4.10
  -4   2  21    3.20    4.20
   4   2 -21    4.70    8.30
  -4   2  21    8.00    6.20
  -4   2  21   -0.40    5.20
   4   2 -21   -3.80    6.30
   4   2 -21    0.00    4.80
  -4   2  21   -8.20    6.20
   3  -2 -21   -0.60    4.70
   3  -2 -21   11.10    4.90
   3  -2 -21   14.20    5.00
  -3  -2  21    1.40    4.70
  -3  -2  21    6.70    5.10
  -3  -2  21    8.20    5.30
  -3  -2  21    6.80    4.10
   3  -2 -21    4.70    5.40
  -3   2  21    6.20    4.40
   3   2 -21    5.90    4.90
   3   2 -21    2.60    4.80
  -3   2  21    6.10    5.00
  -3   2  21    3.60    4.40
  -3   2  21    2.20    5.00
  -3   2  21   11.50    5.50
   2  -2 -21   -3.60    4.00
  -2  -2  21   -6.20    4.50
   2  -2 -21    6.70    5.00
  -2  -2  21   -0.90    3.50
   2  -2 -21    7.70    4.60
   2  -2 -21    3.50    4.30
  -2  -2  21   -0.70    4.20
  -2  -2  21    2.30    4.60
  -2   2  21    0.40    6.10
   2   2 -21    4.60    6.10
   2   2 -21   -0.90    8.80
   2   2 -21    6.10    4.50
  -2   2  21    2.70    4.00
  -2   2  21   -6.80    4.00
  -2   2  21    0.30    4.20
   2   2 -21    7.30    4.80
  -1  -2  21   14.90    5.30
  -1  -2  21    4.70    4.30
   1  -2 -21    4.40    4.60
   1  -2 -21   10.00    5.70
  -1  -2  21   10.70    3.90
  -1  -2  21   11.70    4.40
   1  -2 -21   19.90    4.50
   1  -2 -21   12.30    4.80
  -1   2  21   13.90    7.60
  -1   2  21   10.20    5.10
  -1   2  21   11.80    4.90
   1   2 -21   14.00    4.70
  -1   2  21    8.90    4.20
  -1   2  21   14.10    4.90
   1   2 -21    9.50    4.30
   1   2 -21    5.00    5.80
  -1   2  21   10.00    3.20
   0  -2 -21    5.80    5.20
   0  -2  21    4.00    4.80
   0  -2  21   -2.00    3.80
   0  -2  21    9.20    4.50
   0  -2 -21    4.40    4.00
   0  -2 -21    0.40    5.80
   0  -2 -21   11.90    4.80
   0  -2  21    5.60    4.70
   0   2 -21    4.90    5.30
   0   2  21   -1.20    3.70
   0   2  21    2.10    4.70
   0   2  21   -2.10    4.80
   0   2 -21    0.00    3.90
   0   2 -21    4.20    4.20
   0   2  21    2.10    5.10
   0   2 -21    4.40    6.10
   1  -2  21   36.00    5.30
  -1  -2 -21   33.30    5.40
  -1  -2 -21   32.90    5.90
  -1  -2 -21   39.50    7.10
   1  -2  21   34.40    5.20
  -1  -2 -21   21.50    6.20
   1  -2  21   37.20    6.60
   1  -2  21   33.80    5.50
   1   2  21   35.10    7.00
  -1   2 -21   37.80    5.20
  -1   2 -21   24.50    6.60
  -1   2 -21   27.80    6.60
   1   2  21   39.10    6.20
  -1   2 -21   33.20    4.80
   1   2  21   33.20    5.00
   1   2  21   45.50    5.90
  -2  -2 -21   73.89    8.60
   2  -2  21   77.49    7.80
  -2  -2 -21   62.39    6.90
   2  -2  21   82.89    9.40
  -2  -2 -21   59.09    7.30
   2  -2  21   55.39    7.10
   2  -2  21   64.59   11.70
   2  -2  21   76.09    8.00
  -2  -2 -21   65.99    8.00
   2   2  21   67.89    6.30
  -2   2 -21   64.69    8.20
  -2   2 -21   71.19    9.20
   2   2  21   54.99    6.50
  -2   2 -21   75.39    7.40
   2   2  21   63.39    9.60
  -2   2 -21   62.99    7.50
   2   2  21   73.29    9.70
  -3  -2 -21   15.20    6.80
  -3  -2 -21   19.00    7.70
   3  -2  21   12.20    5.60
   3  -2  21   15.70   10.60
   3  -2  21    8.00    5.10
  -3  -2 -21   27.60    7.00
  -3  -2 -21   24.50    6.50
   3  -2  21   18.00    5.60
   3  -2  21   11.50    5.90
   3   2  21   10.60    7.30
   3   2  21   21.70    6.50
  -3   2 -21    8.60    4.80
   3   2  21   20.90    6.60
   3   2  21    4.40    7.30
   3   2  21    8.80    4.00
  -3   2 -21    8.60    8.00
  -3   2 -21   21.60    5.30
  -3   2 -21   12.60    7.40
  -4  -2 -21  -11.80    6.20
   4  -2  21   13.20   10.80
  -4  -2 -21    3.30    7.30
   4  -2  21   -4.80    6.70
   4  -2  21   -0.50    6.60
   4  -2  21   -5.20    4.90
  -4  -2 -21   -3.20    7.60
   4  -2  21   -2.60    5.00
   4   2  21   -1.30    7.40
   4   2  21   -3.90    7.70
  -4   2 -21   -1.20    6.10
  -4   2 -21    2.40    7.40
  -4   2 -21    2.60    4.70
   4   2  21    6.10    9.30
  -4   2 -21   -9.00    8.10
   3  -3 -21  103.39    7.10
  -3  -3  21  112.39   12.00
  -3  -3  21   98.79    8.30
  -3  -3  21  103.19    9.50
  -3  -3  21  112.49    8.60
   3  -3 -21   97.09    9.90
   3  -3 -21   98.89   10.50
   3   3 -21   78.99    9.90
   3   3 -21   97.29    9.90
  -3   3  21  122.29   11.40
  -3   3  21  106.89   10.90
  -2  -3  21   -5.20    4.60
  -2  -3  21    3.30    5.40
   2  -3 -21   -0.80    4.60
   2  -3 -21   -7.80    5.20
  -2  -3  21    5.50    5.90
   2  -3 -21    3.20    6.00
   2  -3 -21   -3.40    5.10
  -2  -3  21    1.90    5.10
   2   3 -21   10.30    2.60
   2   3 -21   -2.80    3.10
   2   3 -21    9.90   16.90
   2   3 -21    3.70    7.10
  -2   3  21    3.30    6.30
  -2   3  21   -4.00    5.20
  -2   3  21   14.20    5.20
  -1  -3  21   60.79    7.90
   1  -3 -21   36.10    6.50
  -1  -3  21   39.10    7.00
  -1  -3  21   36.60    6.60
   1  -3 -21   59.69    7.70
   1  -3 -21   43.80    6.00
   1  -3 -21   45.30    7.10
  -1  -3  21   43.00    5.30
   1   3 -21   19.10    6.80
   1   3 -21   18.10   18.20
  -1   3  21   33.10    7.50
   1   3 -21   43.40    7.80
  -1   3  21   45.80    7.10
  -1   3  21   30.20    7.00
   0  -3 -21   11.00    5.20
   0  -3 -21    6.50    5.70
   0  -3  21   10.20    5.80
   0  -3  21   16.80   10.20
   0  -3 -21   18.30    5.90
   0  -3  21    9.20    5.80
   0  -3 -21    9.70    6.20
   0  -3  21   13.20    4.00
   0  -3  21    9.40    5.30
   0   3 -21   18.40    6.70
   0   3 -21   -1.10   19.00
   0   3  21   11.90    5.80
   0   3  21   -2.30    6.30
   0   3  21   -1.90    3.30
   0   3  21    1.20    6.20
   0   3 -21   12.30    6.60
  -1  -3 -21   11.00    5.00
  -1  -3 -21   11.10    6.50
   1  -3  21   -6.00    9.50
  -1  -3 -21    0.20    5.10
   1  -3  21   -2.80    5.40
   1  -3  21    6.20    5.30
  -1  -3 -21   -0.50    5.50
   1  -3  21    5.60    4.50
  -1   3 -21   -0.30    6.00
  -1   3 -21   16.70   19.00
   1   3  21   -0.20    3.80
   1   3  21    3.30    5.80
   1   3  21    4.50    4.90
   1   3  21    2.30    7.30
  -1   3 -21    3.60    6.90
   1   3  21   12.00    5.50
   7   0 -22    1.50    6.30
   7   0 -22    1.60    6.20
   7   0 -22   -3.40    7.70
  -7   0  22   -1.40    8.40
  -7   0  22    2.70    6.60
   7   0 -22   -2.50    7.10
  -7   0  22    9.90    6.30
  -7   0  22   -0.60    6.70
   6   0 -22   -3.90    7.20
  -6   0  22   10.20    7.40
  -6   0  22   20.70    8.10
   6   0 -22   13.00    7.90
   6   0 -22    7.70    6.70
  -6   0  22   11.40    6.70
  -6   0  22   12.80    7.40
   6   0 -22    8.50    7.70
  -5   0  22   -2.90    6.10
  -5   0  22    6.20    6.20
   5   0 -22   -1.20    6.60
   5   0 -22    5.70    7.30
   5   0 -22  -11.40    6.20
  -5   0  22   11.30    6.50
  -5   0  22   -9.10    6.10
   4   0 -22  246.48   13.40
  -4   0  22  253.07   13.30
   4   0 -22  249.58   13.80
  -4   0  22  241.48   13.20
   4   0 -22  263.57   13.30
  -4   0  22  263.17   14.30
  -3   0  22   -3.40    5.70
   3   0 -22   -0.90    4.90
  -3   0  22    7.40    5.20
   3   0 -22   11.50    6.80
   3   0 -22    5.50    4.90
  -3   0  22   -1.50    5.40
  -3   0  22   -3.70    4.30
  -2   0  22  346.97   14.60
   2   0 -22  324.67   14.60
  -2   0  22  319.77   15.90
   2   0 -22  317.97   14.90
  -2   0  22  307.37   14.70
   2   0 -22  321.87   14.60
  -2   0  22  306.77   15.00
   1   0 -22   14.50    5.30
  -1   0  22    4.80    5.00
  -1   0  22    2.70    5.10
   1   0 -22   -4.30    5.40
  -1   0  22    2.70    4.70
   1   0 -22    4.20    5.70
   1   0 -22    1.90    5.10
   0   0 -22  765.72   28.80
   0   0  22  777.02   28.90
   0   0  22  785.32   28.50
   0   0 -22  784.92   28.50
   0   0 -22  812.02   28.90
   0   0  22  864.01   29.00
   0   0 -22  815.42   28.80
   1   0  22    3.30    2.20
   1   0  22    3.30    4.90
  -1   0 -22    5.30    4.50
   1   0  22    7.60    4.90
  -1   0 -22   -7.40    5.60
   1   0  22   -1.30    4.90
  -1   0 -22   -5.20    6.00
   1   0  22   -1.20    5.30
  -1   0 -22    3.60    5.60
   2   0  22  116.99    8.80
  -2   0 -22   98.59   10.80
   2   0  22   99.99    6.20
  -2   0 -22   95.59   10.10
   2   0  22  103.89    9.80
  -2   0 -22  117.19   10.40
   2   0  22   85.99    9.20
   2   0  22  108.79   10.10
   3   0  22   -6.30    5.40
  -3   0 -22   -2.10    6.60
   3   0  22    4.30    4.90
  -3   0 -22    5.40    6.70
   3   0  22    7.50    6.60
  -3   0 -22   -2.60    6.30
   3   0  22   -7.30    6.20
  -3   0 -22    0.50    7.30
   3   0  22   -1.20    3.30
  -4   0 -22   57.89    8.60
  -4   0 -22   45.40    8.30
   4   0  22   47.00    7.90
  -4   0 -22   42.90    9.30
   4   0  22   25.50    6.10
   4   0  22   34.40    8.30
   4   0  22   37.30    8.50
  -4   0 -22   26.20    9.20
   5   0  22    3.30    8.70
  -5   0 -22    8.00    6.10
  -5   0 -22   -1.20    7.30
   5   0  22   -7.60    6.20
  -5   0 -22    9.20    7.20
  -5   0 -22   -5.90   10.00
   6  -1 -22   64.79    8.40
  -6  -1  22   84.19   10.20
  -6  -1  22   81.79    9.00
  -6  -1  22   88.49   11.40
   6  -1 -22   66.49    9.40
  -6  -1  22   61.49    9.10
   6  -1 -22   86.79   10.60
   6  -1 -22   74.59    7.90
   6   1 -22   76.09    9.40
   6   1 -22   67.19   10.30
   6   1 -22   95.39   11.90
  -6   1  22   91.39   10.60
  -6   1  22   83.19    8.60
  -6   1  22   80.99    8.30
   6   1 -22   82.89   10.80
  -6   1  22   59.39    8.50
  -5  -1  22    8.90    6.50
   5  -1 -22    9.00    7.00
   5  -1 -22   -0.50    5.90
   5  -1 -22   -2.80    5.60
  -5  -1  22   -0.10    6.10
  -5  -1  22    5.60    7.00
   5  -1 -22    5.70    5.30
  -5  -1  22    3.90    6.70
   5   1 -22    1.20    6.80
   5   1 -22   -1.00    6.30
  -5   1  22   10.10    6.50
  -5   1  22    0.80    4.90
   5   1 -22    1.40    6.30
   5   1 -22    7.30    6.40
  -5   1  22    6.40    7.00
  -4  -1  22    3.60    5.70
   4  -1 -22    6.80    6.10
   4  -1 -22    0.90    5.40
   4  -1 -22    8.20    6.40
  -4  -1  22    5.50    4.70
  -4  -1  22    3.80    5.00
   4  -1 -22    0.90    4.40
  -4   1  22   -4.80    5.50
   4   1 -22   -9.20    5.40
   4   1 -22    9.30    6.80
  -4   1  22   -8.40    4.90
  -4   1  22    1.80    4.90
   3  -1 -22   -2.80    5.70
  -3  -1  22    6.30    5.60
  -3  -1  22    7.10    5.80
   3  -1 -22    6.60    5.50
   3  -1 -22    3.60    5.30
  -3  -1  22    8.50    4.40
   3  -1 -22    9.70    4.90
  -3  -1  22    5.40    4.80
  -3   1  22    5.00    4.80
  -3   1  22    9.60    4.80
   3   1 -22    9.20    6.00
   3   1 -22    5.20    5.10
  -3   1  22    7.40    5.10
   3   1 -22    2.40    5.40
   3   1 -22    8.70    6.50
   2  -1 -22    1.00    5.50
   2  -1 -22    4.20    4.50
   2  -1 -22    7.00    5.70
  -2  -1  22   -0.20    4.70
  -2  -1  22   -1.10    4.00
  -2  -1  22    3.60    4.50
  -2  -1  22    3.80    5.10
   2  -1 -22    3.30    5.70
   2   1 -22   -0.70    5.90
  -2   1  22   -3.50    5.90
  -2   1  22    1.10    4.90
   2   1 -22    7.90    4.80
   2   1 -22    6.30    5.20
   2   1 -22   -4.20    5.60
  -2   1  22    0.70    4.70
  -2   1  22    0.20    5.80
   1  -1 -22   17.10    6.30
  -1  -1  22   10.40    5.50
  -1  -1  22    9.10    5.20
  -1  -1  22    9.90    4.70
   1  -1 -22    5.70    4.10
   1  -1 -22    6.20    4.90
  -1  -1  22    9.70    5.30
   1  -1 -22    8.80    5.50
   1   1 -22   15.00    5.10
   1   1 -22   10.70    6.10
  -1   1  22   20.80    5.50
  -1   1  22   10.50    5.50
   1   1 -22    9.50    5.40
  -1   1  22    2.00    5.20
  -1   1  22    7.50    4.80
   1   1 -22   10.60    6.00
   0  -1 -22  135.99    9.70
   0  -1  22  141.59    9.30
   0  -1 -22  153.78   10.60
   0  -1  22  134.19   10.30
   0  -1 -22  140.59    9.50
   0  -1 -22  150.48   10.40
   0  -1  22  136.09    9.00
   0  -1  22  150.98   10.50
   0   1  22  148.59   10.50
   0   1  22  123.69   10.20
   0   1  22  128.29    7.10
   0   1 -22  144.59   10.00
   0   1  22  146.29   10.80
   0   1 -22  126.29   10.40
   0   1 -22  139.59    9.60
   1  -1  22  166.58   10.70
  -1  -1 -22  148.29   10.30
  -1  -1 -22  157.98   10.60
   1  -1  22  134.09   11.70
  -1  -1 -22  167.48   10.90
   1  -1  22  174.68    9.70
   1  -1  22  154.58    9.70
   1  -1  22  149.49   10.30
   1   1  22  159.18    7.90
   1   1  22  152.58   11.40
   1   1  22  136.29    6.50
  -1   1 -22  152.28   10.70
  -1   1 -22  161.58   10.20
  -1   1 -22  155.88   10.60
   1   1  22  181.38   11.60
   1   1  22  163.48   11.00
   2  -1  22   51.29    7.50
   2  -1  22   29.70    4.70
   2  -1  22   52.49    7.50
  -2  -1 -22   44.60    7.70
  -2  -1 -22   40.10    6.30
   2  -1  22   38.30    8.00
  -2  -1 -22   46.70    7.50
   2  -1  22   58.99    6.90
   2   1  22   45.90    7.20
   2   1  22   44.60    7.30
   2   1  22   53.09    7.90
  -2   1 -22   57.19    6.60
  -2   1 -22   48.30    7.90
  -2   1 -22   32.60    5.70
   2   1  22   42.10    5.50
  -3  -1 -22    5.10    6.50
  -3  -1 -22   -2.30    6.80
  -3  -1 -22   -4.10    6.00
   3  -1  22    0.00    5.70
   3  -1  22    7.40    8.00
   3  -1  22   -5.40    5.70
  -3  -1 -22    0.10    7.00
   3  -1  22    3.10    4.60
  -3   1 -22    3.60    6.70
  -3   1 -22   -2.70    6.90
   3   1  22   -3.30    3.70
   3   1  22    2.90    6.20
   3   1  22   -7.40    7.00
   3   1  22   13.00    6.40
  -3   1 -22    2.50    5.70
   3   1  22    6.20    6.90
   4  -1  22    1.80    6.50
   4  -1  22   11.70    5.10
  -4  -1 -22   11.90    7.20
   4  -1  22   26.50    5.70
  -4  -1 -22   11.60    8.10
   4  -1  22   12.40    7.20
  -4  -1 -22    9.80    8.40
   4  -1  22    3.40    7.80
  -4  -1 -22    4.60    5.90
   4   1  22    4.50    3.70
   4   1  22  -15.30    7.40
  -4   1 -22   13.00    6.60
  -4   1 -22    8.30    6.90
   4   1  22   -1.00    6.20
   4   1  22    3.60    6.80
  -4   1 -22    6.60    7.70
  -4   1 -22   -2.90    6.70
   4   1  22   14.30    7.80
   5  -2 -22   -0.80    6.60
  -5  -2  22    3.50    6.10
  -5  -2  22    1.80    5.20
   5  -2 -22    4.80    7.10
  -5  -2  22    2.50    5.30
   5  -2 -22    2.60    5.40
  -5  -2  22   12.00    5.60
   5  -2 -22    7.70    5.80
   5   2 -22   -1.20    3.70
  -5   2  22    4.80    5.20
   5   2 -22   11.10    6.40
  -5   2  22    3.70    4.80
  -5   2  22    6.80    6.90
  -5   2  22    3.80    7.60
  -5   2  22    7.30    6.60
   5   2 -22   13.90    6.00
   5   2 -22   11.80    8.20
   5   2 -22    1.40    6.30
   4  -2 -22   -6.50    5.00
  -4  -2  22    5.60    6.00
  -4  -2  22   -5.50    4.80
   4  -2 -22    7.30    6.20
  -4  -2  22    5.60    5.80
  -4  -2  22   -2.00    5.70
   4  -2 -22    0.50    5.70
  -4   2  22    8.10    4.90
  -4   2  22   -2.90    4.40
  -4   2  22    2.60    6.30
   4   2 -22   -4.30    5.00
   4   2 -22    4.00    7.10
   4   2 -22    6.50    7.20
  -4   2  22   -9.30    6.00
  -4   2  22    5.60    6.80
  -3  -2  22   67.89    8.50
  -3  -2  22   54.59    7.10
   3  -2 -22   53.59    7.20
  -3  -2  22   68.39    9.00
   3  -2 -22   43.80    6.50
  -3  -2  22   40.90    5.80
   3  -2 -22   62.89    6.80
   3  -2 -22   59.59    7.50
  -3   2  22   71.19    7.40
  -3   2  22   54.49    6.10
   3   2 -22   60.89    6.70
   3   2 -22   49.90    8.00
  -3   2  22   73.39    8.60
   3   2 -22   60.09    8.70
  -3   2  22   60.39    7.20
  -3   2  22   54.29    8.00
   3   2 -22   57.49    6.30
  -2  -2  22    3.90    4.80
  -2  -2  22   -2.60    4.70
   2  -2 -22   -5.90    4.80
  -2  -2  22   -3.50    4.40
   2  -2 -22    2.30    4.80
   2  -2 -22   -1.50    4.70
  -2  -2  22    4.60    5.20
   2  -2 -22    2.50    5.20
  -2   2  22   -5.70    4.10
   2   2 -22    2.80    4.70
   2   2 -22   -0.90    6.80
  -2   2  22    1.40    6.30
   2   2 -22   -6.10    4.70
  -2   2  22   -4.00    4.50
   2   2 -22   -0.50    6.50
  -2   2  22    1.70    5.30
   1  -2 -22   21.80    5.50
  -1  -2  22   22.50    4.80
  -1  -2  22   31.50    5.10
   1  -2 -22   15.90    4.60
   1  -2 -22   19.60    5.60
  -1  -2  22   26.90    5.90
   1  -2 -22   20.60    5.70
  -1  -2  22   24.20    5.80
  -1   2  22   22.00    4.20
  -1   2  22   24.70    6.50
   1   2 -22   21.90    4.80
   1   2 -22   19.70    6.80
   1   2 -22   16.90    7.00
  -1   2  22   18.20    3.50
  -1   2  22   27.30    5.50
   1   2 -22   15.20    5.00
  -1   2  22   26.90    6.40
  -1   2  22   21.70    5.20
   0  -2  22   -1.60    4.50
   0  -2 -22   -3.30    5.60
   0  -2  22   12.70    4.80
   0  -2  22    1.70    5.30
   0  -2 -22   20.60    5.80
   0  -2  22   -4.40    4.00
   0  -2 -22    1.30    3.90
   0  -2 -22    3.80    6.10
   0   2  22    1.00    4.80
   0   2  22    0.80    5.20
   0   2 -22    4.60    6.70
   0   2 -22    4.80    4.60
   0   2 -22   -6.30    4.20
   0   2  22    5.20    5.00
   0   2 -22   11.50    6.40
   0   2  22   -0.70    3.80
  -1  -2 -22   83.19    9.80
  -1  -2 -22   80.29    9.30
   1  -2  22   69.49   12.70
   1  -2  22  100.69    8.20
   1  -2  22   71.79    7.60
   1  -2  22   79.59    9.30
  -1  -2 -22   92.29   10.80
  -1  -2 -22   93.19    8.90
   1  -2  22   87.49    8.50
   1   2  22   89.39    9.40
   1   2  22   90.69    9.30
   1   2  22   92.39    6.60
  -1   2 -22   79.79   10.50
  -1   2 -22   94.99    7.70
   1   2  22   76.79    8.90
  -1   2 -22   89.39    9.70
   1   2  22   93.39   11.60
  -1   2 -22   91.99    8.10
  -2  -2 -22   14.70    7.00
   2  -2  22    1.70   10.20
   2  -2  22   -5.00    4.90
  -2  -2 -22    2.20    6.70
   2  -2  22    1.10    5.00
  -2  -2 -22    2.40    5.70
  -2  -2 -22    1.50    5.30
   2  -2  22   -2.70    5.40
   2  -2  22   -6.30    4.50
   2   2  22    8.60    4.00
  -2   2 -22   -2.50    7.40
   2   2  22    0.70    7.10
  -2   2 -22    6.80    6.50
   2   2  22   -3.90    5.70
   2   2  22   -8.80    5.00
  -2   2 -22    3.10    4.80
  -2   2 -22    4.20    4.80
   3  -2  22    5.30   11.20
   3  -2  22   13.00    6.10
   3  -2  22    0.10    4.60
   3  -2  22    4.40    5.20
  -3  -2 -22   17.10    6.40
  -3  -2 -22   -5.40    7.20
  -3  -2 -22   -2.80    6.00
  -3  -2 -22   14.60    5.30
  -3   2 -22    0.80    5.10
   3   2  22   -3.60    6.40
   3   2  22    8.40    6.90
   3   2  22   -4.10    7.40
  -3   2 -22    2.90    5.70
   3   2  22    2.70    4.50
  -3   2 -22    4.20    6.90
   3   2  22    6.20    6.40
  -3   2 -22    9.50    7.60
  -2  -3  22   -5.60    6.30
   2  -3 -22    2.30    5.30
  -2  -3  22    3.10    5.20
   2  -3 -22    0.70    6.10
  -2  -3  22    3.20    5.20
   2  -3 -22   -4.40    5.60
   2  -3 -22   10.90    4.30
  -2  -3  22    6.00    4.80
   2   3 -22    0.50    2.60
  -2   3  22   -3.20    3.90
  -2   3  22    5.50    6.20
   2   3 -22    5.60    6.10
  -2   3  22   11.00    2.40
  -2   3  22   -0.90    5.50
  -2   3  22   18.50    6.10
   2   3 -22    4.50    3.40
  -1  -3  22    6.80    4.30
   1  -3 -22    5.50    5.20
   1  -3 -22    8.90    4.70
  -1  -3  22    8.40    4.90
   1  -3 -22   14.50    5.60
  -1  -3  22    3.00    5.60
   1  -3 -22   -3.20    6.00
  -1  -3  22   10.10    6.10
  -1   3  22    7.70    7.00
  -1   3  22   -6.00    5.60
   1   3 -22    4.50    2.00
   1   3 -22    7.90    7.30
   1   3 -22    1.90    2.70
  -1   3  22    2.70    5.10
   1   3 -22   16.80    6.90
  -1   3  22    5.70    3.30
  -1   3  22    8.90    2.80
   0  -3  22   17.30    3.80
   0  -3  22    3.60    6.10
   0  -3  22    5.30    5.30
   0  -3 -22    6.80    5.10
   0  -3 -22    2.30    5.10
   0  -3  22    7.30    5.20
   0  -3 -22    4.20    5.30
   0  -3  22    4.50    8.70
   0  -3 -22   -4.60    6.70
   0   3  22    1.80    3.90
   0   3 -22   -5.50    6.70
   0   3  22    6.40    5.60
   0   3  22   -1.80    5.80
   0   3  22   -3.50    7.80
   0   3 -22   -3.50    6.50
   0   3  22   -1.90    3.50
   6   0 -23    1.30    7.40
   6   0 -23  -11.20    7.50
   6   0 -23  -11.30    6.20
  -6   0  23   -0.50    6.40
  -6   0  23    7.50    7.30
   6   0 -23  -11.00    8.20
  -6   0  23   11.90    7.90
  -6   0  23    5.50    7.10
  -5   0  23   74.09    9.40
  -5   0  23   72.79    8.90
   5   0 -23   67.69    7.90
   5   0 -23   86.39   10.60
   5   0 -23   72.69    9.10
  -5   0  23   74.19    8.80
   4   0 -23    2.00    5.20
  -4   0  23    3.30    6.00
  -4   0  23    1.90    6.30
  -4   0  23   -9.70    5.60
  -4   0  23    7.60    6.30
   4   0 -23    2.50    5.90
   4   0 -23    2.50    7.50
   3   0 -23  654.53   25.50
  -3   0  23  663.03   24.50
   3   0 -23  651.13   24.50
  -3   0  23  607.44   24.00
  -3   0  23  615.94   24.70
   3   0 -23  659.93   24.60
  -2   0  23   -1.60    5.30
  -2   0  23    6.50    5.30
   2   0 -23    9.00    5.40
   2   0 -23    6.70    5.40
   2   0 -23    2.30    6.40
  -2   0  23    2.80    5.00
  -1   0  23   11.40    5.40
  -1   0  23    4.40    5.30
   1   0 -23   12.60    5.90
   1   0 -23   11.80    5.70
   1   0 -23   10.40    6.90
  -1   0  23    2.10    6.10
   0   0 -23    5.90    6.00
   0   0  23    4.60    5.80
   0   0 -23    5.00    5.60
   0   0  23    9.00    5.30
   0   0  23    4.20    5.00
   0   0 -23   10.70    6.10
   1   0  23  105.39    9.30
   1   0  23  129.29    5.10
  -1   0 -23  111.59   10.30
   1   0  23  115.59   10.80
  -1   0 -23  100.79   10.10
  -1   0 -23  110.19    9.90
   1   0  23  105.29    9.70
   1   0  23  103.19    8.90
   2   0  23    5.20    5.80
  -2   0 -23   -1.00    7.10
  -2   0 -23   13.10    6.70
   2   0  23    5.50    6.60
  -2   0 -23    7.20    6.70
   2   0  23    1.60    5.20
   2   0  23    4.40    3.40
  -2   0 -23    9.30    7.40
   2   0  23    6.20    5.50
  -3   0 -23   20.60    7.10
   3   0  23   21.90    7.40
   3   0  23   35.00    8.20
  -3   0 -23   25.10    7.50
   3   0  23   30.80    6.00
  -3   0 -23   19.40    8.40
   3   0  23   42.60    8.20
   3   0  23   26.30    4.00
   3   0  23   27.90    6.90
  -3   0 -23   18.80    7.40
   4   0  23   -2.30    7.80
  -4   0 -23   -8.70    7.40
  -4   0 -23   -2.50    7.20
   4   0  23   16.10    5.70
   4   0  23   -4.70    5.60
  -4   0 -23   -0.10    8.40
  -4   0 -23    5.10    8.90
   4   0  23   -3.20    6.90
   4   0  23    5.80    5.40
  -6  -1  23   69.59    8.40
   6  -1 -23   60.99    8.40
   6  -1 -23   63.29    8.40
  -6  -1  23   71.79    9.20
   6  -1 -23   77.69    9.30
   6  -1 -23   76.99    9.40
  -6  -1  23   63.69    9.40
  -6  -1  23   81.99    8.90
  -6   1  23   74.19    8.70
  -6   1  23   86.89   10.00
   6   1 -23   83.89    9.90
  -6   1  23   71.89    8.50
  -6   1  23   65.49    7.50
   6   1 -23   81.29   10.60
   6   1 -23   72.09   10.60
   6   1 -23   69.29    8.60
   5  -1 -23   67.29    7.70
   5  -1 -23   59.29    8.20
   5  -1 -23   72.99    7.80
   5  -1 -23   60.49    8.60
  -5  -1  23   62.29    8.20
  -5  -1  23   78.79    9.60
  -5  -1  23   60.39    8.10
  -5  -1  23   63.89    7.90
   5   1 -23   74.69    9.70
   5   1 -23   76.19    9.10
  -5   1  23   62.39    7.30
   5   1 -23   54.99    8.40
   5   1 -23   78.69   10.10
  -5   1  23   61.99    7.80
  -5   1  23   93.59    9.90
  -5   1  23   63.79    8.80
   4  -1 -23   66.39    8.60
   4  -1 -23   89.59   10.50
   4  -1 -23   92.39   10.40
  -4  -1  23   86.59    9.20
  -4  -1  23   78.99    9.10
  -4  -1  23   64.59    7.80
   4  -1 -23   77.69    9.50
  -4  -1  23   90.19    9.50
  -4   1  23   60.39    7.70
   4   1 -23   65.79    9.30
   4   1 -23   79.99    8.50
  -4   1  23   68.59    9.10
  -4   1  23   81.19   10.60
   4   1 -23   99.79   10.70
   3  -1 -23   -5.10    6.00
  -3  -1  23    8.50    5.10
   3  -1 -23    1.90    4.40
  -3  -1  23    0.80    4.20
  -3  -1  23    0.30    5.60
  -3  -1  23    1.60    5.50
   3  -1 -23   13.00    5.90
   3  -1 -23   18.20    6.10
  -3   1  23   21.00    6.50
   3   1 -23   14.10    7.20
  -3   1  23   -6.20    4.80
  -3   1  23    1.80    5.10
   3   1 -23    4.10    6.80
   3   1 -23    2.40    5.60
  -3   1  23    1.90    4.90
   2  -1 -23   -2.10    5.70
   2  -1 -23    6.30    5.60
  -2  -1  23   15.20    4.90
  -2  -1  23   -8.20    5.70
  -2  -1  23    4.20    5.20
   2  -1 -23    7.10    6.60
   2  -1 -23    4.30    4.60
  -2  -1  23   12.60    4.50
   2   1 -23    5.40    5.10
  -2   1  23    0.20    5.70
  -2   1  23    2.30    5.20
  -2   1  23   -3.80    4.40
   2   1 -23   -4.30    4.80
  -2   1  23   -0.90    4.90
   2   1 -23    5.10    6.00
   2   1 -23    0.20    6.30
  -1  -1  23   20.90    5.80
   1  -1 -23   34.40    6.60
  -1  -1  23   24.60    5.50
  -1  -1  23   24.30    5.70
   1  -1 -23   19.40    6.80
   1  -1 -23   22.50    4.80
  -1  -1  23   20.40    4.80
   1  -1 -23   30.80    7.10
  -1   1  23   25.40    6.10
   1   1 -23   27.70    6.40
   1   1 -23   21.20    5.60
  -1   1  23   27.00    6.70
  -1   1  23   11.10    4.70
   1   1 -23   30.30    6.10
   1   1 -23   21.30    6.30
  -1   1  23   25.00    5.50
   0  -1  23  232.68   13.00
   0  -1 -23  250.47   12.60
   0  -1 -23  235.38   12.60
   0  -1 -23  233.38   12.50
   0  -1  23  249.28   13.30
   0  -1  23  237.58   13.00
   0  -1 -23  235.88   13.20
   0  -1  23  234.38   12.00
   0   1  23  244.78   13.40
   0   1 -23  240.78   12.80
   0   1  23  240.18   13.40
   0   1  23  235.28   10.00
   0   1 -23  261.87   12.90
   0   1  23  228.78   12.90
   0   1 -23  240.48   12.60
   1  -1  23   33.00    6.70
  -1  -1 -23   38.50    8.00
   1  -1  23   38.10    8.10
   1  -1  23   39.50    6.30
  -1  -1 -23   45.90    7.50
   1  -1  23   30.60    5.30
  -1  -1 -23   38.10    6.80
   1  -1  23   38.40    6.70
   1   1  23   38.30    5.00
   1   1  23   39.40    6.60
  -1   1 -23   36.50    6.80
  -1   1 -23   39.80    6.30
   1   1  23   33.80    6.90
   1   1  23   36.10    6.80
   2  -1  23   -0.50    7.10
  -2  -1 -23    9.30    8.30
  -2  -1 -23    6.40    7.40
  -2  -1 -23    4.00    6.20
   2  -1  23   -5.30    5.10
   2  -1  23    4.10    5.90
   2  -1  23   -0.30    5.30
   2  -1  23   -9.00    3.90
  -2  -1 -23   -1.60    6.50
   2   1  23   -1.30    6.20
   2   1  23   -5.80    6.10
  -2   1 -23    1.40    5.60
   2   1  23    2.60    3.70
   2   1  23   -9.20    5.60
   2   1  23   -3.10    6.80
   2   1  23    2.10    1.70
  -2   1 -23    4.90    7.00
  -2   1 -23   -4.40    5.80
   3  -1  23    0.50    8.40
  -3  -1 -23  -11.80    7.10
   3  -1  23    0.50    6.70
  -3  -1 -23    1.30    6.30
  -3  -1 -23   12.60    7.00
  -3  -1 -23    0.30    8.20
   3  -1  23   -2.30    5.30
   3  -1  23   -1.60    5.00
   3   1  23    3.90    7.50
   3   1  23   -2.90    7.50
   3   1  23    7.00    6.70
   3   1  23   -7.60    5.90
  -3   1 -23    5.90    7.00
  -3   1 -23   -5.80    6.10
  -3   1 -23    1.40    6.20
   3   1  23   -2.40    3.60
  -3   1 -23  -15.20    6.20
  -4  -1 -23   -3.00    7.60
   4  -1  23    6.40    7.90
  -4  -1 -23   13.10    9.40
   4  -1  23    4.60    5.70
  -4  -1 -23   13.20    6.50
   4  -1  23    3.60    5.20
  -4  -1 -23   -1.80    6.40
   4  -1  23   -1.70    5.70
   4   1  23    1.00    7.50
   4   1  23    1.80    5.40
   4   1  23    1.40    3.80
  -4   1 -23    3.70    8.30
  -4   1 -23    6.10    9.00
   4   1  23    0.80    7.00
  -4   1 -23    9.70    7.50
   4   1  23   -5.80    8.80
  -4   1 -23   -2.30    7.20
   5  -2 -23   12.20    5.50
  -5  -2  23   -0.20    6.00
   5  -2 -23   11.30    7.20
   5  -2 -23   -8.60    7.00
  -5  -2  23   -2.50    4.90
   5  -2 -23    6.50    5.00
  -5  -2  23   -8.10    5.60
  -5  -2  23  -15.20    5.80
   5   2 -23   -4.30    9.10
   5   2 -23   -6.90    6.40
  -5   2  23   -6.40    5.50
  -5   2  23   -3.70    7.50
  -5   2  23    3.00    8.40
  -5   2  23    1.10    5.10
   5   2 -23  -12.70    6.80
  -5   2  23    5.00    5.70
   5   2 -23    1.40    6.80
   4  -2 -23   -1.00    5.80
  -4  -2  23   -4.50    5.10
  -4  -2  23   16.80    6.80
   4  -2 -23    7.80    6.60
  -4  -2  23   12.70    6.20
  -4  -2  23   10.20    6.00
   4  -2 -23    6.90    6.90
   4   2 -23   -7.80    6.80
  -4   2  23    7.30    7.40
  -4   2  23   -1.90    6.30
  -4   2  23    6.20    4.80
   4   2 -23   -4.00    4.90
  -4   2  23   11.00    7.40
   4   2 -23    2.10    7.40
  -4   2  23   17.00    5.20
   3  -2 -23   25.00    5.90
   3  -2 -23   14.90    5.80
  -3  -2  23   21.80    5.80
  -3  -2  23   12.10    5.20
  -3  -2  23    9.90    6.00
  -3  -2  23   11.90    6.60
   3  -2 -23   11.60    6.60
   3  -2 -23   21.60    6.40
  -3   2  23   17.10    5.00
  -3   2  23   17.80    7.00
   3   2 -23   16.00    5.30
  -3   2  23   17.30    7.30
   3   2 -23   20.30    7.80
   3   2 -23   20.60    8.20
  -3   2  23   11.40    5.30
  -3   2  23   21.40    6.20
   3   2 -23    4.00    5.40
   2  -2 -23   36.30    6.00
   2  -2 -23   17.20    5.80
  -2  -2  23   28.50    6.50
   2  -2 -23   31.30    6.80
  -2  -2  23   29.80    6.60
   2  -2 -23   28.70    6.00
  -2  -2  23   29.00    6.10
  -2  -2  23   31.80    5.70
  -2   2  23   36.20    5.60
  -2   2  23   32.30    7.80
   2   2 -23   37.50    8.10
  -2   2  23   34.30    5.50
   2   2 -23   34.50    5.60
   2   2 -23   27.20    7.70
   2   2 -23   37.00    5.90
  -2   2  23   18.70    7.10
  -1  -2  23   30.70    5.80
  -1  -2  23   45.50    6.00
   1  -2 -23   35.60    6.70
  -1  -2  23   30.30    6.10
   1  -2 -23   18.50    5.10
   1  -2 -23   23.30    6.50
   1  -2 -23   21.80    5.90
  -1  -2  23   29.50    6.20
  -1   2  23   36.20    6.00
  -1   2  23   34.60    7.50
   1   2 -23   29.60    7.40
  -1   2  23   28.90    6.60
  -1   2  23   33.30    4.80
   1   2 -23   37.60    5.60
   1   2 -23   27.60    5.50
   1   2 -23   39.60    8.20
  -1   2  23   29.70    5.50
   0  -2  23  147.59   10.00
   0  -2 -23  127.59   10.10
   0  -2  23  144.49   11.30
   0  -2  23  168.68   10.50
   0  -2 -23  159.58   10.70
   0  -2 -23  141.59   11.70
   0  -2 -23  169.38   11.10
   0  -2  23  127.29    9.50
   0   2 -23  144.49    9.80
   0   2  23  145.59   10.70
   0   2 -23  156.88    9.80
   0   2  23  134.09   12.00
   0   2  23  160.88   10.50
   0   2 -23  132.99   11.70
   0   2 -23  149.49   12.10
   0   2  23  154.58   10.40
   0   2  23  146.59    8.10
   1  -2  23   -2.00    5.60
  -1  -2 -23    3.40    6.20
   1  -2  23    2.60    5.30
  -1  -2 -23   -5.20    5.60
  -1  -2 -23    0.30    5.20
   1  -2  23    2.40    5.00
  -1  -2 -23    1.00    6.10
   1  -2  23   -8.20    5.00
   1  -2  23    4.50   10.10
  -1   2 -23   10.20    7.00
   1   2  23    3.00    3.50
   1   2  23   10.10    6.50
  -1   2 -23    5.70    5.10
  -1   2 -23   -8.90    7.10
   1   2  23    2.40    5.50
  -1   2 -23   -0.60    4.80
   1   2  23   -1.70    7.20
  -2  -2 -23    2.70    5.90
   2  -2  23    3.10    5.80
   2  -2  23   -4.40    5.50
  -2  -2 -23   -1.80    5.30
   2  -2  23    3.70   10.20
  -2  -2 -23    9.80    7.30
  -2  -2 -23   -5.80    6.40
   2  -2  23  -10.20    4.90
   2  -2  23    0.60    4.80
   2   2  23    4.80    3.80
   2   2  23   -4.50    7.20
   2   2  23   -5.30    6.10
  -2   2 -23  -14.60    7.20
   2   2  23    0.40    6.00
   2   2  23    6.00    6.70
  -2   2 -23   -0.40    5.00
  -2   2 -23    2.80    5.40
  -2   2 -23   21.00    7.50
  -3  -2 -23    0.00    7.00
   3  -2  23   18.80    7.10
  -3  -2 -23   17.60    7.80
   3  -2  23    5.90    5.10
  -3   2 -23   13.50    5.50
   3   2  23   18.70    7.60
  -3   2 -23   18.30    9.10
   3   2  23   12.90    7.80
   6   0 -24   -9.90    5.50
  -6   0  24   -9.40    5.80
   6   0 -24   -5.10    6.10
   6   0 -24   -2.10    8.20
  -6   0  24    4.60    8.20
  -6   0  24   -3.60    6.90
  -6   0  24    0.10    7.50
   6   0 -24   -4.80    7.90
   5   0 -24  -16.20    7.70
   5   0 -24   -3.00    6.40
   5   0 -24   12.60    7.60
  -5   0  24   -6.70    6.40
  -5   0  24   16.10    7.10
   5   0 -24   -7.30    6.90
  -5   0  24    3.70    7.30
  -5   0  24    5.10    6.70
   4   0 -24   32.40    7.90
  -4   0  24   32.60    7.80
  -4   0  24   17.80    6.20
   4   0 -24   30.30    7.60
  -4   0  24   13.70    6.20
   4   0 -24   11.70    6.00
  -4   0  24   21.40    6.50
  -3   0  24   -1.00    6.40
   3   0 -24    5.70    5.90
  -3   0  24    2.50    5.80
  -3   0  24    2.60    5.90
   3   0 -24    1.60    7.10
  -3   0  24   -0.10    5.90
   3   0 -24    7.10    7.20
   2   0 -24  240.98   13.40
  -2   0  24  236.88   13.20
   2   0 -24  228.78   14.70
   2   0 -24  249.78   13.30
  -2   0  24  271.97   14.40
  -2   0  24  237.48   13.80
   1   0 -24   -7.80    5.30
   1   0 -24   10.50    7.00
  -1   0  24   -4.10    5.40
  -1   0  24   -6.40    4.70
   1   0 -24   -4.20    6.40
  -1   0  24    2.50    6.00
   0   0 -24   13.00    6.30
   0   0 -24    7.50    6.60
   0   0  24   16.00    6.50
   0   0  24   17.30    6.60
   0   0  24   14.30    5.90
   0   0 -24   38.40    7.10
  -1   0 -24    9.30    7.50
  -1   0 -24    6.80    7.10
   1   0  24   -2.50    6.50
  -1   0 -24   -0.20    6.10
  -1   0 -24    3.00    6.00
   1   0  24    0.10    2.10
   1   0  24   11.60    6.50
   1   0  24    4.20    5.50
   1   0  24    0.60    5.00
   2   0  24   90.39    5.70
   2   0  24  104.89   11.00
   2   0  24   92.69   11.10
  -2   0 -24  110.69   11.60
   2   0  24   94.29    9.10
   2   0  24  105.19   10.20
  -2   0 -24   97.19   10.80
  -2   0 -24  108.79   11.80
  -2   0 -24   98.39   10.40
  -3   0 -24   -5.40    6.40
  -3   0 -24   -6.00    7.00
   3   0  24    2.60    7.70
   3   0  24    4.70    7.00
   3   0  24    8.60    5.40
   3   0  24    0.20    4.80
  -3   0 -24   -1.20    8.10
   3   0  24    4.30    3.80
  -3   0 -24    2.90    7.50
   3   0  24   -4.10    7.70
   4   0  24  110.59    7.20
  -4   0 -24   92.69   11.30
  -4   0 -24  105.69   13.60
   4   0  24  110.69   11.30
   4   0  24  109.19   13.60
  -4   0 -24   89.29   10.50
  -4   0 -24  115.99   11.90
   6  -1 -24    7.10    6.00
  -6  -1  24  -12.20    9.00
   6  -1 -24   30.20    8.30
   6  -1 -24   -1.80    6.90
  -6  -1  24  -15.40    7.30
  -6  -1  24    4.20    5.80
   6  -1 -24    2.80    6.20
  -6  -1  24   -6.90    6.50
  -6   1  24    3.30    8.00
  -6   1  24  -15.50    7.00
   6   1 -24   -6.40    6.10
   6   1 -24    9.50    7.10
  -6   1  24    7.50    7.70
   6   1 -24    2.20    8.50
  -6   1  24   11.40   10.50
   6   1 -24  -10.10    6.50
  -5  -1  24   36.50    7.30
  -5  -1  24   48.40    8.20
   5  -1 -24   48.40    8.20
   5  -1 -24   48.50    6.90
   5  -1 -24   63.79    8.10
  -5  -1  24   57.19    8.80
   5  -1 -24   43.30    7.90
  -5  -1  24   62.79    8.50
  -5   1  24   59.49    7.90
  -5   1  24   66.19    8.20
   5   1 -24   50.29    9.50
   5   1 -24   53.99    9.30
  -5   1  24   58.99    8.50
  -5   1  24   65.99    9.40
   5   1 -24   56.79    8.60
   5   1 -24   59.49    9.20
   4  -1 -24   61.69    8.50
  -4  -1  24   70.29    9.20
  -4  -1  24   50.59    7.40
   4  -1 -24   73.09    8.90
   4  -1 -24   55.49    6.90
  -4  -1  24   71.69    9.30
   4  -1 -24   73.09    9.40
  -4  -1  24   61.09    8.50
  -4   1  24   62.29    9.10
  -4   1  24   52.09    7.00
  -4   1  24   62.49    8.40
   4   1 -24   57.09    7.70
   4   1 -24   63.29    9.40
   4   1 -24   62.39    8.10
   3  -1 -24    5.00    5.70
  -3  -1  24   -5.00    4.80
   3  -1 -24    9.70    6.50
  -3  -1  24   -3.90    6.50
   3  -1 -24   -1.80    6.00
   3  -1 -24  -10.10    4.80
  -3  -1  24    4.70    5.70
  -3  -1  24   -0.30    5.40
  -3   1  24   -1.10    5.40
   3   1 -24    7.30    6.90
   3   1 -24    6.40    7.30
  -3   1  24   -1.00    6.90
   3   1 -24   -0.70    6.30
  -3   1  24    3.20    5.30
  -2  -1  24   93.39    9.00
   2  -1 -24   97.79    9.40
   2  -1 -24   94.59    9.60
  -2  -1  24   85.69   10.30
  -2  -1  24  109.79    9.10
   2  -1 -24  100.69   10.60
  -2  -1  24   71.09    8.60
   2  -1 -24   95.29   10.20
  -2   1  24   88.79    9.60
   2   1 -24   86.89    9.50
  -2   1  24   95.09   10.20
  -2   1  24   91.49    9.10
   2   1 -24   85.69    9.70
   2   1 -24   85.19    9.40
  -1  -1  24   52.99    7.40
   1  -1 -24   39.30    7.20
   1  -1 -24   46.20    7.30
  -1  -1  24   50.49    7.40
   1  -1 -24   45.30    7.70
   1  -1 -24   36.20    5.90
  -1  -1  24   45.30    6.00
  -1  -1  24   41.10    6.80
   1   1 -24   51.79    7.60
  -1   1  24   47.50    7.60
   1   1 -24   56.29    8.60
   1   1 -24   46.30    7.00
  -1   1  24   45.30    7.70
  -1   1  24   51.09    7.00
   0  -1 -24   25.00    6.60
   0  -1  24   25.40    6.50
   0  -1  24   17.10    6.40
   0  -1  24   17.80    5.80
   0  -1 -24   34.50    7.40
   0  -1 -24   21.80    6.50
   0  -1  24   33.60    5.70
   0  -1 -24   20.70    6.80
   0   1  24   40.90    7.00
   0   1 -24   26.10    6.60
   0   1 -24   22.90    6.20
   0   1 -24   31.90    7.60
   0   1  24   25.10    4.10
   0   1  24   22.00    6.60
   0   1  24   34.60    7.20
   1  -1  24   25.50    6.20
  -1  -1 -24   43.90    7.40
   1  -1  24   35.30    8.80
  -1  -1 -24   27.50    7.90
  -1  -1 -24   35.30    7.50
   1  -1  24   42.20    6.10
   1  -1  24   41.80    7.20
   1  -1  24   34.00    6.90
  -1  -1 -24   32.20    6.10
   1   1  24   39.20    6.90
  -1   1 -24   47.40    6.90
  -1   1 -24   31.10    8.00
   1   1  24   34.90    7.00
   1   1  24   37.80    4.90
  -1   1 -24   37.90    6.40
   1   1  24   36.60    7.30
   1   1  24   46.80    7.90
  -2  -1 -24   -9.00    6.70
   2  -1  24   -4.70    5.70
  -2  -1 -24    3.40    6.70
  -2  -1 -24   10.60    7.00
   2  -1  24   -1.90    7.70
  -2  -1 -24   -1.30    6.10
   2  -1  24    4.00    5.60
   2  -1  24   -5.20    5.90
   2  -1  24    2.80    5.50
  -2   1 -24    0.10    7.10
  -2   1 -24   -1.40    6.10
   2   1  24   -8.10    6.30
   2   1  24    1.90    7.10
   2   1  24   -3.20    7.00
   2   1  24    6.20    3.70
  -2   1 -24   -1.00    7.20
  -2   1 -24    4.00    8.10
   2   1  24   -9.50    7.40
   3  -1  24    4.90    6.10
   3  -1  24   10.20    8.30
   3  -1  24    1.60    6.50
   3  -1  24    8.50    5.30
   3  -1  24    7.70    6.50
  -3  -1 -24   10.20    8.00
  -3  -1 -24   -1.80    5.40
  -3  -1 -24    2.40    6.70
  -3  -1 -24    4.60    8.40
   3   1  24   13.80    8.40
  -3   1 -24   -3.70    6.10
   3   1  24   15.00    4.00
   3   1  24   10.90    7.50
  -3   1 -24   14.00    8.00
  -3   1 -24   -2.70    6.60
  -3   1 -24    5.10    7.10
   3   1  24   10.30    7.60
   3   1  24    7.80    7.20
   4  -2 -24   56.19    9.00
  -4  -2  24   57.19    7.60
   4  -2 -24   34.50    6.60
   4  -2 -24   52.49    8.00
  -4  -2  24   43.70    6.10
  -4  -2  24   44.90    6.00
  -4  -2  24   52.59    8.50
   4   2 -24   47.80    7.70
  -4   2  24   42.60    9.00
  -4   2  24   43.00    8.20
  -4   2  24   55.29    7.20
   4   2 -24   59.09    7.70
  -4   2  24   73.99    9.20
   4   2 -24   32.70    9.30
   4   2 -24   42.30    6.90
  -4   2  24   54.99    6.40
  -3  -2  24    0.00    6.50
   3  -2 -24    9.10    7.10
  -3  -2  24   -0.30    5.90
  -3  -2  24    7.00    5.20
   3  -2 -24    9.90    7.00
   3  -2 -24    8.70    6.20
  -3  -2  24    4.70    5.40
   3  -2 -24   18.90    6.10
  -3   2  24    6.10    6.10
  -3   2  24   22.20    7.20
   3   2 -24   -3.10    5.20
  -3   2  24   -0.50    6.70
  -3   2  24    3.00    5.00
   3   2 -24   14.40    7.70
   3   2 -24   -5.60    7.60
  -3   2  24   -1.60    5.60
  -2  -2  24    3.90    4.90
   2  -2 -24    6.80    6.20
  -2  -2  24   -3.40    5.70
   2  -2 -24   -1.00    6.20
  -2  -2  24    4.20    6.40
   2  -2 -24    1.90    5.70
  -2  -2  24    8.40    6.20
   2  -2 -24   -0.80    6.40
  -2   2  24    0.90    5.10
  -2   2  24   -3.70    6.50
  -2   2  24    3.30    5.00
  -2   2  24    4.90    7.00
   2   2 -24    8.40    5.30
   2   2 -24    3.20    7.80
   2   2 -24   -0.80    5.20
   2   2 -24   11.90    8.00
  -1  -2  24   37.40    6.90
  -1  -2  24   28.00    5.90
  -1  -2  24   66.99    7.80
   1  -2 -24   49.60    8.00
   1  -2 -24   48.60    7.80
   1  -2 -24   32.60    5.80
   1  -2 -24   30.80    7.10
  -1  -2  24   30.90    6.70
  -1   2  24   38.30    7.80
   1   2 -24   29.60    8.00
   1   2 -24   38.30    6.10
  -1   2  24   45.80    6.20
  -1   2  24   39.10    6.60
   1   2 -24   38.60    7.70
  -1   2  24   40.60    7.20
  -1   2  24   44.70    5.40
   1   2 -24   27.50    6.00
   0  -2  24    5.30    6.40
   0  -2  24   -3.50    5.00
   0  -2 -24   -3.20    4.90
   0  -2 -24    0.90    6.70
   0  -2  24    3.20    5.50
   0  -2 -24    9.20    6.10
   0  -2  24   -8.50    5.40
   0  -2 -24   -4.00    6.60
   0   2  24    3.10    5.50
   0   2  24    0.50    7.10
   0   2  24   -1.80    6.20
   0   2 -24    7.00    7.40
   0   2  24    1.60    3.60
   0   2 -24    0.50    4.70
   0   2 -24    6.20    5.10
   0   2 -24    0.00    7.30
  -1  -2 -24    9.30    7.40
   1  -2  24    7.50    6.40
  -1  -2 -24    1.20    6.00
   1  -2  24   -2.10    5.20
  -1  -2 -24   -0.20    5.70
   1  -2  24   -5.40    4.70
   1  -2  24  -15.50   10.80
  -1  -2 -24    0.20    6.20
   1  -2  24    2.10    6.10
   1   2  24   -6.20    3.50
   1   2  24   10.70    5.90
  -1   2 -24   -8.20    7.30
   1   2  24   -3.30    6.50
  -1   2 -24   -2.90    7.20
  -1   2 -24    4.30    5.00
  -1   2 -24    9.20    5.30
   1   2  24   -4.10    6.90
   1   2  24   -9.30    7.30
  -2  -2 -24   38.20    6.70
   2  -2  24   66.09    8.20
  -2  -2 -24   54.29    7.00
   2  -2  24   66.99    7.90
   2  -2  24   24.50   11.70
  -2  -2 -24   38.30    5.80
   2  -2  24   39.20    7.40
  -2  -2 -24   57.79    9.00
   2  -2  24   45.30    6.30
  -2   2 -24   48.50    7.00
  -2   2 -24   58.39    6.80
  -2   2 -24   68.69    9.00
   2   2  24   68.99    8.90
   2   2  24   61.49    8.20
   2   2  24   45.50    6.20
  -2   2 -24   56.49    7.20
   2   2  24   45.20    8.60
   2   2  24   59.39    8.90
  -6   0  25  -10.20    6.80
   6   0 -25    1.20    6.10
  -6   0  25   -1.50    8.60
   6   0 -25   -3.60    9.10
  -6   0  25    8.30    7.20
  -6   0  25    0.50    5.60
   6   0 -25   -0.50    6.70
  -5   0  25   77.89    9.20
   5   0 -25   62.99    8.90
   5   0 -25   72.29   10.20
  -5   0  25   87.39   10.50
  -5   0  25   79.99    9.50
   5   0 -25   82.09    9.70
   5   0 -25   58.79    9.20
  -5   0  25   74.09    9.50
  -4   0  25    2.00    6.30
  -4   0  25   -0.40    6.10
   4   0 -25   -0.80    6.40
   4   0 -25    1.60    6.90
  -4   0  25  -14.50    5.80
   4   0 -25    3.40    7.70
  -4   0  25    7.70    7.30
   4   0 -25    6.80    8.50
   3   0 -25   58.09    9.00
  -3   0  25   74.29    9.80
   3   0 -25   73.69    9.40
   3   0 -25   85.39   10.70
  -3   0  25   78.59    8.40
  -3   0  25   64.49    8.80
   3   0 -25   96.49   11.50
  -3   0  25   82.99   10.90
   2   0 -25    6.40    7.30
  -2   0  25   -1.90    5.90
   2   0 -25   -5.00    6.10
   2   0 -25    0.50    8.40
  -2   0  25    2.00    5.90
  -2   0  25    3.00    6.20
  -2   0  25    0.00    7.10
   2   0 -25    2.70    6.80
  -1   0  25   -0.80    6.10
   1   0 -25   -1.40    5.70
   1   0 -25   -1.20    8.10
   1   0 -25   -5.40    6.20
   1   0 -25   -4.80    6.90
  -1   0  25    7.40    6.70
  -1   0  25   -4.10    5.80
   0   0 -25   -4.60    6.10
   0   0  25    5.90    6.30
   0   0  25   11.60    6.50
   0   0 -25    7.80    6.80
   0   0 -25    0.70    7.10
   0   0  25   -3.40    5.60
   0   0 -25    4.70    6.20
  -1   0 -25    2.50    7.10
   1   0  25   -5.00    6.20
  -1   0 -25   -6.60    6.20
  -1   0 -25   13.80    8.10
  -1   0 -25    8.00    6.70
   1   0  25   -2.90    6.00
   1   0  25   -2.20    8.20
   1   0  25   -4.00    7.30
   1   0  25    5.00    5.70
   2   0  25    6.80    5.30
  -2   0 -25    3.10    6.70
   2   0  25   10.30    6.50
  -2   0 -25   12.60    7.90
  -2   0 -25   -0.70    7.80
   2   0  25    1.40    7.80
   2   0  25   -7.70    7.00
  -2   0 -25   -2.20    7.50
   3   0  25    1.00    5.40
   3   0  25   -3.60    8.00
   3   0  25    3.90    6.70
   3   0  25   11.40    3.10
  -3   0 -25    2.30    6.10
   3   0  25    3.60    5.10
  -3   0 -25  -12.70    8.80
  -3   0 -25    1.70    8.80
   3   0  25    9.30    5.30
  -3   0 -25    6.50    7.90
   5  -1 -25   39.90    6.90
  -5  -1  25   22.10    6.20
  -5  -1  25   45.20    7.30
  -5  -1  25   51.39    8.70
   5  -1 -25   69.99    9.00
  -5  -1  25   43.30    8.40
   5  -1 -25   56.69    9.40
   5  -1 -25   32.80    6.90
   5   1 -25   40.00    8.20
  -5   1  25   50.29    8.20
  -5   1  25   37.90    6.60
  -5   1  25   50.09    8.00
   5   1 -25   51.29    9.20
  -5   1  25   56.99    8.40
   5   1 -25   44.70   10.00
   5   1 -25   49.10    9.10
  -4  -1  25   -0.90    7.90
  -4  -1  25   13.00    5.70
  -4  -1  25   30.20    7.50
   4  -1 -25    8.90    7.40
   4  -1 -25   13.80    6.00
   4  -1 -25   30.20    8.00
  -4  -1  25   12.50    6.50
   4  -1 -25   20.40    8.00
  -4   1  25   21.00    6.70
  -4   1  25   23.00    7.80
   4   1 -25    7.40    8.20
  -4   1  25   12.30    7.30
   4   1 -25   12.10    7.50
  -4   1  25   14.60    6.70
   4   1 -25    9.10    7.20
   3  -1 -25   36.70    7.40
   3  -1 -25   24.10    7.20
  -3  -1  25   20.90    6.10
  -3  -1  25   20.10    6.50
   3  -1 -25   23.80    7.40
  -3  -1  25   24.50    7.80
   3  -1 -25   26.40    6.40
  -3  -1  25   23.30    6.50
  -3   1  25   22.90    6.10
  -3   1  25   18.90    6.30
   3   1 -25   26.50    7.50
  -3   1  25   13.00    6.90
  -3   1  25   20.00    6.30
   3   1 -25   20.00    6.90
   3   1 -25   15.30    7.00
   3   1 -25   16.00    8.10
  -2  -1  25   17.70    7.20
   2  -1 -25    2.90    6.70
   2  -1 -25   28.10    7.80
  -2  -1  25   10.50    6.40
   2  -1 -25   18.40    6.20
   2  -1 -25   14.40    7.50
  -2  -1  25   19.30    5.60
   2   1 -25   22.20    7.10
   2   1 -25    9.80    6.60
  -2   1  25   12.70    5.60
  -2   1  25   10.50    6.80
  -2   1  25   26.10    7.90
   2   1 -25   10.60    7.60
  -2   1  25   10.10    9.30
   2   1 -25   25.10    6.10
   1  -1 -25  151.98   11.00
  -1  -1  25  158.18   10.40
   1  -1 -25  139.19   11.00
  -1  -1  25  148.89   11.60
  -1  -1  25  150.58   11.70
  -1  -1  25  152.58   12.10
   1  -1 -25  136.19   11.90
   1  -1 -25  138.49   12.20
  -1   1  25  129.99   10.60
  -1   1  25  137.19   11.20
  -1   1  25  132.69   12.10
   1   1 -25  135.29   10.90
   1   1 -25  131.79   12.40
   1   1 -25  124.89   11.00
  -1   1  25  140.99   12.20
   0  -1 -25    5.00    7.00
   0  -1  25    5.10    5.60
   0  -1  25    4.40    6.00
   0  -1 -25    5.80    7.10
   0  -1 -25   10.80    5.80
   0  -1 -25    2.60    6.20
   0  -1  25    6.50    6.00
   0  -1  25   -2.40    5.80
   0   1 -25    1.00    7.40
   0   1  25    4.20    6.30
   0   1 -25    6.40    7.00
   0   1  25   -1.50    3.50
   0   1  25    2.90    6.20
   0   1  25    7.00    7.10
   0   1 -25   10.80    5.80
   1  -1  25   31.10    6.60
   1  -1  25   36.00    6.50
   1  -1  25   33.00    7.30
   1  -1  25   22.60    8.80
  -1  -1 -25   19.30    7.60
   1  -1  25   28.10    6.00
  -1  -1 -25   26.60    7.60
  -1  -1 -25   37.20    8.60
  -1  -1 -25   26.30    7.30
   1   1  25   35.80    7.80
   1   1  25   28.20    4.30
   1   1  25   31.40    7.70
  -1   1 -25   36.50    7.10
  -1   1 -25   19.10    8.40
   1   1  25   37.80    7.80
  -1   1 -25   40.90    7.50
   1   1  25   35.40    7.70
  -1   1 -25   32.50    6.90
  -2  -1 -25   23.20    8.40
   2  -1  25   13.30    8.30
   2  -1  25   18.50    6.90
   2  -1  25   16.50    7.50
  -2  -1 -25    7.20    6.30
  -2  -1 -25   24.90    8.80
   2  -1  25    8.20    5.20
  -2  -1 -25   14.70    7.60
   2  -1  25   17.50    6.30
   2   1  25   16.00    7.70
  -2   1 -25   15.40    6.80
  -2   1 -25    6.10    7.60
   2   1  25   21.80    7.40
  -2   1 -25   31.90    8.30
   2   1  25   25.90    7.70
   2   1  25   30.50    8.00
   2   1  25   28.20    4.20
  -2   1 -25   24.30    7.00
  -3  -1 -25   10.50    8.70
   3  -1  25    8.80    6.90
  -3  -1 -25    9.20    8.00
   3  -1  25  -14.10    7.60
   3  -1  25    3.30    5.70
  -3  -1 -25   -9.30    6.40
   3  -1  25    1.00    4.20
  -3  -1 -25    2.80    6.80
   3   1  25   -7.00    6.70
   3   1  25    2.50    5.70
  -3   1 -25   -2.60    8.70
   3   1  25   15.80    8.80
  -3   1 -25   -7.10   10.30
   3   1  25   -8.80    7.20
  -3   1 -25  -14.40    7.50
  -3   1 -25    0.70    7.30
   3   1  25   15.60    3.80
   4  -2 -25   -9.70    4.90
   4  -2 -25    6.20    7.30
  -4  -2  25   -0.60    6.30
  -4  -2  25   -0.50    6.30
   4  -2 -25    5.60    6.80
  -4  -2  25   -1.80    5.10
   4   2 -25    1.40    7.00
  -4   2  25   -1.70    8.30
   4   2 -25    2.40    7.10
  -4   2  25    7.40    6.50
  -3  -2  25    4.50    4.60
   3  -2 -25   16.40    7.10
   3  -2 -25   -1.00    6.80
  -3  -2  25   -5.30    5.70
  -3  -2  25   10.00    7.10
   3  -2 -25    6.40    5.40
  -3  -2  25    2.10    4.70
   3  -2 -25    9.90    5.80
   3   2 -25    5.60    6.90
  -3   2  25    4.50    5.90
   3   2 -25   -7.30    5.80
  -3   2  25    6.60    7.50
   3   2 -25   11.10    7.70
  -3   2  25   13.40    6.10
   3   2 -25    6.80    8.10
  -3   2  25    9.30    6.80
   2  -2 -25   76.99    8.50
  -2  -2  25   57.79    8.40
   2  -2 -25   42.20    6.50
  -2  -2  25   75.09    9.60
   2  -2 -25   87.49    9.00
   2  -2 -25   71.79    8.70
  -2  -2  25   70.99    8.60
  -2  -2  25   62.69    6.80
  -2   2  25   51.39    6.60
  -2   2  25   83.09   10.80
  -2   2  25   66.69    8.30
   2   2 -25   64.69    7.20
   2   2 -25   94.79   11.90
   2   2 -25   57.79    7.90
   1  -2 -25  242.38   14.90
   1  -2 -25  241.68   13.90
  -1  -2  25  242.18   12.40
   1  -2 -25  227.88   12.70
  -1  -2  25  212.18   12.60
   1  -2 -25  218.18   12.70
  -1  -2  25  241.78   14.20
  -1  -2  25  238.88   13.20
  -1   2  25  238.98   10.80
  -1   2  25  227.08   12.90
  -1   2  25  228.18   13.90
   1   2 -25  230.38   14.30
  -1   2  25  243.48   14.30
   1   2 -25  221.78   12.40
   1   2 -25  243.18   15.50
   0  -2  25    3.40    6.10
   0  -2 -25   18.30    7.70
   0  -2 -25   10.10    5.30
   0  -2  25    7.80    5.40
   0  -2 -25   -5.50    6.40
   0  -2  25    8.00    6.70
   0  -2  25    1.90    5.50
   0  -2 -25    8.70    5.90
   0   2  25    6.80    6.30
   0   2 -25    0.40    5.60
   0   2 -25   -2.50    8.10
   0   2 -25   12.10    6.90
   0   2 -25   10.40    5.60
   0   2  25   -1.30    6.20
   0   2  25   -6.50    6.60
   1  -2  25    1.00   11.90
  -1  -2 -25    4.00    4.90
  -1  -2 -25   -0.80    5.80
  -1  -2 -25    6.70    5.60
   1  -2  25    7.50    6.30
   1  -2  25    4.00    4.90
  -1  -2 -25    9.10    7.70
   1  -2  25   -0.70    4.90
   1  -2  25    4.70    6.20
   1   2  25    1.40    7.00
  -1   2 -25    7.10    5.50
   1   2  25   -1.10    7.80
   1   2  25    4.80    4.10
  -1   2 -25    4.90    9.30
  -1   2 -25   17.90    7.10
  -1   2 -25    4.60    5.80
   1   2  25    8.10    7.20
   1   2  25   -2.40    6.30
  -5   0  26   -0.90    6.10
   5   0 -26   -7.30    8.30
  -5   0  26    0.60    8.10
  -5   0  26   -0.30    7.70
   5   0 -26    2.20    8.40
   5   0 -26    1.80    5.90
  -5   0  26    0.80    7.30
   5   0 -26    5.30    6.20
  -4   0  26    0.90    7.20
   4   0 -26   -3.50    8.00
   4   0 -26   -0.40    9.30
  -4   0  26    1.40    7.80
   4   0 -26   -6.00    6.50
  -4   0  26   10.00    6.80
  -4   0  26    0.60    7.40
   4   0 -26    0.80    7.30
  -3   0  26   12.40    7.50
  -3   0  26   -0.90    7.40
  -3   0  26    0.70    6.40
   3   0 -26    2.00    7.20
   3   0 -26   -4.00    6.60
  -3   0  26    8.00    6.90
   3   0 -26   -4.40    8.70
   3   0 -26   -0.60    6.70
   2   0 -26   21.00    7.40
  -2   0  26   16.70    6.60
   2   0 -26   15.10    7.40
  -2   0  26   22.10    7.30
   2   0 -26   19.00    7.20
  -2   0  26   26.70    7.60
  -2   0  26   30.20    7.00
   2   0 -26    5.00    8.10
   1   0 -26   14.60    7.00
   1   0 -26   -2.20    7.60
  -1   0  26   -4.50    6.70
  -1   0  26    4.50    6.50
   1   0 -26   -2.10    6.80
   1   0 -26    3.80    7.10
  -1   0  26   -5.20    5.80
  -1   0  26    3.40    6.10
   0   0  26   47.20    7.70
   0   0 -26   41.10    9.50
   0   0 -26   37.60    8.10
   0   0 -26   41.40    8.20
   0   0  26   47.70    7.60
   0   0  26   49.80    8.30
   0   0 -26   42.60    8.00
   0   0  26   43.30    9.00
   1   0  26   -1.80    6.80
   1   0  26    2.10    5.60
  -1   0 -26   12.40    7.90
  -1   0 -26    3.60    7.30
   1   0  26    7.40    6.00
   1   0  26    4.60    6.10
  -1   0 -26    8.20    7.50
   1   0  26   -1.70    7.30
  -1   0 -26    0.90    6.30
   2   0  26    7.30    6.20
   2   0  26    6.80    5.30
  -2   0 -26    1.80    6.20
   2   0  26   11.00    7.40
   2   0  26   15.50    7.60
   2   0  26    2.20    6.10
  -2   0 -26   15.00    8.00
  -2   0 -26    5.60    8.90
  -2   0 -26    9.10    7.40
  -5  -1  26   -3.90    6.20
  -5  -1  26    2.80    6.20
   5  -1 -26   14.50    8.30
  -5  -1  26    2.00    7.70
   5   1 -26   -8.10    7.50
  -5   1  26    6.40    7.00
  -5   1  26   -7.60    8.60
  -5   1  26    2.80    7.70
   5   1 -26    0.60    9.20
   5   1 -26    6.80    6.50
   5   1 -26    6.70    7.20
  -4  -1  26   54.09    6.70
   4  -1 -26   73.69    9.20
  -4  -1  26   54.59    7.50
   4  -1 -26   76.39    9.30
   4  -1 -26   72.19    9.70
  -4  -1  26   66.99    9.30
   4  -1 -26   48.80    6.60
  -4  -1  26   68.09    9.10
  -4   1  26   71.79    9.20
   4   1 -26   64.39    9.10
  -4   1  26   67.09    8.70
   4   1 -26   45.20    8.50
  -4   1  26   53.69    9.40
  -4   1  26   71.29    8.70
   4   1 -26   37.00    9.90
   4   1 -26   77.69    9.30
   3  -1 -26  145.19   11.10
  -3  -1  26  118.09   10.50
  -3  -1  26  149.19   12.40
  -3  -1  26   95.39   12.20
   3  -1 -26  118.49   11.10
  -3  -1  26  122.19   12.40
   3  -1 -26  124.09   12.50
   3  -1 -26  113.89   10.40
   3   1 -26  123.19   12.90
  -3   1  26  130.59   12.00
   3   1 -26  104.89   11.60
   3   1 -26  137.79   13.20
   3   1 -26  127.59   12.70
  -3   1  26  106.09   10.80
  -3   1  26  136.89   10.30
  -3   1  26  104.49   12.40
   2  -1 -26    2.20    6.60
   2  -1 -26    6.50    7.20
  -2  -1  26   20.20    6.30
  -2  -1  26    3.10    6.50
  -2  -1  26    4.60    5.30
   2  -1 -26   11.40    7.80
  -2  -1  26    3.20    6.20
   2  -1 -26   10.70    6.30
  -2   1  26    4.30    6.00
  -2   1  26   -2.30    6.40
   2   1 -26    9.00    5.90
   2   1 -26   -3.10    7.10
   2   1 -26    4.50    7.20
   2   1 -26    5.10    8.30
  -2   1  26    1.30    6.90
  -2   1  26    4.30    6.10
  -1  -1  26   23.70    5.90
  -1  -1  26   25.40    7.00
   1  -1 -26   22.60    7.90
  -1  -1  26   19.10    6.50
   1  -1 -26   14.50    8.10
   1  -1 -26   18.40    8.00
  -1  -1  26    5.70    6.30
   1  -1 -26    7.00    5.80
   1   1 -26    2.90    8.10
   1   1 -26   30.50    7.90
   1   1 -26   10.80    6.80
   1   1 -26   18.00    6.30
  -1   1  26   16.50    6.50
  -1   1  26    9.50    6.10
  -1   1  26    9.00    6.50
  -1   1  26   13.50    8.00
   0  -1  26   89.79   11.10
   0  -1  26  113.09   10.90
   0  -1 -26   87.29   10.10
   0  -1  26   78.89    9.60
   0  -1 -26  101.09   10.80
   0  -1 -26   70.39    8.70
   0  -1  26   83.79   10.40
   0  -1 -26   97.69   11.00
   0   1 -26   80.69   10.50
   0   1 -26   95.99   10.70
   0   1  26   89.79   11.90
   0   1  26   87.39    6.40
   0   1 -26   72.79    8.10
   0   1  26   67.09    8.50
   0   1 -26   92.69   10.60
   0   1  26  107.79   11.60
  -1  -1 -26    2.50    6.10
   1  -1  26   -7.70    6.80
   1  -1  26   -3.50    8.00
   1  -1  26   -2.40    5.80
   1  -1  26   -2.20    4.80
  -1  -1 -26   12.60    8.00
  -1  -1 -26   -2.30    7.60
  -1  -1 -26   -9.30    6.50
   1  -1  26   -5.10    6.30
  -1   1 -26    6.70    6.80
   1   1  26    0.50    2.50
  -1   1 -26    7.80    7.10
   1   1  26    8.50    7.00
  -1   1 -26   -0.60    7.90
   1   1  26    6.30    3.80
   1   1  26    2.30    7.60
  -1   1 -26   -4.30    7.80
   1   1  26    0.50    7.40
   1   1  26   -2.60    7.70
  -2  -1 -26   42.50    7.20
   2  -1  26   39.00    7.40
  -2  -1 -26   32.30    7.30
  -2  -1 -26   19.40    6.50
   2  -1  26   35.90    6.40
   2  -1  26   42.60    6.80
  -2  -1 -26   42.80    9.70
   2  -1  26   38.20    7.80
  -2   1 -26   43.90    8.30
   2   1  26   35.90    7.00
  -2   1 -26   35.10    7.80
   2   1  26   31.40    8.00
   2   1  26   56.69   10.00
   2   1  26   39.20    4.60
  -2   1 -26   47.90    8.90
  -2   1 -26   38.10    8.20
   2   1  26   28.20    7.40
  -2  -2  26    7.10    4.90
   2  -2 -26    4.50    5.40
   2  -2 -26   11.30    6.60
  -2  -2  26   12.90    6.20
   2  -2 -26    2.20    4.90
  -2  -2  26    2.40    6.80
   2  -2 -26   18.30    6.80
   2   2 -26   -4.70    9.10
  -2   2  26    6.90    6.60
   2   2 -26    7.00    7.30
   2   2 -26    9.70    7.30
  -2   2  26    4.40    4.80
   2   2 -26    3.70    6.90
  -2   2  26   22.30    8.70
  -2   2  26    2.90    6.50
   1  -2 -26   11.00    5.40
  -1  -2  26   11.80    5.60
   1  -2 -26   11.20    6.40
  -1  -2  26   17.80    6.80
  -1  -2  26    7.90    6.70
   1  -2 -26   17.30    6.50
  -1  -2  26    2.20    4.80
   1  -2 -26    1.90    6.90
  -1   2  26    6.30    3.90
   1   2 -26   12.70    6.90
   1   2 -26   14.00    6.70
  -1   2  26  -19.00    8.10
  -1   2  26   21.60    6.90
  -1   2  26    2.70    6.40
   1   2 -26   13.90    9.60
  -1   2  26    0.70    7.30
   0  -2  26  193.28   13.40
   0  -2  26  173.98   11.20
   0  -2 -26  201.58   12.80
   0  -2 -26  179.88   11.60
   0  -2 -26  191.18   13.40
   0  -2  26  143.89   11.60
   0  -2  26  190.58   12.20
   0   2 -26  170.98   16.50
   0   2  26  180.58   14.10
   0   2  26  193.98   13.40
   0   2  26  207.38    9.50
   0   2 -26  191.78   12.70
   0   2  26  181.18   13.90
   0   2 -26  199.98   15.60
  -4   0  27    8.10    7.00
   4   0 -27   -3.00    6.50
  -4   0  27    1.60    6.60
   4   0 -27    5.00    9.80
  -4   0  27   -2.50    8.20
  -4   0  27    7.90    7.70
   4   0 -27    1.40    7.80
   4   0 -27   -8.20    6.10
  -3   0  27   48.30    8.80
   3   0 -27   68.49   10.20
  -3   0  27   63.89    9.30
  -3   0  27   62.79    8.20
   3   0 -27   84.89   11.40
  -3   0  27   51.29    8.10
   3   0 -27   64.39    8.80
   3   0 -27   68.09    9.10
   2   0 -27   15.00    9.50
  -2   0  27    0.40    7.30
  -2   0  27   -0.10    6.80
  -2   0  27   -7.60    6.20
   2   0 -27   -5.50    7.40
  -2   0  27    5.40    7.30
   2   0 -27    2.50    7.50
   2   0 -27   -1.00    7.90
   1   0 -27   55.79    8.10
  -1   0  27   52.09    9.00
   1   0 -27   51.39    8.50
  -1   0  27   56.19    8.30
   1   0 -27   52.39    9.80
  -1   0  27   47.80    8.90
  -1   0  27   43.20    7.00
   1   0 -27   58.09    8.90
   0   0  27    7.20    8.60
   0   0  27   -0.20    7.70
   0   0  27    4.20    7.00
   0   0 -27   11.20    7.70
   0   0 -27    1.90    7.60
   0   0 -27   10.60    9.30
   0   0 -27  -12.20    7.80
   0   0  27   12.90    6.60
  -1   0 -27   48.50    9.10
   1   0  27   36.50    9.00
  -1   0 -27   39.80    7.70
  -1   0 -27   60.89   10.00
   1   0  27   34.80    8.30
   1   0  27   27.50    6.80
   1   0  27   21.60    5.90
  -1   0 -27   57.09    9.20
  -2   0 -27   23.30    7.10
   2   0  27   -0.90    5.40
  -2   0 -27   16.50    8.20
   2   0  27   -0.90    6.80
  -2   0 -27   -1.50    8.40
   2   0  27    0.80    8.20
   2   0  27   -0.90    6.00
  -2   0 -27    7.70    6.00
   2   0  27   -3.20    6.30
   4  -1 -27    8.70    7.50
  -4  -1  27    6.00    5.70
   4  -1 -27   18.60    7.60
  -4  -1  27    6.40    8.20
  -4  -1  27    7.90    6.60
   4  -1 -27   14.60    6.40
   4  -1 -27   19.60    8.00
  -4  -1  27    8.10    6.80
   4   1 -27   31.60    7.70
   4   1 -27    9.10   10.10
  -4   1  27   12.50    9.10
  -4   1  27    4.00    7.40
  -4   1  27   15.80    7.60
   4   1 -27   24.50    8.00
   4   1 -27    6.90    6.40
  -4   1  27   27.80    8.10
  -3  -1  27   22.90    6.20
   3  -1 -27   40.30    7.30
   3  -1 -27   22.50    6.00
  -3  -1  27   20.80    8.00
  -3  -1  27   24.00    5.70
   3  -1 -27   24.80    7.00
  -3  -1  27   32.40    8.10
   3  -1 -27   23.10    8.80
   3   1 -27   34.70    7.90
   3   1 -27   29.80    8.30
   3   1 -27   18.10    7.60
  -3   1  27   33.10    7.30
  -3   1  27   25.80    6.80
  -3   1  27   34.30    7.50
   3   1 -27   36.40   10.00
  -3   1  27   36.80    7.90
  -2  -1  27    6.80    5.80
  -2  -1  27   11.40    6.70
   2  -1 -27   11.00    7.40
   2  -1 -27   14.10    7.50
   2  -1 -27    1.70    7.20
   2  -1 -27   11.10    5.80
  -2  -1  27    9.00    8.00
  -2  -1  27    9.10    5.70
  -2   1  27    0.10    6.60
   2   1 -27   12.60    6.70
  -2   1  27   11.80    6.40
  -2   1  27    7.70    7.80
   2   1 -27    2.30    6.90
   2   1 -27   12.20    9.40
   2   1 -27   23.10    8.50
  -2   1  27   14.50    7.40
   1  -1 -27   13.10    7.40
  -1  -1  27   -0.50    6.80
  -1  -1  27    4.30    5.30
   1  -1 -27   -0.50    5.50
  -1  -1  27   12.70    7.20
  -1  -1  27   12.90    6.80
   1  -1 -27   -7.50    8.10
   1  -1 -27    5.20    8.40
  -1   1  27    7.10    6.40
   1   1 -27   21.10    7.40
   1   1 -27   10.40    7.60
  -1   1  27    1.70    8.30
  -1   1  27   -6.70    6.80
   1   1 -27   -4.60    6.80
  -1   1  27    5.60    7.80
   1   1 -27    8.40    6.60
   0  -1  27   -0.10    6.10
   0  -1  27   -1.40    6.50
   0  -1  27    3.60    5.70
   0  -1 -27    4.80    7.80
   0  -1  27    4.50    7.10
   0  -1 -27   -5.70    7.20
   0  -1 -27    1.60    6.10
   0  -1 -27   -1.20    5.80
   0   1 -27    3.70    6.90
   0   1  27    0.50    3.50
   0   1 -27    1.20    6.70
   0   1 -27    5.80    6.90
   0   1  27    5.10    7.30
   0   1  27   -1.90    7.80
   0   1  27   -2.10    6.50
   0   1 -27  -13.20    7.50
   1  -1  27   36.10    7.10
  -1  -1 -27   40.20    7.20
   1  -1  27   35.60    6.30
  -1  -1 -27   45.80    7.40
   1  -1  27   41.10    8.60
  -1  -1 -27   34.90    7.70
   1  -1  27   41.90    6.50
  -1  -1 -27   37.60    9.40
  -1   1 -27   29.90    9.90
   1   1  27   34.40    8.00
   1   1  27   40.40    8.00
   1   1  27   44.00    5.10
  -1   1 -27   49.50    7.40
  -1   1 -27   40.50    8.10
   1   1  27   37.70    7.20
  -1   1 -27   40.10    8.30
   1   1  27   29.80    8.50
  -4   0  28    6.00    7.70
  -4   0  28   10.00    6.00
  -4   0  28   -5.50    5.50
   4   0 -28   22.20    8.90
   4   0 -28    0.90    6.50
   4   0 -28   27.60    9.50
  -4   0  28   11.40    6.90
  -3   0  28    5.10    8.20
   3   0 -28    6.40    6.60
  -3   0  28   -9.60    8.40
   3   0 -28   -3.80    6.40
   3   0 -28   10.00   10.20
  -3   0  28    5.50    6.20
   3   0 -28   16.80    8.00
  -3   0  28   -0.60    5.80
   2   0 -28    9.50    8.70
  -2   0  28   -8.80    7.70
  -2   0  28    6.40    7.10
   2   0 -28    1.00    6.70
  -2   0  28    3.80    7.00
  -2   0  28    2.60    6.70
   2   0 -28  -10.60    6.80
   2   0 -28   -1.10    8.10
   1   0 -28   -1.70    7.40
  -1   0  28   -2.60    8.60
  -1   0  28    3.20    6.40
  -1   0  28    5.90    8.70
   1   0 -28    1.00    9.50
   1   0 -28   -6.60    7.20
   1   0 -28    7.70    7.00
  -1   0  28    4.70    6.70
   0   0 -28   64.59   10.20
   0   0  28   53.29    8.00
   0   0 -28   80.39   11.30
   0   0 -28   68.79    9.00
   0   0  28   49.10    9.80
   0   0  28   81.59   10.30
   0   0 -28   51.29    8.80
   0   0  28   77.49    9.40
  -1   0 -28    5.30    6.00
  -1   0 -28    2.90    6.70
   1   0  28   -0.20    6.50
   1   0  28    5.10    5.80
  -1   0 -28   16.70    8.50
   1   0  28   -1.50    7.40
   1   0  28   -3.70    6.30
   3  -1 -28   46.10   10.70
   3  -1 -28   80.19   10.50
  -3  -1  28   59.09    8.90
  -3  -1  28   51.09    9.40
   3  -1 -28   39.90   10.70
  -3   1  28   80.39   11.90
  -3   1  28   44.90    8.10
   3   1 -28   53.89    8.60
   3   1 -28   67.89    9.30
  -3   1  28   82.29   11.00
   3   1 -28   81.89   11.90
   3   1 -28   88.89   11.60
   2  -1 -28   18.40    9.00
  -2  -1  28    0.40    5.00
   2  -1 -28    3.70    7.50
  -2  -1  28   13.60    6.10
  -2  -1  28   18.90    6.30
  -2  -1  28   11.20    7.10
   2  -1 -28    1.20    5.90
   2  -1 -28   10.90    6.40
   2   1 -28   18.70    7.60
   2   1 -28    8.90    9.40
   2   1 -28    4.90    6.80
  -2   1  28   23.00    6.70
   2   1 -28   18.00    6.80
  -2   1  28    0.70    6.80
  -2   1  28    8.90    7.70
  -2   1  28   13.40    7.40
  -1  -1  28   47.80    9.10
  -1  -1  28   46.00    7.10
  -1  -1  28   43.80    6.20
  -1  -1  28   31.00    6.50
   1  -1 -28   53.79    9.50
   1  -1 -28   31.00    7.20
   1  -1 -28   37.60    6.50
   1  -1 -28   39.30    7.80
  -1   1  28   55.09    8.90
  -1   1  28   44.20    8.00
   1   1 -28   64.29   10.90
  -1   1  28   29.80    7.60
   1   1 -28   42.10    7.60
   1   1 -28   51.79    8.50
   1   1 -28   38.60    8.30
  -1   1  28   43.70    9.40
   0  -1 -28    3.40    9.10
   0  -1 -28    7.90   10.10
   0  -1  28  -10.90    5.60
   0  -1 -28   -5.50    7.20
   0  -1  28   -9.30    8.00
   0  -1  28    0.00    6.20
   0  -1  28   -3.00    6.80
   0  -1 -28    0.90    6.80
   0   1 -28    1.10    6.70
   0   1 -28   -4.30    7.80
   0   1 -28   10.30    7.70
   0   1  28    9.20    9.20
   0   1  28    3.60    3.30
   0   1  28    9.20    7.30
   0   1  28  -10.00    6.00
   0   1 -28   -5.60    9.70
  -2   0  29    4.60    8.40
  -2   0  29   17.00    7.50
  -2   0  29   -0.10    5.80
   2   0 -29   10.00    6.50
   2   0 -29   14.20    9.40
   2   0 -29    5.90    8.90
   2   0 -29  -14.00    6.70
  -2   0  29    5.60    5.90
  -1   0  29   51.09    9.30
  -1   0  29   55.49    7.70
  -1   0  29   54.69    7.70
   1   0 -29   36.10   10.60
   1   0 -29   37.70    8.90
   1   0 -29   53.59    8.40
   1   0 -29   39.40    7.00
  -1   0  29   74.59    9.90
_computing_structure_solution     'SHELXT 2014/4 (Sheldrick, 2014)'
;
_shelx_hkl_checksum              53588
_shelx_res_file
;
TITL UMD1025_a.res in P2(1)/n
REM Old TITL UMD1025 in P2(1)/n
REM SHELXT solution in P2(1)/n
REM R1 0.119, Rweak 0.004, Alpha 0.021, Orientation as input
REM Formula found by SHELXT: C9 N O2
CELL 0.71073 7.8114 3.8832 24.3618 90 99.055 90
ZERR 4 0.001 0.0004 0.0031 0 0.005 0
LATT 1
SYMM 0.5-X,0.5+Y,0.5-Z
SFAC C H N O
UNIT 36 28 4 8
EQIV $1 1-X,-Y,1-Z
DFIX 0.87 0.01 N1 H1
L.S. 10
PLAN  5
SIZE 0.04 0.18 0.19
TEMP -73.15
HTAB N1 O1_$1
BOND $H
CONF
LIST 6
HTAB 2
MORE -1
fmap 2
acta 50
HTAB
OMIT 1 0 1
OMIT 0 0 4
REM <olex2.extras>
REM <HklSrc "%.\\UMD1025_a.hkl">
REM </olex2.extras>
WGHT    0.036000    0.384100
EXTI    0.035019
FVAR       0.97240
O1    4    0.718626   -0.039047    0.542543    11.00000    0.02674    0.04633 =
         0.02929   -0.00978    0.00623    0.00716
O2    4    0.861869    0.188240    0.656013    11.00000    0.02400    0.05227 =
         0.03263   -0.00133   -0.00007    0.00669
N1    3    0.477675    0.251802    0.562579    11.00000    0.02171    0.03070 =
         0.02081   -0.00268    0.00232    0.00186
H1    2    0.408586    0.206145    0.531566    11.00000   -1.20000
C1    1    0.641616    0.132042    0.572969    11.00000    0.02087    0.02824 =
         0.02575    0.00033    0.00613    0.00130
C2    1    0.715782    0.248865    0.633410    11.00000    0.02330    0.02730 =
         0.02433    0.00224    0.00449    0.00054
C3    1    0.571865    0.426479    0.652994    11.00000    0.02347    0.02257 =
         0.02265    0.00126    0.00515   -0.00079
C4    1    0.554573    0.570330    0.704127    11.00000    0.03021    0.02819 =
         0.02332   -0.00073    0.00365   -0.00221
AFIX  43
H4    2    0.649111    0.572968    0.733886    11.00000   -1.20000
AFIX   0
C5    1    0.395799    0.709404    0.710401    11.00000    0.03929    0.02796 =
         0.02633   -0.00331    0.01331    0.00017
AFIX  43
H5    2    0.380435    0.808871    0.744919    11.00000   -1.20000
AFIX   0
C6    1    0.258479    0.704513    0.666476    11.00000    0.02900    0.02426 =
         0.03563    0.00125    0.01457    0.00338
AFIX  43
H6    2    0.151453    0.804879    0.671855    11.00000   -1.20000
AFIX   0
C7    1    0.270779    0.558305    0.614646    11.00000    0.02372    0.02125 =
         0.02937    0.00467    0.00696    0.00100
C8    1    0.430975    0.420420    0.609706    11.00000    0.02479    0.01983 =
         0.02178    0.00247    0.00772   -0.00067
C9    1    0.121362    0.547679    0.567677    11.00000    0.02426    0.03639 =
         0.03891    0.00177    0.00443    0.00632
AFIX 137
H9A   2    0.024801    0.682815    0.577615    11.00000   -1.50000
H9B   2    0.084276    0.308538    0.560581    11.00000   -1.50000
H9C   2    0.157454    0.644746    0.534168    11.00000   -1.50000
AFIX   0
HKLF 4
REM  UMD1025_a.res in P2(1)/n
REM R1 =  0.0362 for    1147 Fo > 4sig(Fo)  and  0.0452 for all    1342 data
REM    114 parameters refined using      1 restraints
END
WGHT      0.0360      0.3841
REM Instructions for potential hydrogen bonds
HTAB N1 O1_$1
REM Highest difference peak  0.200,  deepest hole -0.173,  1-sigma level  0.041
Q1    1   0.6362  0.2870  0.6502  11.00000  0.05    0.20
Q2    1   0.6856  0.1587  0.6030  11.00000  0.05    0.19
Q3    1   0.4952  0.3508  0.6376  11.00000  0.05    0.19
Q4    1   0.6531  0.4147  0.6423  11.00000  0.05    0.18
Q5    1   0.2650  0.7343  0.6312  11.00000  0.05    0.17
;
_shelx_res_checksum              52315
_shelxl_version_number           2014/6
loop_
_space_group_symop_operation_xyz
'x, y, z'
'-x+1/2, y+1/2, -z+1/2'
'-x, -y, -z'
'x-1/2, -y-1/2, z-1/2'
loop_
_atom_site_type_symbol
_atom_site_label
_atom_site_fract_x
_atom_site_fract_y
_atom_site_fract_z
_atom_site_U_iso_or_equiv
_atom_site_adp_type
_atom_site_calc_flag
_atom_site_occupancy
O O1 0.71863(14) -0.0390(3) 0.54254(4) 0.0339(3) Uani d 1
O O2 0.86187(14) 0.1882(3) 0.65601(5) 0.0368(3) Uani d 1
N N1 0.47768(16) 0.2518(4) 0.56258(5) 0.0245(3) Uani d 1
H H1 0.4086(18) 0.206(5) 0.5316(5) 0.029 Uiso d 1
C C1 0.64162(19) 0.1320(4) 0.57297(6) 0.0247(4) Uani d 1
C C2 0.71578(19) 0.2489(4) 0.63341(6) 0.0249(4) Uani d 1
C C3 0.57186(19) 0.4265(4) 0.65299(6) 0.0227(4) Uani d 1
C C4 0.5546(2) 0.5703(4) 0.70413(6) 0.0273(4) Uani d 1
H H4 0.6491 0.5730 0.7339 0.033 Uiso calc 1
C C5 0.3958(2) 0.7094(4) 0.71040(7) 0.0303(4) Uani d 1
H H5 0.3804 0.8089 0.7449 0.036 Uiso calc 1
C C6 0.2585(2) 0.7045(4) 0.66648(7) 0.0286(4) Uani d 1
H H6 0.1515 0.8049 0.6719 0.034 Uiso calc 1
C C7 0.27078(19) 0.5583(4) 0.61465(6) 0.0245(4) Uani d 1
C C8 0.43097(19) 0.4204(4) 0.60971(6) 0.0217(4) Uani d 1
C C9 0.1214(2) 0.5477(5) 0.56768(7) 0.0332(4) Uani d 1
H H9A 0.0248 0.6828 0.5776 0.050 Uiso calc 1
H H9B 0.0843 0.3085 0.5606 0.050 Uiso calc 1
H H9C 0.1575 0.6447 0.5342 0.050 Uiso calc 1
loop_
_atom_site_aniso_label
_atom_site_aniso_U_11
_atom_site_aniso_U_22
_atom_site_aniso_U_33
_atom_site_aniso_U_12
_atom_site_aniso_U_13
_atom_site_aniso_U_23
O1 0.0267(6) 0.0463(8) 0.0293(6) 0.0072(5) 0.0062(5) -0.0098(5)
O2 0.0240(6) 0.0523(8) 0.0326(6) 0.0067(6) -0.0001(5) -0.0013(6)
N1 0.0217(7) 0.0307(7) 0.0208(7) 0.0019(6) 0.0023(5) -0.0027(6)
C1 0.0209(7) 0.0282(8) 0.0258(8) 0.0013(7) 0.0061(6) 0.0003(7)
C2 0.0233(8) 0.0273(8) 0.0243(8) 0.0005(7) 0.0045(6) 0.0022(6)
C3 0.0235(8) 0.0226(8) 0.0226(8) -0.0008(6) 0.0051(6) 0.0013(6)
C4 0.0302(9) 0.0282(8) 0.0233(8) -0.0022(7) 0.0036(6) -0.0007(7)
C5 0.0393(10) 0.0280(9) 0.0263(8) 0.0002(7) 0.0133(7) -0.0033(7)
C6 0.0290(8) 0.0243(8) 0.0356(9) 0.0034(7) 0.0146(7) 0.0013(7)
C7 0.0237(8) 0.0212(8) 0.0294(8) 0.0010(6) 0.0070(6) 0.0047(6)
C8 0.0248(8) 0.0198(8) 0.0218(7) -0.0007(6) 0.0077(6) 0.0025(6)
C9 0.0243(8) 0.0364(10) 0.0389(10) 0.0063(7) 0.0044(7) 0.0018(8)
loop_
_atom_type_symbol
_atom_type_description
_atom_type_scat_dispersion_real
_atom_type_scat_dispersion_imag
_atom_type_scat_source
C C 0.0033 0.0016 'International Tables Vol C Tables 4.2.6.8 and 6.1.1.4'
H H 0.0000 0.0000 'International Tables Vol C Tables 4.2.6.8 and 6.1.1.4'
N N 0.0061 0.0033 'International Tables Vol C Tables 4.2.6.8 and 6.1.1.4'
O O 0.0106 0.0060 'International Tables Vol C Tables 4.2.6.8 and 6.1.1.4'
loop_
_geom_angle_atom_site_label_1
_geom_angle_atom_site_label_2
_geom_angle_atom_site_label_3
_geom_angle
C1 N1 H1 122.1(11)
C1 N1 C8 111.40(12)
C8 N1 H1 126.2(11)
O1 C1 N1 128.12(14)
O1 C1 C2 125.78(13)
N1 C1 C2 106.09(12)
O2 C2 C1 123.77(14)
O2 C2 C3 131.48(15)
C3 C2 C1 104.74(12)
C4 C3 C2 132.06(14)
C4 C3 C8 120.39(14)
C8 C3 C2 107.47(13)
C3 C4 H4 121.0
C5 C4 C3 118.09(14)
C5 C4 H4 121.0
C4 C5 H5 119.8
C4 C5 C6 120.40(15)
C6 C5 H5 119.8
C5 C6 H6 118.5
C5 C6 C7 123.01(15)
C7 C6 H6 118.5
C6 C7 C9 122.86(14)
C8 C7 C6 115.23(14)
C8 C7 C9 121.90(14)
C3 C8 N1 110.23(13)
C7 C8 N1 126.90(14)
C7 C8 C3 122.87(14)
C7 C9 H9A 109.5
C7 C9 H9B 109.5
C7 C9 H9C 109.5
H9A C9 H9B 109.5
H9A C9 H9C 109.5
H9B C9 H9C 109.5
loop_
_geom_bond_atom_site_label_1
_geom_bond_atom_site_label_2
_geom_bond_distance
O1 C1 1.2219(18)
O2 C2 1.2096(18)
N1 H1 0.875(9)
N1 C1 1.348(2)
N1 C8 1.4184(19)
C1 C2 1.562(2)
C2 C3 1.461(2)
C3 C4 1.391(2)
C3 C8 1.399(2)
C4 H4 0.9500
C4 C5 1.383(2)
C5 H5 0.9500
C5 C6 1.391(2)
C6 H6 0.9500
C6 C7 1.401(2)
C7 C8 1.384(2)
C7 C9 1.501(2)
C9 H9A 0.9800
C9 H9B 0.9800
C9 H9C 0.9800
loop_
_geom_hbond_atom_site_label_D
_geom_hbond_atom_site_label_H
_geom_hbond_atom_site_label_A
_geom_hbond_site_symmetry_A
_geom_hbond_distance_DH
_geom_hbond_distance_HA
_geom_hbond_distance_DA
_geom_hbond_angle_DHA
N1 H1 O1 3_656 0.875(9) 2.026(10) 2.8907(17) 169.8(16)
loop_
_geom_torsion_atom_site_label_1
_geom_torsion_atom_site_label_2
_geom_torsion_atom_site_label_3
_geom_torsion_atom_site_label_4
_geom_torsion
O1 C1 C2 O2 2.2(3)
O1 C1 C2 C3 -176.68(16)
O2 C2 C3 C4 -2.8(3)
O2 C2 C3 C8 -179.42(17)
N1 C1 C2 O2 -179.03(16)
N1 C1 C2 C3 2.08(16)
C1 N1 C8 C3 2.46(18)
C1 N1 C8 C7 -176.57(15)
C1 C2 C3 C4 175.98(16)
C1 C2 C3 C8 -0.66(16)
C2 C3 C4 C5 -177.07(16)
C2 C3 C8 N1 -0.94(17)
C2 C3 C8 C7 178.13(14)
C3 C4 C5 C6 -0.1(2)
C4 C3 C8 N1 -178.04(14)
C4 C3 C8 C7 1.0(2)
C4 C5 C6 C7 0.9(3)
C5 C6 C7 C8 -0.7(2)
C5 C6 C7 C9 178.84(15)
C6 C7 C8 N1 178.62(14)
C6 C7 C8 C3 -0.3(2)
C8 N1 C1 O1 175.98(16)
C8 N1 C1 C2 -2.74(17)
C8 C3 C4 C5 -0.8(2)
C9 C7 C8 N1 -0.9(2)
C9 C7 C8 C3 -179.79(14)

_cod_database_fobs_code 1545567
