#------------------------------------------------------------------------------
#$Date: 2017-03-05 09:43:34 +0200 (Sun, 05 Mar 2017) $
#$Revision: 193972 $
#$URL: file:///home/coder/svn-repositories/cod/cif/1/54/55/1545508.cif $
#------------------------------------------------------------------------------
#
# This file is available in the Crystallography Open Database (COD),
# http://www.crystallography.net/. The original data for this entry
# were provided by IUCr Journals, http://journals.iucr.org/.
#
# The file may be used within the scientific community so long as
# proper attribution is given to the journal article from which the
# data were obtained.
#
data_1545508
loop_
_publ_author_name
'Ouahine, Halima'
'Ait Ali, Mustapha'
'El Firdoussi, Larbi'
'Spannenberg, Anke'
_publ_section_title
;
 5-Methylbenzo[<i>d</i>][2,1,3]selenadiazole
;
_journal_coeditor_code           RZ4011
_journal_issue                   2
_journal_name_full               IUCrData
_journal_page_first              x170226
_journal_paper_doi               10.1107/S2414314617002267
_journal_volume                  2
_journal_year                    2017
_chemical_formula_iupac          'C7 H6 N2 Se'
_chemical_formula_moiety         'C7 H6 N2 Se'
_chemical_formula_sum            'C7 H6 N2 Se'
_chemical_formula_weight         197.10
_chemical_name_systematic
;
5-Methylbenzo[<i>d</i>][2,1,3]selenadiazole
;
_space_group_crystal_system      monoclinic
_space_group_IT_number           14
_space_group_name_Hall           '-P 2ybc'
_space_group_name_H-M_alt        'P 1 21/c 1'
_symmetry_space_group_name_Hall  '-P 2ybc'
_symmetry_space_group_name_H-M   'P 1 21/c 1'
_atom_sites_solution_hydrogens   geom
_audit_creation_method           SHELXL-2014/7
_cell_angle_alpha                90
_cell_angle_beta                 96.6007(16)
_cell_angle_gamma                90
_cell_formula_units_Z            4
_cell_length_a                   10.2436(8)
_cell_length_b                   4.7669(4)
_cell_length_c                   14.1543(11)
_cell_measurement_reflns_used    6123
_cell_measurement_temperature    150(2)
_cell_measurement_theta_max      30.47
_cell_measurement_theta_min      2.90
_cell_volume                     686.58(10)
_computing_cell_refinement
;
SAINT (Bruker, 2013)
;
_computing_data_collection
;
APEX2 (Bruker, 2014)
;
_computing_data_reduction
;
SAINT (Bruker, 2013)
;
_computing_molecular_graphics
;
Mercury (Macrae <i>et al.</i>,  2006)
;
_computing_publication_material
;
publCIF (Westrip, 2010)
;
_computing_structure_refinement
;
SHELXL2014 (Sheldrick, 2015)
;
_computing_structure_solution
;
SHELXS97 (Sheldrick, 2008)
;
_diffrn_ambient_temperature      150(2)
_diffrn_detector_area_resol_mean 8.3333
_diffrn_measured_fraction_theta_full 1.000
_diffrn_measured_fraction_theta_max 1.000
_diffrn_measurement_device_type  'Bruker APEXII CCD'
_diffrn_measurement_method       '\f and \w scans'
_diffrn_radiation_type           MoK\a
_diffrn_radiation_wavelength     0.71073
_diffrn_reflns_av_R_equivalents  0.0289
_diffrn_reflns_limit_h_max       13
_diffrn_reflns_limit_h_min       -12
_diffrn_reflns_limit_k_max       6
_diffrn_reflns_limit_k_min       -6
_diffrn_reflns_limit_l_max       18
_diffrn_reflns_limit_l_min       -18
_diffrn_reflns_number            9766
_diffrn_reflns_theta_full        25.242
_diffrn_reflns_theta_max         27.978
_diffrn_reflns_theta_min         2.001
_exptl_absorpt_coefficient_mu    5.379
_exptl_absorpt_correction_T_max  0.66
_exptl_absorpt_correction_T_min  0.41
_exptl_absorpt_correction_type   multi-scan
_exptl_absorpt_process_details
;
(SADABS; Bruker, 2014)
;
_exptl_crystal_colour            colourless
_exptl_crystal_density_diffrn    1.907
_exptl_crystal_description       needle
_exptl_crystal_F_000             384
_exptl_crystal_size_max          0.526
_exptl_crystal_size_mid          0.129
_exptl_crystal_size_min          0.084
_refine_diff_density_max         0.448
_refine_diff_density_min         -0.544
_refine_ls_extinction_method     none
_refine_ls_goodness_of_fit_ref   1.050
_refine_ls_hydrogen_treatment    constr
_refine_ls_matrix_type           full
_refine_ls_number_parameters     92
_refine_ls_number_reflns         1666
_refine_ls_number_restraints     0
_refine_ls_restrained_S_all      1.050
_refine_ls_R_factor_all          0.0258
_refine_ls_R_factor_gt           0.0235
_refine_ls_shift/su_max          0.001
_refine_ls_shift/su_mean         0.000
_refine_ls_structure_factor_coef Fsqd
_refine_ls_weighting_details
'w=1/[\s^2^(Fo^2^)+(0.0423P)^2^+0.3807P] where P=(Fo^2^+2Fc^2^)/3'
_refine_ls_weighting_scheme      calc
_refine_ls_wR_factor_gt          0.0644
_refine_ls_wR_factor_ref         0.0664
_reflns_number_gt                1551
_reflns_number_total             1666
_reflns_threshold_expression     'I > 2\s(I)'
_cod_data_source_file            rz4011sup1.cif
_cod_data_source_block           I
_cod_database_code               1545508
_shelx_space_group_comment
;
The symmetry employed for this shelxl refinement is uniquely defined
by the following loop, which should always be used as a source of
symmetry information in preference to the above space-group names.
They are only intended as comments.
;
_shelx_hkl_file
;
   1   0   0  215.23    9.06
   1   0   0  209.70    9.06
  -1   0   0  205.13    9.06
  -1   0   0  201.84    9.06
  -1   0   0  215.18    9.06
   1   0   0  216.87    9.06
   1   0   0  210.38    9.07
  -2   0   0  441.72   18.17
  -2   0   0  430.53   18.17
   2   0   0  447.47   18.16
   2   0   0  400.92   18.16
   2   0   0  415.57   18.19
   2   0   0  414.18   18.16
   2   0   0  409.65   18.17
   3   0   0  440.54   19.06
   3   0   0  450.65   19.05
   3   0   0  422.88   19.05
  -3   0   0  454.27   19.06
  -3   0   0  450.08   19.06
   3   0   0  445.91   19.08
  -4   0   0  460.41   19.59
   4   0   0  474.75   19.59
   4   0   0  446.56   19.57
   4   0   0  451.60   19.59
   4   0   0  446.54   19.62
  -4   0   0  460.51   19.59
   5   0   0    0.73    0.17
   5   0   0    0.95    0.10
   5   0   0    0.92    0.10
  -5   0   0    0.80    0.12
  -5   0   0    0.75    0.11
   5   0   0    1.20    0.24
   6   0   0  208.95    8.89
  -6   0   0  206.12    8.84
   6   0   0  219.09    8.81
   6   0   0  183.29    8.94
  -6   0   0  206.26    8.84
   7   0   0  199.33    9.01
   7   0   0  206.21    8.94
  -7   0   0  209.97    8.89
  -7   0   0  207.08    8.88
  -8   0   0    0.16    0.14
   8   0   0   -0.11    0.20
   8   0   0   -0.08    0.21
  -8   0   0   -0.01    0.12
   9   0   0   84.14    3.78
  -9   0   0   84.06    3.64
  -9   0   0   80.29    3.64
   9   0   0   81.90    3.73
  10   0   0   91.30    4.08
  10   0   0   88.92    4.11
  11   0   0    4.84    0.53
  12   0   0   20.26    1.22
  13   0   0   25.48    1.48
  14   0   0   24.48    1.49
   0  -1   0   -0.06    0.05
   0  -1   0    0.22    0.05
   0   1   0   -0.13    0.06
   1  -1   0  185.45    7.86
   1  -1   0  177.53    7.87
   1  -1   0  183.70    7.87
   1   1   0  184.89    7.88
  -1   1   0  188.67    7.87
  -1   1   0  180.13    7.87
   1   1   0  174.36    7.86
   1   1   0  187.03    7.88
  -1   1   0  184.80    7.87
   2  -1   0  669.16   28.02
   2  -1   0  649.43   28.00
   2  -1   0  642.34   27.98
  -2   1   0  687.17   28.01
   2   1   0  630.80   28.01
   2   1   0  653.39   28.00
  -2   1   0  646.24   28.03
  -2   1   0  680.88   28.02
   2   1   0  614.00   28.00
   3  -1   0   66.76    2.83
   3  -1   0   64.59    2.84
   3  -1   0   65.98    2.83
  -3   1   0   64.51    2.83
   3   1   0   64.42    2.84
   3   1   0   63.35    2.84
  -3   1   0   65.66    2.83
   3   1   0   62.82    2.82
   4  -1   0   67.98    2.99
   4  -1   0   67.25    3.00
   4  -1   0   68.66    2.97
   4  -1   0   66.41    2.97
   4   1   0   67.88    2.96
   4   1   0   66.11    2.98
  -4   1   0   71.32    2.98
   4   1   0   65.42    2.99
  -4   1   0   69.63    2.97
   5  -1   0  112.02    4.80
   5  -1   0  110.32    4.83
   5  -1   0  114.32    4.81
   5  -1   0  113.69    4.86
   5   1   0  108.92    4.79
  -5   1   0  109.14    4.82
   5   1   0  108.41    4.83
  -5   1   0  108.10    4.81
   5   1   0  110.14    4.84
   6  -1   0   91.33    3.97
   6  -1   0   91.55    4.01
  -6  -1   0   89.08    3.92
  -6  -1   0   87.21    3.92
   6  -1   0   95.38    4.06
   6  -1   0   95.06    3.98
   6   1   0   91.14    4.02
  -6   1   0   89.76    3.99
   6   1   0   89.15    3.95
   6   1   0   88.48    4.01
  -6   1   0   92.51    3.99
   7  -1   0   23.71    1.14
   7  -1   0   19.90    0.98
   7  -1   0   19.78    1.05
  -7  -1   0   21.07    0.94
   7  -1   0   20.30    0.98
  -7  -1   0   20.36    0.93
  -7   1   0   20.22    1.00
   7   1   0   20.16    1.05
   7   1   0   19.73    0.94
   7   1   0   21.48    1.05
  -7   1   0   21.41    1.01
   8  -1   0  170.69    8.42
   8  -1   0  202.93    8.35
   8  -1   0  190.93    8.26
   8  -1   0  190.73    8.27
  -8   1   0  189.94    8.30
  -8   1   0  199.41    8.30
   8   1   0  197.31    8.35
   8   1   0  185.58    8.34
   9  -1   0   10.86    0.58
   9  -1   0    9.94    0.58
   9  -1   0    9.81    0.71
   9  -1   0    8.97    0.78
   9   1   0   10.24    0.69
  -9   1   0   10.45    0.64
   9   1   0   11.15    0.69
  -9   1   0   11.77    0.64
  10  -1   0   24.67    1.44
  10  -1   0   24.48    1.33
 -10   1   0   25.63    1.26
 -10   1   0   26.30    1.27
  10   1   0   23.34    1.31
  11  -1   0   44.63    2.14
 -11   1   0   43.67    2.05
 -11   1   0   42.47    2.03
  11   1   0   41.40    2.11
  12  -1   0   25.56    1.39
  12   1   0   22.74    1.36
 -12   1   0   23.84    1.26
  13  -1   0    0.24    0.44
  13   1   0    0.97    0.43
  14  -1   0   18.09    1.31
  14   1   0   18.86    1.25
   0  -2   0   55.77    2.43
   0  -2   0   56.03    2.44
   0   2   0   55.19    2.47
  -1  -2   0   25.48    1.12
   1  -2   0   26.27    1.14
  -1  -2   0   25.30    1.12
   1  -2   0   24.98    1.15
   1  -2   0   24.50    1.14
  -1   2   0   24.76    1.17
   1   2   0   25.17    1.17
   2  -2   0    8.17    0.44
   2  -2   0    7.65    0.42
  -2   2   0    7.43    0.44
  -2   2   0    7.82    0.44
   2   2   0    8.13    0.45
   2   2   0    7.88    0.46
   3  -2   0    4.80    0.32
   3  -2   0    4.27    0.32
   3  -2   0    4.16    0.32
  -3   2   0    4.44    0.33
   3   2   0    4.21    0.33
   3   2   0    5.29    0.32
  -3   2   0    4.64    0.32
   3   2   0    4.68    0.34
  -3   2   0    4.63    0.33
   4  -2   0   24.38    1.19
   4  -2   0   24.04    1.18
   4  -2   0   26.51    1.20
  -4   2   0   27.29    1.21
   4   2   0   24.60    1.21
   4   2   0   25.48    1.20
   4   2   0   25.80    1.20
   5  -2   0    2.89    0.27
   5  -2   0    2.93    0.27
   5  -2   0    2.08    0.25
  -5   2   0    2.45    0.27
   5   2   0    3.09    0.29
   5   2   0    2.37    0.26
   5   2   0    2.64    0.25
  -5   2   0    2.71    0.27
   6  -2   0   31.41    1.52
   6  -2   0   31.08    1.47
   6  -2   0   30.36    1.48
   6  -2   0   31.69    1.47
   6   2   0   32.15    1.45
  -6   2   0   32.72    1.48
  -6   2   0   30.67    1.49
   6   2   0   30.68    1.49
   6   2   0   30.91    1.49
   7  -2   0   18.96    0.97
   7  -2   0   17.02    0.92
   7  -2   0   17.32    1.00
   7  -2   0   18.37    0.93
  -7   2   0   18.60    0.95
   7   2   0   17.64    0.95
   7   2   0   18.18    0.90
  -7   2   0   19.02    0.96
   7   2   0   18.34    0.97
   8  -2   0    3.33    0.42
   8  -2   0    3.30    0.34
   8  -2   0    2.79    0.31
   8  -2   0    3.05    0.38
  -8   2   0    3.66    0.37
   8   2   0    3.19    0.36
  -8   2   0    3.26    0.36
   8   2   0    3.21    0.39
   9  -2   0    0.45    0.32
   9  -2   0    0.30    0.21
   9  -2   0    0.21    0.21
   9  -2   0    0.33    0.30
  -9   2   0    0.47    0.27
   9   2   0    0.01    0.28
  -9   2   0    0.00    0.23
   9   2   0    0.28    0.23
  10  -2   0    5.32    0.44
  10  -2   0    5.74    0.65
  10  -2   0    5.11    0.43
  10  -2   0    5.51    0.56
  10   2   0    4.24    0.51
 -10   2   0    4.22    0.45
 -10   2   0    4.41    0.47
  11  -2   0   -0.19    0.35
 -11   2   0   -0.06    0.27
  11   2   0    0.28    0.34
 -11   2   0   -0.21    0.28
  12  -2   0    2.83    0.52
  12   2   0    3.72    0.54
 -12   2   0    2.88    0.45
  13  -2   0    9.22    0.84
 -13   2   0    7.75    0.69
  13   2   0    7.09    0.74
   0  -3   0    0.35    0.14
   0  -3   0   -0.06    0.12
   0   3   0   -0.07    0.17
  -1  -3   0   75.47    3.29
   1  -3   0   76.02    3.31
  -1  -3   0   74.27    3.29
   1  -3   0   74.50    3.31
   1  -3   0   75.84    3.29
  -1   3   0   73.79    3.35
   1   3   0   75.83    3.36
   2  -3   0    0.65    0.17
  -2  -3   0    0.84    0.13
   2  -3   0    1.06    0.18
   2  -3   0    0.98    0.18
  -2  -3   0    1.30    0.14
  -2   3   0    0.84    0.20
   2   3   0    0.92    0.22
   2   3   0    0.62    0.22
   3  -3   0    4.07    0.33
   3  -3   0    4.13    0.33
   3  -3   0    3.52    0.32
  -3  -3   0    3.91    0.25
   3   3   0    3.77    0.36
   3   3   0    4.50    0.40
  -3   3   0    4.33    0.37
   4  -3   0   19.03    1.00
   4  -3   0   19.34    0.98
   4   3   0   20.73    1.02
   4   3   0   19.79    1.03
  -4   3   0   19.83    1.00
   5  -3   0   24.30    1.19
   5  -3   0   22.72    1.19
   5  -3   0   24.39    1.21
   5   3   0   24.78    1.22
  -5   3   0   24.84    1.22
   5   3   0   23.89    1.20
   5   3   0   25.18    1.24
   6  -3   0    1.51    0.28
   6  -3   0    1.31    0.27
   6  -3   0    1.43    0.27
   6   3   0    1.40    0.27
   6   3   0    1.81    0.29
  -6   3   0    1.38    0.28
   6   3   0    1.34    0.28
   7  -3   0    8.21    0.61
   7  -3   0    7.74    0.60
   7  -3   0    8.89    0.61
   7  -3   0    8.89    0.67
   7   3   0    8.37    0.62
   7   3   0    8.11    0.59
   7   3   0    8.59    0.64
  -7   3   0    8.39    0.63
   8  -3   0   13.89    0.89
   8  -3   0   12.31    0.81
   8  -3   0   13.27    0.80
   8  -3   0   11.63    0.78
   8   3   0   13.24    0.82
  -8   3   0   12.82    0.83
   8   3   0   12.68    0.84
   9  -3   0    3.11    0.45
   9  -3   0    3.21    0.41
   9  -3   0    2.94    0.40
   9  -3   0    3.13    0.49
   9   3   0    3.64    0.44
  -9   3   0    3.30    0.44
   9   3   0    2.99    0.46
  10  -3   0    0.10    0.29
  10  -3   0    0.26    0.38
  10  -3   0    0.04    0.28
  10  -3   0   -0.14    0.35
  10   3   0    0.13    0.36
 -10   3   0    0.09    0.31
  11  -3   0    2.08    0.38
  11  -3   0    2.49    0.41
  11  -3   0    2.18    0.47
  11   3   0    2.17    0.49
  12  -3   0    1.96    0.51
  12   3   0    1.84    0.52
  13  -3   0    1.44    0.51
   0  -4   0   30.53    1.41
   0  -4   0   30.27    1.44
   0  -4   0   30.25    1.44
   0   4   0   30.43    1.51
   1  -4   0   25.83    1.27
  -1  -4   0   27.50    1.29
  -1  -4   0   27.88    1.28
   1  -4   0   27.00    1.31
   1  -4   0   27.66    1.32
  -1   4   0   27.67    1.38
   1   4   0   25.58    1.37
  -2  -4   0   14.28    0.77
  -2  -4   0   15.09    0.76
   2  -4   0   14.30    0.78
   2  -4   0   15.95    0.85
   2  -4   0   15.28    0.83
  -2   4   0   14.84    0.87
   2   4   0   15.66    0.89
   3  -4   0   70.36    3.16
   3  -4   0   70.58    3.12
   3  -4   0   70.01    3.17
  -3   4   0   70.57    3.19
   3   4   0   68.25    3.20
   4  -4   0   36.95    1.66
   4  -4   0   32.66    1.60
   4  -4   0   34.10    1.64
   4   4   0   32.34    1.69
   4   4   0   32.58    1.67
  -4   4   0   34.39    1.66
   5  -4   0    0.39    0.26
   5  -4   0    0.58    0.28
   5  -4   0    0.22    0.23
   5   4   0    0.45    0.27
   5   4   0    0.42    0.28
   6  -4   0   81.56    3.75
   6  -4   0   82.79    3.77
   6  -4   0   86.08    3.73
   6   4   0   84.93    3.78
   6   4   0   79.79    3.80
   7  -4   0   44.48    2.20
   7  -4   0   49.16    2.22
   7  -4   0   46.45    2.23
   7   4   0   47.72    2.23
   7   4   0   44.42    2.25
   8  -4   0   -0.19    0.35
   8  -4   0   -0.04    0.30
   8  -4   0   -0.04    0.30
   8  -4   0   -0.08    0.31
   8   4   0    0.11    0.30
   9  -4   0   21.87    1.29
   9  -4   0   22.24    1.27
   9  -4   0   22.15    1.27
   9  -4   0   23.98    1.42
   9   4   0   24.61    1.43
  10  -4   0   16.91    1.25
  10  -4   0   18.05    1.11
  10  -4   0   19.38    1.14
  10  -4   0   17.42    1.12
  11  -4   0    1.74    0.51
  11  -4   0    0.96    0.43
  11  -4   0    2.00    0.45
   0  -5   0    0.00    0.24
   0  -5   0   -0.23    0.24
   0   5   0    0.06    0.32
   1  -5   0   62.85    2.82
  -1  -5   0   61.46    2.79
   1  -5   0   64.48    2.83
   1   5   0   57.34    2.89
  -1   5   0   59.63    2.89
   2  -5   0   85.08    3.63
   2  -5   0   80.19    3.61
  -2   5   0   77.01    3.67
   2   5   0   75.69    3.67
   3  -5   0   -0.13    0.29
   3  -5   0   -0.21    0.28
   3   5   0   -0.17    0.32
  -3   5   0    0.05    0.32
   4  -5   0   33.24    1.69
   4  -5   0   32.85    1.66
   4   5   0   32.33    1.72
   5  -5   0   59.11    2.77
   5  -5   0   59.79    2.79
   5   5   0   57.52    2.81
   6  -5   0   10.48    0.82
   6  -5   0   11.76    0.85
   6   5   0   10.19    0.85
   7  -5   0    7.10    0.67
   7  -5   0    8.86    0.73
   7   5   0    7.72    0.72
   8  -5   0   28.54    1.54
   8  -5   0   27.27    1.68
   8  -5   0   28.38    1.56
   8   5   0   27.20    1.58
   9  -5   0   13.08    1.17
   9  -5   0   15.48    1.08
   0   6   0   35.69    1.93
   1  -6   0    2.35    0.42
   1  -6   0    1.96    0.43
  -1   6   0    1.23    0.48
   1   6   0    1.82    0.50
   2  -6   0    5.07    0.55
   2  -6   0    3.92    0.54
  -2   6   0    4.80    0.63
   2   6   0    5.47    0.67
   3  -6   0   12.00    0.99
   3  -6   0   13.94    0.96
   3   6   0   12.41    1.03
   4  -6   0   10.73    0.88
   4  -6   0   11.47    0.94
   4   6   0    9.73    0.89
   5  -6   0    0.12    0.45
   5  -6   0    0.16    0.41
   5   6   0    0.17    0.43
   6  -6   0   12.29    0.95
   6   6   0    9.89    0.91
  14   0  -1    0.87    0.49
  13   0  -1   -0.17    0.39
  12   0  -1   -0.17    0.35
  11   0  -1    0.05    0.31
 -10   0   1    0.27    0.21
  10   0  -1    0.09    0.29
   9   0  -1    0.06    0.24
   9   0  -1   -0.06    0.22
  -9   0   1    0.06    0.15
  -9   0   1   -0.02    0.16
   8   0  -1   -0.06    0.18
  -8   0   1    0.14    0.14
   8   0  -1    0.32    0.22
  -8   0   1    0.17    0.13
   7   0  -1    0.13    0.19
  -7   0   1   -0.28    0.11
  -7   0   1   -0.08    0.11
   7   0  -1   -0.14    0.17
   6   0  -1   -0.07    0.06
  -6   0   1   -0.05    0.09
  -6   0   1   -0.08    0.09
   6   0  -1   -0.10    0.14
   6   0  -1   -0.10    0.06
   6   0  -1   -0.01    0.15
   5   0  -1   -0.26    0.13
   5   0  -1    0.03    0.06
  -5   0   1    0.00    0.08
   5   0  -1   -0.05    0.06
  -5   0   1   -0.11    0.08
   5   0  -1   -0.13    0.12
   4   0  -1   -0.24    0.05
  -4   0   1   -0.17    0.07
   4   0  -1   -0.25    0.05
   4   0  -1   -0.11    0.13
   4   0  -1   -0.11    0.11
  -4   0   1   -0.21    0.07
  -3   0   1   -0.05    0.05
   3   0  -1    0.19    0.05
   3   0  -1    0.02    0.08
   3   0  -1    0.13    0.05
  -3   0   1    0.02    0.06
   3   0  -1    0.00    0.11
   2   0  -1   -0.40    0.04
  -2   0   1   -0.33    0.05
   2   0  -1   -0.06    0.10
  -2   0   1   -0.33    0.05
   2   0  -1   -0.08    0.07
   2   0  -1   -0.31    0.05
   2   0  -1   -0.27    0.08
  -1   0   1    0.05    0.05
   1   0  -1   -0.05    0.03
  -1   0   1   -0.02    0.03
   1   0  -1   -0.02    0.03
   1   0  -1   -0.04    0.03
   1   0  -1    0.03    0.03
  -1   0   1    0.01    0.03
   0   0   1   -0.13    0.06
   0   0   1   -0.11    0.06
   0   0   1   -0.01    0.06
   1   0   1   -0.41    0.06
   2   0   1   -0.02    0.07
   2   0   1    0.05    0.07
   2   0   1    0.01    0.05
   2   0   1   -0.01    0.13
  -2   0  -1    0.07    0.05
   2   0   1   -0.01    0.05
  -2   0  -1    0.04    0.04
   3   0   1   -0.30    0.06
   3   0   1   -0.11    0.07
   3   0   1   -0.35    0.09
  -3   0  -1   -0.29    0.05
  -3   0  -1   -0.22    0.06
   3   0   1   -0.27    0.06
   3   0   1   -0.36    0.15
   4   0   1   -0.17    0.07
   4   0   1   -0.15    0.07
  -4   0  -1   -0.10    0.07
   4   0   1   -0.09    0.07
   4   0   1   -0.14    0.11
  -4   0  -1   -0.15    0.07
   4   0   1    0.08    0.17
   5   0   1    0.04    0.13
  -5   0  -1   -0.07    0.08
  -5   0  -1    0.00    0.07
   5   0   1   -0.01    0.08
   5   0   1    0.01    0.08
   5   0   1    0.06    0.07
   5   0   1    0.15    0.19
   6   0   1    0.07    0.17
   6   0   1   -0.10    0.19
  -6   0  -1   -0.13    0.09
  -6   0  -1   -0.15    0.09
   6   0   1    0.02    0.09
   6   0   1    0.05    0.07
   6   0   1    0.11    0.09
  -7   0  -1   -0.04    0.11
   7   0   1    0.09    0.19
  -7   0  -1    0.10    0.11
   7   0   1   -0.17    0.20
   7   0   1    0.09    0.08
   8   0   1   -0.17    0.24
  -8   0  -1   -0.21    0.12
  -8   0  -1    0.00    0.13
   8   0   1    0.26    0.23
   9   0   1    0.33    0.27
  -9   0  -1   -0.26    0.14
   9   0   1    0.09    0.26
  -9   0  -1    0.09    0.17
  10   0   1   -0.01    0.28
  10   0   1    0.02    0.29
  11   0   1    0.06    0.33
  12   0   1    0.02    0.38
  13   0   1   -0.10    0.42
  14   0   1    0.29    0.47
  14  -1  -1    1.30    0.54
  14   1  -1    1.53    0.48
  13  -1  -1    5.42    0.66
  13   1  -1    5.02    0.61
  12  -1  -1    2.55    0.51
 -12   1   1    2.72    0.45
  12   1  -1    2.64    0.47
 -12   1   1    2.20    0.37
  11  -1  -1   12.11    0.87
 -11   1   1   11.98    0.76
 -11   1   1   12.94    0.78
  11   1  -1   12.66    0.85
  10  -1  -1   23.10    1.25
 -10   1   1   23.17    1.18
  10   1  -1   21.85    1.23
 -10   1   1   23.48    1.17
   9  -1  -1    3.80    0.30
   9  -1  -1    3.58    0.42
   9  -1  -1    3.82    0.48
   9  -1  -1    4.10    0.31
   9   1  -1    4.08    0.42
  -9   1   1    4.00    0.36
   9   1  -1    3.86    0.37
  -9   1   1    3.84    0.36
   8  -1  -1    3.85    0.40
   8  -1  -1    3.57    0.29
   8  -1  -1    3.41    0.28
   8  -1  -1    3.08    0.42
  -8   1   1    3.46    0.32
  -8   1   1    2.90    0.31
   8   1  -1    3.45    0.36
   8   1  -1    3.60    0.33
   7  -1  -1   22.13    1.13
  -7  -1   1   21.40    0.96
   7  -1  -1   21.06    1.08
   7  -1  -1   20.18    1.01
   7  -1  -1   22.07    1.02
  -7  -1   1   21.21    0.97
  -7   1   1   21.88    1.04
   7   1  -1   21.60    1.05
   7   1  -1   21.37    0.97
  -7   1   1   21.07    1.04
   7   1  -1   21.38    1.07
   6  -1  -1   19.35    0.88
   6  -1  -1   18.53    0.95
  -6  -1   1   17.19    0.83
   6  -1  -1   20.00    0.94
   6  -1  -1   19.12    0.89
  -6  -1   1   17.76    0.83
   6   1  -1   19.04    0.85
  -6   1   1   19.14    0.90
   6   1  -1   18.42    0.91
  -6   1   1   19.56    0.91
   6   1  -1   17.06    0.92
   5  -1  -1    7.89    0.43
   5  -1  -1    7.71    0.42
   5  -1  -1    8.05    0.46
   5  -1  -1    7.89    0.46
   5   1  -1    7.68    0.40
   5   1  -1    7.05    0.44
  -5   1   1    8.47    0.44
   5   1  -1    7.47    0.43
  -5   1   1    7.53    0.44
   4  -1  -1  151.91    6.54
   4  -1  -1  150.32    6.53
   4  -1  -1  146.82    6.54
   4  -1  -1  154.16    6.53
   4   1  -1  154.37    6.51
  -4   1   1  153.30    6.54
   4   1  -1  148.59    6.53
  -4   1   1  148.01    6.53
   4   1  -1  150.64    6.53
   3  -1  -1  122.82    5.34
   3  -1  -1  121.91    5.34
   3  -1  -1  120.43    5.33
  -3   1   1  124.46    5.34
  -3   1   1  127.34    5.32
   3   1  -1  125.11    5.34
   3   1  -1  119.65    5.34
   3   1  -1  125.09    5.33
   2  -1  -1  359.03   15.94
   2  -1  -1  373.87   15.95
   2  -1  -1  368.55   15.94
   2   1  -1  370.19   15.95
  -2   1   1  370.67   15.94
  -2   1   1  371.43   15.94
   2   1  -1  378.15   15.94
   2   1  -1  369.00   15.93
  -2   1   1  378.18   15.95
  -1  -1   1  116.96    5.22
  -1  -1   1  117.41    5.22
   1  -1  -1  120.90    5.25
   1   1  -1  122.82    5.23
  -1   1   1  120.54    5.25
  -1   1   1  121.10    5.25
   1   1  -1  128.38    5.26
   1   1  -1  122.16    5.25
  -1   1   1  122.73    5.25
   0  -1   1   10.00    0.46
   0  -1   1   10.35    0.46
   0  -1   1    9.65    0.44
   0   1   1   10.30    0.49
   0   1   1    9.82    0.48
   0   1   1    9.77    0.46
   0   1   1    9.84    0.46
   1  -1   1    0.88    0.10
   1  -1   1    0.86    0.10
   1  -1   1    0.99    0.09
   1   1   1    0.81    0.10
   1   1   1    0.95    0.11
   1   1   1    1.27    0.12
   2  -1   1  116.76    4.98
   2  -1   1  118.15    4.98
   2  -1   1  117.77    4.97
   2   1   1  115.13    4.98
   2   1   1  111.31    4.99
  -2   1  -1  114.15    4.98
   2   1   1  112.73    4.99
   3  -1   1  137.01    5.98
   3  -1   1  144.68    5.98
   3  -1   1  139.77    5.98
   3  -1   1  135.73    6.01
  -3   1  -1  133.82    5.98
   3   1   1  140.72    5.98
  -3   1  -1  134.60    5.98
   3   1   1  135.03    6.00
   3   1   1  142.90    6.00
   4  -1   1   30.65    1.36
   4  -1   1   29.40    1.37
   4  -1   1   30.33    1.40
   4  -1   1   29.77    1.35
   4   1   1   28.98    1.37
  -4   1  -1   28.93    1.36
  -4   1  -1   30.07    1.36
   4   1   1   30.55    1.35
   4   1   1   30.30    1.39
   5  -1   1  141.91    6.09
  -5  -1  -1  141.60    6.03
  -5  -1  -1  142.91    6.04
   5  -1   1  141.61    6.16
   5  -1   1  135.87    6.11
   5  -1   1  145.00    6.09
   5   1   1  142.89    6.14
  -5   1  -1  138.25    6.10
   5   1   1  140.56    6.12
   5   1   1  136.92    6.08
  -5   1  -1  137.54    6.09
   6  -1   1   86.66    3.76
   6  -1   1   89.59    3.87
   6  -1   1   88.00    3.76
  -6  -1  -1   83.18    3.71
  -6  -1  -1   85.27    3.71
   6  -1   1   85.25    3.80
   6   1   1   83.19    3.74
  -6   1  -1   84.88    3.77
  -6   1  -1   84.10    3.77
   6   1   1   89.17    3.84
   6   1   1   85.94    3.80
   7  -1   1    2.26    0.29
   7  -1   1    1.94    0.36
   7  -1   1    2.83    0.25
   7  -1   1    2.27    0.23
  -7  -1  -1    2.36    0.18
   7  -1   1    2.53    0.23
  -7  -1  -1    2.24    0.18
   7   1   1    2.32    0.31
   7   1   1    2.12    0.20
  -7   1  -1    2.01    0.24
  -7   1  -1    2.00    0.24
   7   1   1    2.99    0.33
   8  -1   1   12.88    0.93
   8  -1   1   14.08    0.73
   8  -1   1   15.59    0.84
   8  -1   1   15.05    0.73
   8   1   1   12.59    0.81
   8   1   1   14.20    0.85
  -8   1  -1   14.51    0.76
  -8   1  -1   14.22    0.77
   9  -1   1   40.06    1.85
   9  -1   1   39.73    1.81
   9  -1   1   37.91    1.74
   9  -1   1   32.39    1.94
  -9   1  -1   39.02    1.78
   9   1   1   37.57    1.87
   9   1   1   37.57    1.84
  -9   1  -1   38.99    1.79
  10  -1   1    9.11    0.80
  10  -1   1    8.89    0.71
 -10   1  -1    8.87    0.61
  10   1   1    8.11    0.68
 -10   1  -1    8.24    0.59
  10   1   1    7.60    0.67
  11  -1   1    0.83    0.38
  11  -1   1    1.04    0.47
 -11   1  -1    0.75    0.27
 -11   1  -1    0.49    0.27
  11   1   1    1.03    0.37
  12  -1   1   21.97    1.31
  12   1   1   21.47    1.28
  13  -1   1   13.66    1.00
  13   1   1    9.79    0.89
  14  -1   1    0.19    0.52
  14   1   1    0.67    0.47
  13  -2  -1    4.46    0.63
  13   2  -1    5.72    0.64
 -13   2   1    3.92    0.54
 -13   2   1    4.64    0.53
  12  -2  -1   35.87    1.88
 -12   2   1   35.02    1.81
  12   2  -1   35.19    1.85
 -12   2   1   35.90    1.80
  11  -2  -1   24.46    1.36
 -11   2   1   24.96    1.30
  11   2  -1   21.33    1.32
 -11   2   1   25.73    1.33
  10  -2  -1    3.73    0.49
  10  -2  -1    3.95    0.38
  10  -2  -1    3.96    0.57
  10  -2  -1    3.78    0.37
 -10   2   1    4.35    0.46
  10   2  -1    3.04    0.45
 -10   2   1    4.54    0.44
   9  -2  -1   73.52    3.39
   9  -2  -1   71.86    3.26
   9  -2  -1   72.45    3.34
   9  -2  -1   71.68    3.27
  -9   2   1   74.13    3.31
  -9   2   1   76.69    3.32
   9   2  -1   73.07    3.34
   9   2  -1   70.93    3.33
   8  -2  -1   55.83    2.65
   8  -2  -1   60.19    2.70
   8  -2  -1   57.44    2.60
   8  -2  -1   55.62    2.61
   8   2  -1   60.85    2.66
  -8   2   1   54.75    2.62
  -8   2   1   60.74    2.65
   8   2  -1   55.69    2.62
   7  -2  -1    0.14    0.21
   7  -2  -1    0.01    0.22
   7  -2  -1    0.15    0.18
   7  -2  -1   -0.09    0.17
  -7   2   1    0.03    0.19
   7   2  -1    0.05    0.20
   7   2  -1   -0.19    0.14
  -7   2   1   -0.01    0.17
   7   2  -1   -0.03    0.17
   6  -2  -1   93.72    4.11
   6  -2  -1   92.10    4.11
   6  -2  -1   93.71    4.13
   6  -2  -1   91.80    4.15
  -6   2   1   92.78    4.13
   6   2  -1   94.30    4.10
   6   2  -1   95.41    4.13
  -6   2   1   94.04    4.12
   6   2  -1   92.28    4.12
   5  -2  -1  193.22    8.14
   5  -2  -1  187.29    8.15
   5  -2  -1  185.58    8.15
  -5   2   1  183.74    8.15
  -5   2   1  190.79    8.12
   5   2  -1  184.01    8.15
  -5   2   1  187.75    8.15
   5   2  -1  189.10    8.14
   5   2  -1  188.77    8.15
   4  -2  -1   27.84    1.31
   4  -2  -1   27.10    1.31
   4   2  -1   27.65    1.31
  -4   2   1   29.36    1.32
   4   2  -1   28.58    1.31
   4   2  -1   28.21    1.32
  -4   2   1   28.33    1.30
   3  -2  -1  202.29    8.80
   3  -2  -1  201.19    8.80
   3  -2  -1  199.29    8.80
   3   2  -1  200.61    8.82
   3   2  -1  203.16    8.79
  -3   2   1  202.14    8.81
  -3   2   1  209.98    8.80
   3   2  -1  211.96    8.81
  -3   2   1  202.43    8.80
   2  -2  -1  347.46   15.19
  -2  -2   1  362.21   15.15
   2  -2  -1  350.14   15.20
   2  -2  -1  340.42   15.19
  -2  -2   1  351.91   15.15
   2   2  -1  353.52   15.21
  -2   2   1  358.68   15.20
   2   2  -1  351.77   15.22
  -2   2   1  347.02   15.20
  -2   2   1  368.35   15.20
  -1  -2   1   34.95    1.53
   1  -2  -1   35.36    1.56
   1  -2  -1   34.32    1.55
  -1  -2   1   34.38    1.53
   1  -2  -1   33.88    1.56
  -1   2   1   35.33    1.56
  -1   2   1   34.54    1.58
  -1   2   1   35.67    1.55
   1   2  -1   34.90    1.58
   0  -2   1   43.24    1.90
   0  -2   1   42.97    1.89
   0  -2  -1   43.99    1.89
   0  -2  -1   43.95    1.90
   0  -2   1   41.49    1.88
   0   2   1   42.78    1.94
   0   2  -1   41.97    1.93
   1  -2   1  256.97   11.18
   1  -2   1  254.28   11.18
   1  -2   1  260.40   11.17
   1   2   1  263.05   11.21
   1   2   1  263.73   11.22
   2  -2   1  169.59    7.24
   2  -2   1  164.87    7.25
   2  -2   1  162.64    7.25
   2   2   1  167.40    7.27
  -2   2  -1  171.42    7.27
   2   2   1  170.16    7.29
   3  -2   1    0.11    0.12
   3  -2   1    0.44    0.13
   3  -2   1    0.29    0.13
   3   2   1    0.14    0.14
   3   2   1    0.01    0.12
   3   2   1    0.39    0.15
   4  -2   1  267.49   11.65
   4  -2   1  270.93   11.66
   4  -2   1  266.84   11.66
  -4   2  -1  268.51   11.67
   4   2   1  275.81   11.67
   4   2   1  269.94   11.69
   4   2   1  271.26   11.68
   5  -2   1  135.47    5.98
   5  -2   1  134.82    5.98
   5  -2   1  141.56    6.03
   5  -2   1  140.36    5.99
   5   2   1  142.36    6.01
   5   2   1  134.55    6.01
   5   2   1  136.71    5.98
  -5   2  -1  131.76    5.98
   6  -2   1   19.75    1.02
   6  -2   1   19.37    0.96
   6  -2   1   17.90    0.96
   6  -2   1   18.54    0.96
   6   2   1   19.21    0.99
   6   2   1   18.67    0.94
   6   2   1   19.31    0.99
  -6   2  -1   19.84    0.97
  -6   2  -1   19.42    0.98
   7  -2   1   62.19    2.84
   7  -2   1   63.16    2.93
   7  -2   1   61.91    2.87
   7  -2   1   63.73    2.85
   7   2   1   64.76    2.83
  -7   2  -1   62.91    2.86
   7   2   1   61.26    2.89
  -7   2  -1   67.18    2.88
   7   2   1   63.11    2.90
   8  -2   1   52.25    2.41
   8  -2   1   49.07    2.35
   8  -2   1   51.41    2.36
   8  -2   1   53.56    2.49
   8   2   1   50.90    2.42
  -8   2  -1   51.57    2.39
  -8   2  -1   53.14    2.38
   8   2   1   51.48    2.42
   9  -2   1    4.99    0.58
   9  -2   1    6.41    0.55
   9  -2   1    5.66    0.45
   9  -2   1    4.97    0.43
   9   2   1    5.59    0.54
   9   2   1    5.97    0.55
  -9   2  -1    5.91    0.51
  10  -2   1   36.14    1.70
  10  -2   1   35.64    1.71
  10  -2   1   34.51    1.93
  10  -2   1   37.18    1.81
  10   2   1   34.83    1.80
 -10   2  -1   39.19    1.78
  10   2   1   33.20    1.80
  11  -2   1   34.55    2.13
  11  -2   1   43.86    2.04
  11   2   1   38.93    2.03
 -11   2  -1   42.75    1.98
  12  -2   1    0.44    0.43
  12   2   1    0.58    0.41
  13  -2   1    5.79    0.70
  13   2   1    5.59    0.67
  13  -3  -1   10.53    0.91
  12  -3  -1    5.86    0.68
 -12   3   1    5.78    0.63
  11  -3  -1   13.84    0.91
  11  -3  -1   15.88    1.04
  11  -3  -1   14.76    0.90
 -11   3   1   13.40    0.98
  11   3  -1   13.60    1.08
  10  -3  -1   51.30    2.40
  10  -3  -1   53.76    2.53
  10  -3  -1   48.39    2.38
  10  -3  -1   50.82    2.45
 -10   3   1   49.66    2.44
 -10   3   1   51.25    2.43
  10   3  -1   50.49    2.48
   9  -3  -1   18.80    1.12
   9  -3  -1   20.26    1.12
   9  -3  -1   19.95    1.21
   9  -3  -1   21.32    1.17
  -9   3   1   21.53    1.15
  -9   3   1   22.02    1.18
   9   3  -1   21.87    1.21
   8  -3  -1   20.70    1.15
   8  -3  -1   21.29    1.18
   8  -3  -1   22.17    1.17
   8  -3  -1   23.27    1.25
  -8   3   1   21.74    1.18
   8   3  -1   23.08    1.22
   8   3  -1   21.59    1.17
  -8   3   1   22.97    1.20
   7  -3  -1   96.06    4.49
   7  -3  -1  105.20    4.51
   7  -3  -1  100.44    4.56
   7  -3  -1   96.05    4.50
   7   3  -1  101.97    4.52
   7   3  -1  103.63    4.49
  -7   3   1  104.67    4.53
   7   3  -1   99.19    4.52
  -7   3   1  104.04    4.51
   6  -3  -1   66.98    3.13
   6  -3  -1   68.08    3.13
   6  -3  -1   70.66    3.14
  -6   3   1   69.98    3.14
  -6   3   1   71.81    3.16
   6   3  -1   68.79    3.15
   6   3  -1   70.24    3.14
   6   3  -1   69.53    3.13
   5  -3  -1   15.05    0.81
   5  -3  -1   14.55    0.79
   5  -3  -1   15.19    0.80
  -5   3   1   15.12    0.79
   5   3  -1   14.37    0.82
  -5   3   1   13.93    0.80
   5   3  -1   13.96    0.80
   5   3  -1   13.60    0.77
  -5   3   1   14.70    0.81
   4  -3  -1  239.71   10.22
   4  -3  -1  227.71   10.22
   4  -3  -1  229.90   10.20
  -4   3   1  237.57   10.22
   4   3  -1  238.14   10.23
   4   3  -1  236.38   10.25
  -4   3   1  238.22   10.22
  -4   3   1  236.37   10.21
   4   3  -1  237.07   10.19
   3  -3  -1  121.89    5.40
  -3  -3   1  123.46    5.35
   3  -3  -1  124.28    5.41
   3  -3  -1  123.30    5.42
  -3  -3   1  121.89    5.35
   3   3  -1  123.91    5.45
  -3   3   1  125.99    5.43
   3   3  -1  125.89    5.44
  -3   3   1  123.60    5.42
   2  -3  -1    2.00    0.22
   2  -3  -1    1.81    0.22
  -2  -3   1    1.52    0.16
   2  -3  -1    1.88    0.22
  -2  -3   1    1.77    0.17
  -2   3   1    1.30    0.24
   2   3  -1    1.20    0.23
   1  -3  -1  200.02    8.68
   1  -3  -1  208.15    8.68
  -1  -3   1  196.95    8.66
  -1  -3   1  199.50    8.66
   1  -3  -1  205.98    8.68
   1   3  -1  197.19    8.72
  -1   3   1  196.39    8.72
   0  -3  -1  236.68   10.09
   0  -3  -1  238.91   10.09
   0  -3   1  227.11   10.09
   0  -3   1  237.51   10.06
   0  -3   1  229.00   10.08
   0   3   1  232.87   10.14
   0   3  -1  233.89   10.14
  -1  -3  -1   33.18    1.51
   1  -3   1   32.48    1.50
   1  -3   1   33.46    1.53
   1  -3   1   32.83    1.54
  -1  -3  -1   33.60    1.51
  -1   3  -1   33.46    1.58
   1   3   1   34.28    1.59
   1   3   1   34.21    1.60
  -2  -3  -1  102.52    4.41
   2  -3   1  100.86    4.46
   2  -3   1  100.84    4.46
   2  -3   1  100.55    4.43
   2   3   1  103.40    4.52
   2   3   1  102.22    4.50
  -2   3  -1  101.30    4.49
   3  -3   1  213.49    9.30
   3  -3   1  207.76    9.32
   3  -3   1  216.43    9.32
   3   3   1  222.91    9.36
   3   3   1  210.60    9.37
  -3   3  -1  219.24    9.34
   4  -3   1    1.22    0.23
   4  -3   1    1.37    0.22
   4  -3   1    1.62    0.25
   4   3   1    1.58    0.26
   4   3   1    1.22    0.26
   5  -3   1   11.07    0.66
   5  -3   1   10.29    0.64
   5  -3   1   11.60    0.64
   5   3   1   10.56    0.69
   5   3   1   10.74    0.66
   5   3   1   10.45    0.65
   6  -3   1   71.17    3.27
   6  -3   1   73.58    3.36
   6  -3   1   73.86    3.29
   6  -3   1   71.02    3.28
   6   3   1   74.19    3.31
   6   3   1   71.66    3.32
   6   3   1   75.24    3.29
   7  -3   1   42.50    1.98
   7  -3   1   42.30    1.98
   7  -3   1   42.12    2.07
   7  -3   1   40.98    1.99
   7   3   1   42.01    1.98
   7   3   1   43.40    2.03
   7   3   1   41.15    2.02
   8  -3   1   12.36    0.80
   8  -3   1   11.14    0.88
   8  -3   1   12.72    0.78
   8  -3   1   12.90    0.80
   8   3   1   12.58    0.84
   8   3   1   13.65    0.89
   8   3   1   12.11    0.82
   9  -3   1   49.72    2.35
   9  -3   1   47.01    2.23
   9  -3   1   43.15    2.19
   9  -3   1   45.35    2.19
   9   3   1   45.65    2.25
   9   3   1   47.61    2.28
  10  -3   1   24.94    1.31
  10  -3   1   22.98    1.28
  10  -3   1   25.36    1.49
  10  -3   1   24.14    1.35
  10   3   1   24.67    1.39
  11  -3   1    1.41    0.51
  11  -3   1    0.62    0.34
  11  -3   1    1.11    0.43
  11  -3   1    0.61    0.33
  11   3   1    1.27    0.45
  12  -3   1   22.96    1.38
  12   3   1   23.13    1.43
  11  -4  -1    3.44    0.51
  11  -4  -1    3.73    0.53
  11  -4  -1    3.15    0.57
  10  -4  -1    2.42    0.47
  10  -4  -1    2.02    0.42
  10  -4  -1    2.11    0.44
  10  -4  -1    1.50    0.50
   9  -4  -1    9.23    0.78
   9  -4  -1    9.77    0.82
   9  -4  -1   12.17    0.83
   9  -4  -1   10.87    0.91
   8  -4  -1   20.86    1.14
   8  -4  -1   20.75    1.14
   8  -4  -1   18.99    1.23
   8  -4  -1   18.83    1.14
   8   4  -1   19.18    1.14
   7  -4  -1    0.57    0.31
   7  -4  -1    0.84    0.33
   7  -4  -1    0.86    0.31
   7   4  -1    0.94    0.33
   7   4  -1    0.55    0.30
   6  -4  -1   13.62    0.87
   6  -4  -1   13.59    0.83
   6  -4  -1   13.65    0.85
   6   4  -1   13.90    0.87
   6   4  -1   13.83    0.89
   5  -4  -1   27.26    1.49
   5  -4  -1   29.70    1.49
   5  -4  -1   31.95    1.48
   5   4  -1   28.69    1.51
  -5   4   1   30.67    1.50
   5   4  -1   30.63    1.53
   4  -4  -1    1.99    0.33
   4  -4  -1    2.24    0.33
   4  -4  -1    1.17    0.27
  -4   4   1    2.02    0.33
   4   4  -1    1.40    0.32
   3  -4  -1   16.75    0.92
   3  -4  -1   16.87    0.88
   3  -4  -1   16.44    0.91
  -3   4   1   16.45    0.95
   3   4  -1   16.24    0.95
   2  -4  -1   70.42    3.06
  -2  -4   1   64.08    3.01
   2  -4  -1   68.68    3.03
   2  -4  -1   69.64    3.07
  -2  -4   1   67.73    3.01
  -2   4   1   68.59    3.11
   2   4  -1   66.25    3.11
  -1  -4   1   39.33    1.86
  -1  -4   1   40.31    1.86
   1  -4  -1   42.03    1.89
   1  -4  -1   40.62    1.86
   1  -4  -1   42.37    1.90
  -1   4   1   40.40    1.95
   1   4  -1   39.90    1.95
   0  -4   1   15.39    0.83
   0  -4   1   15.36    0.77
   0  -4  -1   16.18    0.83
   0  -4  -1   15.49    0.80
   0  -4   1   15.91    0.82
   0  -4  -1   16.38    0.83
   0   4   1   15.04    0.90
   0   4  -1   15.04    0.90
   1  -4   1   68.27    2.97
  -1  -4  -1   68.40    2.94
  -1  -4  -1   64.79    2.94
   1  -4   1   67.35    2.97
   1  -4   1   64.25    2.91
   1   4   1   63.64    3.03
  -1   4  -1   65.05    3.02
   2  -4   1   37.75    1.78
   2  -4   1   39.10    1.80
  -2  -4  -1   38.36    1.73
   2  -4   1   37.99    1.73
  -2  -4  -1   36.33    1.72
  -2   4  -1   37.97    1.83
   2   4   1   37.76    1.84
   3  -4   1    0.29    0.23
   3  -4   1    0.03    0.22
   3  -4   1    0.23    0.18
   3   4   1   -0.03    0.27
  -3   4  -1    0.18    0.25
   3   4   1    0.00    0.27
   4  -4   1   47.63    2.26
   4  -4   1   49.46    2.25
   4  -4   1   48.13    2.20
   4   4   1   47.32    2.31
   4   4   1   48.65    2.29
   5  -4   1   41.60    2.01
   5  -4   1   41.89    2.03
   5  -4   1   42.24    1.97
   5   4   1   43.86    2.06
   5   4   1   42.54    2.08
   6  -4   1    1.42    0.30
   6  -4   1    1.52    0.33
   6  -4   1    0.97    0.32
   6   4   1    1.28    0.34
   6   4   1    1.53    0.37
   7  -4   1   30.03    1.53
   7  -4   1   27.98    1.51
   7  -4   1   29.54    1.64
   7  -4   1   30.63    1.51
   7   4   1   30.25    1.58
   7   4   1   30.35    1.55
   8  -4   1   14.35    0.95
   8  -4   1   14.89    0.97
   8  -4   1   15.87    1.09
   8  -4   1   15.17    0.94
   8   4   1   15.64    1.06
   8   4   1   14.03    0.99
   9  -4   1    3.51    0.47
   9  -4   1    3.60    0.59
   9  -4   1    3.01    0.47
   9  -4   1    2.54    0.44
   9   4   1    2.59    0.48
  10  -4   1   15.20    0.98
  10  -4   1   14.03    0.98
  10  -4   1   14.93    1.15
  10  -4   1   12.74    1.00
  11  -4   1   17.09    1.08
  11  -4   1   16.71    1.31
  11  -4   1   17.54    1.13
  11  -4   1   15.42    1.10
   9  -5  -1   -0.41    0.45
   9  -5  -1   -0.17    0.40
   9  -5  -1   -0.33    0.38
   8  -5  -1    3.53    0.55
   8  -5  -1    4.15    0.56
   8  -5  -1    4.03    0.63
   8  -5  -1    3.82    0.52
   7  -5  -1   -0.61    0.31
   7  -5  -1   -0.10    0.39
   7  -5  -1    0.03    0.35
   7   5  -1    0.31    0.37
   6  -5  -1    0.93    0.40
   6  -5  -1    1.51    0.40
   6  -5  -1    1.05    0.36
   6   5  -1    1.30    0.40
   5  -5  -1    0.49    0.33
   5  -5  -1    0.28    0.34
   5  -5  -1    0.03    0.31
   5   5  -1    0.03    0.33
   4  -5  -1    1.24    0.38
   4  -5  -1    0.60    0.33
  -4   5   1    1.35    0.38
   4   5  -1    1.15    0.38
   3  -5  -1    3.86    0.47
   3  -5  -1    4.78    0.51
  -3   5   1    4.66    0.53
   3   5  -1    4.22    0.54
   2  -5  -1    1.69    0.37
   2  -5  -1    2.18    0.37
   2   5  -1    2.08    0.42
  -2   5   1    1.50    0.39
  -1  -5   1    1.57    0.31
   1  -5  -1    2.36    0.36
   1  -5  -1    2.41    0.36
   1   5  -1    2.08    0.41
  -1   5   1    1.52    0.39
   0  -5   1    1.17    0.30
   0  -5  -1    1.61    0.32
   0  -5   1    2.45    0.35
   0  -5  -1    1.82    0.32
   0   5   1    1.71    0.40
   0   5  -1    1.92    0.41
  -1  -5  -1    0.60    0.28
   1  -5   1    0.50    0.28
   1  -5   1    0.21    0.28
  -1   5  -1    0.43    0.33
   1   5   1    0.23    0.33
   2  -5   1    0.74    0.32
   2  -5   1    1.19    0.32
  -2   5  -1    0.53    0.34
   2   5   1    0.26    0.32
   3  -5   1    0.06    0.30
   3  -5   1   -0.17    0.28
   3   5   1   -0.39    0.32
   4  -5   1    0.18    0.33
   4  -5   1    0.06    0.31
   4   5   1    0.42    0.36
   5  -5   1    0.88    0.38
   5  -5   1    0.40    0.33
   5   5   1    0.10    0.33
   6  -5   1    0.19    0.37
   6  -5   1    0.68    0.36
   6   5   1    0.81    0.40
   6   5   1   -0.49    0.33
   7  -5   1    1.91    0.53
   7  -5   1    2.11    0.44
   7  -5   1    1.52    0.45
   7   5   1    2.14    0.45
   7   5   1    1.72    0.48
   8  -5   1    4.39    0.57
   8  -5   1    2.75    0.49
   8  -5   1    3.01    0.62
   8   5   1    3.10    0.56
   9  -5   1    0.44    0.44
   9  -5   1    0.99    0.56
   9   5   1    1.25    0.61
   6  -6  -1    1.07    0.51
   6   6  -1    1.69    0.50
   5  -6  -1   13.57    1.05
   5  -6  -1   12.86    1.00
   5   6  -1   12.66    1.04
   4  -6  -1    0.72    0.45
   4  -6  -1    0.22    0.37
   4   6  -1    0.47    0.43
   3  -6  -1    3.88    0.54
   3  -6  -1    4.98    0.60
   3   6  -1    5.77    0.67
  -3   6   1    5.51    0.65
   2  -6  -1    8.70    0.75
   2  -6  -1    9.75    0.75
  -2   6   1    8.32    0.80
   2   6  -1    8.07    0.80
   1  -6  -1   -0.30    0.32
   1  -6  -1    0.50    0.36
  -1   6   1   -0.10    0.40
   1   6  -1    0.74    0.44
   0   6  -1    7.90    0.76
   0   6   1    7.14    0.74
   1  -6   1    4.08    0.54
   1  -6   1    3.80    0.50
   1   6   1    4.77    0.62
   2  -6   1    7.14    0.66
   2  -6   1    7.03    0.64
   2   6   1    6.43    0.73
   3  -6   1    5.02    0.62
   3  -6   1    5.96    0.62
   3   6   1    5.22    0.67
   4  -6   1   15.17    1.08
   4  -6   1   14.74    1.02
   4   6   1   12.97    1.09
   5  -6   1    3.39    0.55
   5  -6   1    2.36    0.53
   5   6   1    2.74    0.56
   6  -6   1    1.11    0.50
   6   6   1    1.25    0.50
  14   0  -2   37.15    2.01
  13   0  -2   21.52    1.31
  12   0  -2    0.21    0.35
  11   0  -2    3.45    0.46
 -10   0   2  122.06    5.28
  10   0  -2  117.30    5.33
   9   0  -2   26.03    1.29
  -9   0   2   24.87    1.20
  -9   0   2   25.19    1.21
   8   0  -2  150.96    6.59
   8   0  -2  149.91    6.58
  -8   0   2  146.83    6.52
  -8   0   2  153.40    6.52
   7   0  -2  215.55    9.44
   7   0  -2  214.65    9.44
  -7   0   2  215.78    9.39
  -7   0   2  223.90    9.39
  -6   0   2    5.00    0.31
   6   0  -2    4.65    0.37
   6   0  -2    5.66    0.27
   6   0  -2    5.35    0.27
  -6   0   2    4.87    0.32
   6   0  -2    5.53    0.38
  -5   0   2  235.28    9.94
   5   0  -2  225.76    9.97
   5   0  -2  219.24    9.97
   5   0  -2  233.97    9.92
   5   0  -2  236.11    9.91
  -5   0   2  234.21    9.94
  -4   0   2  341.54   14.76
  -4   0   2  349.67   14.77
   4   0  -2  302.39   14.79
   4   0  -2  361.89   14.76
   4   0  -2  362.24   14.75
   3   0  -2  164.33    6.93
  -3   0   2  161.90    6.94
   3   0  -2  160.21    6.95
   3   0  -2  163.33    6.93
  -3   0   2  156.47    6.93
  -3   0   2  158.70    6.94
   2   0  -2   40.10    1.80
  -2   0   2   43.86    1.81
   2   0  -2   38.92    1.80
   2   0  -2   41.40    1.81
  -2   0   2   42.36    1.81
   1   0  -2  190.84    8.08
  -1   0   2  183.57    8.09
  -1   0   2  191.06    8.07
  -1   0   2  184.93    8.09
   0   0   2  361.70   16.18
   0   0   2  337.89   16.16
   0   0   2  405.49   16.16
   0   0   2  400.15   16.16
   1   0   2   85.73    3.54
   1   0   2   85.49    3.55
   1   0   2   70.82    3.57
   1   0   2   83.14    3.55
   2   0   2  539.61   25.01
   2   0   2  632.03   25.01
   2   0   2  622.16   25.01
   2   0   2  618.49   25.02
   2   0   2  496.80   25.06
  -3   0  -2    8.45    0.41
   3   0   2    8.92    0.44
   3   0   2    7.81    0.45
   3   0   2    9.05    0.44
   4   0   2    1.10    0.15
  -4   0  -2    0.96    0.12
   4   0   2    1.38    0.16
   4   0   2    0.74    0.15
  -4   0  -2    0.92    0.13
   5   0   2   22.89    1.05
  -5   0  -2   21.87    1.03
   5   0   2   23.34    1.05
   5   0   2   24.47    1.22
  -5   0  -2   22.88    1.04
   5   0   2   21.27    1.08
   5   0   2   22.94    1.05
   6   0   2  241.87    9.91
  -6   0  -2  222.55    9.92
   6   0   2  228.75    9.98
   6   0   2  233.39   10.10
   6   0   2  222.19    9.91
   6   0   2  243.36    9.92
  -6   0  -2  218.67    9.92
  -7   0  -2    6.86    0.42
   7   0   2    7.89    0.64
   7   0   2    7.04    0.51
   7   0   2    7.33    0.39
  -7   0  -2    6.90    0.41
   8   0   2  100.97    4.61
  -8   0  -2  104.31    4.43
  -8   0  -2   99.31    4.43
   8   0   2   99.83    4.50
   9   0   2  167.37    7.25
   9   0   2  157.43    7.14
  -9   0  -2  162.74    7.06
  -9   0  -2  161.66    7.06
  10   0   2    6.75    0.60
  10   0   2    7.97    0.74
  11   0   2   26.55    1.47
  11   0   2   27.80    1.55
  12   0   2   40.38    2.07
  13   0   2   10.95    0.92
  14   0   2    1.36    0.51
  14  -1  -2    0.60    0.47
  14   1  -2    1.52    0.48
  13  -1  -2    5.54    0.66
  13   1  -2    5.65    0.63
  12  -1  -2   29.33    1.64
  12   1  -2   29.52    1.61
 -12   1   2   29.72    1.53
 -12   1   2   33.36    1.61
  11  -1  -2    4.87    0.55
 -11   1   2    3.89    0.43
  11   1  -2    4.14    0.49
 -11   1   2    4.50    0.42
  10  -1  -2   15.78    0.96
  10   1  -2   15.38    0.94
 -10   1   2   16.61    0.89
 -10   1   2   16.16    0.90
   9  -1  -2   25.07    1.11
   9  -1  -2   23.84    1.10
   9  -1  -2   18.78    1.24
   9  -1  -2   22.49    1.22
  -9   1   2   23.53    1.17
  -9   1   2   24.72    1.16
   9   1  -2   23.34    1.20
   8  -1  -2   28.41    1.36
   8  -1  -2   27.59    1.27
   8  -1  -2   25.22    1.39
   8  -1  -2   26.50    1.26
   8   1  -2   27.87    1.34
   8   1  -2   28.06    1.29
  -8   1   2   27.04    1.30
  -8   1   2   26.86    1.31
  -7  -1   2    6.74    0.37
   7  -1  -2    7.21    0.43
   7  -1  -2    7.74    0.52
   7  -1  -2    6.86    0.51
   7  -1  -2    7.07    0.42
  -7  -1   2    7.41    0.38
  -7   1   2    7.13    0.45
  -7   1   2    7.00    0.46
   7   1  -2    7.24    0.43
   7   1  -2    7.53    0.49
   6  -1  -2  269.54   11.55
  -6  -1   2  263.08   11.51
   6  -1  -2  277.57   11.60
  -6  -1   2  262.71   11.51
   6  -1  -2  260.90   11.59
   6  -1  -2  278.11   11.56
   6   1  -2  266.48   11.58
  -6   1   2  273.49   11.57
  -6   1   2  265.08   11.57
   6   1  -2  263.68   11.55
  -5  -1   2   61.58    2.85
   5  -1  -2   68.48    2.90
   5  -1  -2   65.26    2.91
   5  -1  -2   68.01    2.90
   5  -1  -2   65.41    2.92
  -5  -1   2   65.87    2.86
   5   1  -2   65.47    2.91
   5   1  -2   65.48    2.89
  -5   1   2   71.19    2.86
  -5   1   2   64.38    2.91
  -5   1   2   63.69    2.90
   4  -1  -2   10.34    0.53
   4  -1  -2   10.51    0.55
   4  -1  -2   10.26    0.53
  -4   1   2    9.66    0.53
  -4   1   2   10.54    0.54
   4   1  -2   10.57    0.53
  -4   1   2   11.03    0.50
   4   1  -2   11.04    0.52
   4   1  -2   10.46    0.52
   3  -1  -2   72.93    3.15
   3  -1  -2   70.70    3.13
   3   1  -2   71.51    3.13
  -3   1   2   73.39    3.12
  -3   1   2   70.50    3.14
   3   1  -2   74.76    3.13
  -3   1   2   69.79    3.14
   3   1  -2   71.68    3.13
  -2  -1   2 1000.00   41.23
  -2  -1   2  972.19   41.23
   2  -1  -2  958.64   41.27
   2  -1  -2  977.10   41.28
   2  -1  -2  908.35   41.28
  -2   1   2  968.84   41.29
   2   1  -2  949.05   41.25
   2   1  -2  953.23   41.29
  -2   1   2  972.29   41.29
  -1  -1   2  216.38    9.25
  -1  -1   2  217.41    9.26
  -1   1   2  216.79    9.27
  -1   1   2  211.70    9.27
  -1   1   2  214.81    9.28
  -1   1   2  215.76    9.28
   0  -1   2  461.81   19.82
   0  -1   2  476.28   19.85
   0  -1   2  464.54   19.85
   0   1   2  458.73   19.87
   0   1   2  462.05   19.85
   0   1   2  453.39   19.86
   1  -1   2  416.77   17.68
   1  -1   2  417.13   17.66
   1  -1   2  409.69   17.68
   1   1   2  410.60   17.66
   1   1   2  404.01   17.66
   1   1   2  413.64   17.69
   1   1   2  411.60   17.69
   2  -1   2   46.65    2.02
   2  -1   2   47.61    2.06
   2  -1   2   46.99    2.03
   2  -1   2   45.69    2.03
   2   1   2   45.16    2.06
   2   1   2   44.39    2.04
   3  -1   2   54.62    2.41
   3  -1   2   55.66    2.40
   3  -1   2   53.80    2.44
   3  -1   2   54.59    2.41
   3   1   2   54.31    2.44
   3   1   2   53.21    2.41
   3   1   2   56.35    2.43
   4  -1   2  193.19    8.37
  -4  -1  -2  191.15    8.27
   4  -1   2  188.52    8.31
  -4  -1  -2  189.97    8.26
   4  -1   2  196.23    8.33
   4  -1   2  189.74    8.31
   4   1   2  195.64    8.34
  -4   1  -2  192.52    8.32
   4   1   2  197.61    8.38
   4   1   2  190.87    8.31
   5  -1   2   28.11    1.35
   5  -1   2   26.98    1.25
   5  -1   2   27.85    1.25
  -5  -1  -2   26.78    1.20
  -5  -1  -2   27.00    1.19
   5  -1   2   26.87    1.27
  -5   1  -2   25.97    1.26
   5   1   2   28.51    1.34
   5   1   2   26.43    1.29
   5   1   2   27.23    1.24
   6  -1   2   57.25    2.50
  -6  -1  -2   54.73    2.45
   6  -1   2   55.14    2.53
   6  -1   2   56.14    2.53
  -6  -1  -2   55.65    2.45
   6  -1   2   57.81    2.63
   6  -1   2   55.08    2.49
  -6   1  -2   55.89    2.51
  -6   1  -2   54.32    2.50
   6   1   2   56.61    2.49
   6   1   2   55.89    2.55
   6   1   2   60.46    2.61
   7  -1   2  109.11    4.60
   7  -1   2  104.35    4.63
   7  -1   2  108.17    4.61
   7  -1   2  104.64    4.66
   7  -1   2  100.52    4.77
  -7  -1  -2  106.75    4.57
  -7  -1  -2  103.38    4.56
  -7   1  -2  105.46    4.63
   7   1   2  104.59    4.67
   7   1   2  103.99    4.59
  -7   1  -2  104.81    4.62
   7   1   2  107.82    4.73
   8  -1   2   34.73    1.63
   8  -1   2   37.45    1.63
   8  -1   2   35.69    1.72
   8  -1   2   28.68    1.81
  -8   1  -2   36.38    1.67
   8   1   2   38.21    1.79
  -8   1  -2   38.58    1.67
   8   1   2   33.27    1.71
   9  -1   2    3.29    0.54
   9  -1   2    4.89    0.49
   9  -1   2    4.40    0.35
  -9   1  -2    4.51    0.40
   9   1   2    5.14    0.50
   9   1   2    4.83    0.53
  10  -1   2   43.74    2.13
  10  -1   2   46.02    2.29
 -10   1  -2   43.36    2.06
  10   1   2   42.85    2.13
  10   1   2   43.22    2.17
  11  -1   2   24.26    1.37
  11  -1   2   24.57    1.46
  11   1   2   24.17    1.34
  11   1   2   22.29    1.35
  12  -1   2    3.45    0.55
  12   1   2    3.92    0.56
  13  -1   2    5.18    0.68
  13   1   2    4.86    0.65
  14  -1   2   11.97    1.00
  14   1   2   10.85    0.97
 -14   2   2    2.08    0.48
  13  -2  -2    1.17    0.49
 -13   2   2    1.65    0.42
  13   2  -2    1.48    0.47
 -13   2   2    2.06    0.41
  12  -2  -2    0.11    0.41
 -12   2   2    0.65    0.33
 -12   2   2   -0.03    0.32
  12   2  -2    0.36    0.38
  11  -2  -2    5.96    0.61
 -11   2   2    4.26    0.50
 -11   2   2    4.48    0.48
  11   2  -2    4.50    0.53
  10  -2  -2    3.78    0.48
  10  -2  -2    4.26    0.39
  10  -2  -2    4.50    0.39
  10   2  -2    3.98    0.47
 -10   2   2    4.74    0.45
 -10   2   2    3.42    0.42
   9  -2  -2    1.57    0.34
   9  -2  -2    1.39    0.26
   9  -2  -2    1.31    0.25
   9  -2  -2    1.14    0.35
   9   2  -2    1.04    0.30
  -9   2   2    0.64    0.26
  -9   2   2    1.20    0.29
   8  -2  -2   37.68    1.81
   8  -2  -2   38.57    1.87
   8  -2  -2   38.66    1.80
   8  -2  -2   37.03    1.86
   8   2  -2   39.03    1.81
   8   2  -2   39.60    1.85
  -8   2   2   39.25    1.83
  -8   2   2   40.72    1.85
   7  -2  -2    3.57    0.33
   7  -2  -2    3.75    0.34
   7  -2  -2    4.36    0.39
   7  -2  -2    4.72    0.41
  -7   2   2    4.15    0.38
   7   2  -2    3.66    0.34
   7   2  -2    4.49    0.39
  -7   2   2    3.95    0.36
   7   2  -2    3.82    0.36
   6  -2  -2    8.47    0.53
   6  -2  -2    8.54    0.54
   6  -2  -2    8.54    0.55
   6   2  -2    9.26    0.52
   6   2  -2    8.81    0.52
  -6   2   2    8.93    0.55
  -6   2   2    8.71    0.56
   6   2  -2    9.46    0.55
   5  -2  -2   16.14    0.82
   5  -2  -2   16.35    0.83
   5  -2  -2   15.07    0.82
  -5   2   2   16.08    0.83
   5   2  -2   16.19    0.81
  -5   2   2   16.64    0.79
   5   2  -2   16.67    0.82
  -5   2   2   16.26    0.84
   5   2  -2   16.42    0.82
   4  -2  -2  238.92   10.41
   4  -2  -2  240.21   10.42
   4  -2  -2  236.65   10.41
  -4   2   2  241.39   10.42
  -4   2   2  235.99   10.40
   4   2  -2  238.48   10.40
   4   2  -2  255.96   10.42
   4   2  -2  236.91   10.41
  -4   2   2  244.37   10.42
   3  -2  -2    1.43    0.18
  -3  -2   2    1.28    0.10
  -3  -2   2    1.40    0.11
   3  -2  -2    0.95    0.17
   3  -2  -2    1.79    0.19
  -3   2   2    0.96    0.17
  -3   2   2    1.06    0.17
   3   2  -2    2.02    0.21
  -3   2   2    1.14    0.17
   3   2  -2    1.31    0.18
   3   2  -2    1.50    0.15
  -2  -2   2  189.01    8.20
   2  -2  -2  190.10    8.24
   2  -2  -2  186.20    8.23
  -2  -2   2  192.50    8.20
   2  -2  -2  191.96    8.24
   2   2  -2  191.63    8.26
  -2   2   2  195.26    8.24
  -2   2   2  192.30    8.24
  -2   2   2  186.94    8.25
  -1  -2   2   31.12    1.41
  -1  -2   2   31.08    1.41
   1  -2  -2   31.33    1.43
   1  -2  -2   32.26    1.43
  -1   2   2   32.21    1.43
  -1   2   2   32.08    1.47
  -1   2   2   29.53    1.45
  -1   2   2   32.57    1.42
   1   2  -2   32.72    1.46
   0  -2   2   40.01    1.77
   0  -2   2   39.10    1.76
   0  -2   2   39.53    1.73
   0   2   2   39.90    1.76
   0   2   2   41.10    1.82
   0   2   2   38.65    1.80
   0   2   2   40.65    1.75
   1  -2   2    0.11    0.10
   1  -2   2    0.18    0.08
   1  -2   2    0.05    0.10
   1   2   2    0.02    0.12
   1   2   2    0.12    0.12
   2  -2   2    1.89    0.16
   2  -2   2    1.75    0.19
   2  -2   2    1.94    0.20
   2   2   2    1.67    0.21
   2   2   2    2.04    0.22
   3  -2   2   25.74    1.21
   3  -2   2   25.75    1.19
   3  -2   2   26.11    1.22
   3   2   2   27.90    1.24
   3   2   2   25.02    1.22
   3   2   2   25.81    1.25
   4  -2   2    1.60    0.20
   4  -2   2    1.53    0.20
   4  -2   2    1.54    0.20
   4  -2   2    1.52    0.25
   4   2   2    1.84    0.22
   4   2   2    1.26    0.22
   4   2   2    1.47    0.24
   5  -2   2   13.13    0.72
   5  -2   2   13.48    0.71
   5  -2   2   13.12    0.77
   5  -2   2   13.49    0.72
   5   2   2   13.08    0.71
   5   2   2   13.88    0.76
   5   2   2   13.70    0.76
   6  -2   2   30.96    1.47
   6  -2   2   30.67    1.47
   6  -2   2   31.70    1.46
   6  -2   2   30.74    1.54
   6   2   2   30.38    1.45
   6   2   2   31.12    1.51
   6   2   2   30.74    1.52
   7  -2   2    0.98    0.27
   7  -2   2    1.22    0.23
   7  -2   2    1.05    0.23
   7  -2   2    0.89    0.30
   7   2   2    0.38    0.19
   7   2   2    1.11    0.27
   7   2   2    0.51    0.26
   8  -2   2   39.54    1.87
   8  -2   2   40.01    1.91
   8  -2   2   40.22    2.01
   8  -2   2   38.73    1.86
   8   2   2   40.80    1.96
   8   2   2   40.23    1.93
   9  -2   2    8.84    0.68
   9  -2   2    9.90    0.84
   9  -2   2    9.15    0.62
   9  -2   2    9.41    0.61
   9   2   2    9.23    0.72
   9   2   2    8.67    0.73
  10  -2   2    2.65    0.35
  10  -2   2    2.69    0.44
  10  -2   2    2.16    0.50
  10  -2   2    2.90    0.35
  10   2   2    3.32    0.46
  10   2   2    3.27    0.47
  11  -2   2    0.83    0.41
  11  -2   2    0.66    0.42
  11   2   2    0.41    0.39
  12  -2   2    6.77    0.69
  12   2   2    7.79    0.73
  13  -2   2    0.38    0.49
  13   2   2    1.13    0.48
  13  -3  -2    2.12    0.55
 -13   3   2    1.75    0.47
  12  -3  -2   -0.40    0.40
 -12   3   2   -0.22    0.36
 -12   3   2    0.15    0.35
  11  -3  -2    1.31    0.44
  11  -3  -2    1.13    0.34
  11  -3  -2    1.05    0.34
 -11   3   2    1.37    0.39
 -11   3   2    1.22    0.38
  10  -3  -2    0.18    0.28
  10  -3  -2    0.17    0.36
  10  -3  -2    0.31    0.29
 -10   3   2    0.04    0.32
 -10   3   2    0.00    0.28
   9  -3  -2   21.61    1.17
   9  -3  -2   19.28    1.11
   9  -3  -2   19.18    1.18
   9  -3  -2   20.30    1.11
   9   3  -2   20.55    1.20
  -9   3   2   22.19    1.17
  -9   3   2   20.44    1.14
   8  -3  -2    9.48    0.70
   8  -3  -2   11.06    0.76
   8  -3  -2   10.31    0.69
   8  -3  -2   10.28    0.75
  -8   3   2   11.61    0.76
   8   3  -2   11.63    0.77
  -8   3   2    9.65    0.71
   8   3  -2   10.83    0.70
   7  -3  -2    1.12    0.27
   7  -3  -2    1.38    0.31
   7  -3  -2    0.76    0.25
  -7   3   2    0.82    0.26
   7   3  -2    1.20    0.29
   7   3  -2    0.54    0.25
  -7   3   2    0.86    0.28
   7   3  -2    1.00    0.25
   6  -3  -2   10.58    0.64
   6  -3  -2   10.02    0.63
   6  -3  -2    8.76    0.64
   6   3  -2   10.09    0.62
   6   3  -2   10.11    0.63
  -6   3   2    9.59    0.63
   6   3  -2    8.75    0.60
  -6   3   2   10.30    0.60
  -6   3   2    8.80    0.64
   5  -3  -2    6.28    0.50
   5  -3  -2    7.67    0.49
   5  -3  -2    6.40    0.48
   5   3  -2    6.26    0.43
  -5   3   2    6.30    0.50
  -5   3   2    5.56    0.45
   5   3  -2    5.95    0.48
  -5   3   2    6.62    0.48
   5   3  -2    6.43    0.49
   4  -3  -2    0.00    0.17
   4  -3  -2   -0.04    0.17
   4  -3  -2   -0.12    0.18
   4   3  -2   -0.08    0.18
  -4   3   2    0.29    0.18
  -4   3   2   -0.23    0.18
   4   3  -2   -0.01    0.18
  -4   3   2    0.07    0.18
  -3  -3   2    3.27    0.23
   3  -3  -2    2.89    0.31
   3  -3  -2    3.57    0.31
  -3  -3   2    2.97    0.23
   3  -3  -2    3.33    0.30
  -3   3   2    3.83    0.33
  -3   3   2    3.34    0.29
  -3   3   2    3.47    0.33
   3   3  -2    2.91    0.33
   2  -3  -2    1.75    0.22
  -2  -3   2    1.54    0.17
   2  -3  -2    1.67    0.21
   2  -3  -2    1.31    0.20
  -2  -3   2    1.52    0.17
  -2   3   2    1.48    0.21
   2   3  -2    1.53    0.25
  -2   3   2    1.61    0.20
  -2   3   2    1.45    0.24
   1  -3  -2   -0.25    0.13
  -1  -3   2   -0.01    0.12
   1  -3  -2    0.12    0.15
  -1  -3   2    0.11    0.12
  -1   3   2   -0.11    0.17
   1   3  -2    0.04    0.18
   0  -3   2    3.98    0.31
   0  -3  -2    3.91    0.30
   0  -3   2    3.99    0.24
   0  -3  -2    3.83    0.31
   0  -3   2    3.84    0.31
   0   3   2    4.25    0.38
   0   3   2    3.99    0.38
   0   3  -2    3.68    0.35
   1  -3   2   36.55    1.62
   1  -3   2   34.61    1.62
  -1  -3  -2   36.30    1.59
   1  -3   2   34.48    1.57
   1   3   2   35.32    1.68
  -1   3  -2   33.44    1.65
   1   3   2   35.70    1.67
   2  -3   2    0.77    0.18
   2  -3   2    0.58    0.18
   2  -3   2    0.47    0.13
   2   3   2    0.76    0.24
   2   3   2    0.71    0.23
   3  -3   2    3.40    0.32
   3  -3   2    2.84    0.26
   3  -3   2    3.73    0.33
   3   3   2    3.27    0.34
   3   3   2    3.11    0.35
   4  -3   2    6.66    0.49
   4  -3   2    6.30    0.43
   4  -3   2    6.29    0.47
   4   3   2    6.98    0.52
   4   3   2    6.38    0.51
   5  -3   2   46.96    2.21
   5  -3   2   48.24    2.22
   5  -3   2   47.16    2.19
   5   3   2   46.96    2.26
   5   3   2   49.28    2.24
   5   3   2   50.20    2.25
   6  -3   2    7.79    0.66
   6  -3   2    7.99    0.52
   6  -3   2    6.36    0.54
   6  -3   2    6.65    0.54
   6   3   2    7.30    0.55
   6   3   2    6.48    0.56
   6   3   2    7.05    0.57
   7  -3   2   10.80    0.75
   7  -3   2   11.51    0.75
   7  -3   2   13.24    0.77
   7  -3   2   12.00    0.85
   7   3   2   12.16    0.81
   7   3   2   13.15    0.83
   7   3   2   13.04    0.76
   8  -3   2   13.99    0.97
   8  -3   2   13.46    0.83
   8  -3   2   11.78    0.81
   8  -3   2   12.84    0.80
   8   3   2   12.72    0.87
   8   3   2   13.53    0.80
   8   3   2   13.05    0.87
   9  -3   2    0.98    0.32
   9  -3   2    1.49    0.37
   9  -3   2    0.88    0.43
   9  -3   2    1.50    0.33
   9   3   2    1.24    0.40
   9   3   2    1.71    0.39
  10  -3   2    0.73    0.37
  10  -3   2    0.86    0.46
  10  -3   2    0.28    0.31
  10  -3   2    0.28    0.30
  10   3   2    0.97    0.38
  10   3   2    1.00    0.41
  11  -3   2   -0.07    0.32
  11  -3   2    0.43    0.40
  11  -3   2   -0.01    0.52
  11  -3   2    0.62    0.48
  11   3   2    0.78    0.43
  12  -3   2    0.64    0.46
  12   3   2   -0.10    0.44
  11  -4  -2   21.86    1.33
  11  -4  -2   22.07    1.31
  11  -4  -2   23.27    1.41
 -11   4   2   24.80    1.39
  10  -4  -2    9.75    0.80
  10  -4  -2    8.32    0.73
  10  -4  -2    8.06    0.69
 -10   4   2    9.11    0.75
   9  -4  -2    0.01    0.35
   9  -4  -2    0.04    0.36
   9  -4  -2   -0.06    0.31
   9  -4  -2   -0.06    0.33
  -9   4   2    0.21    0.34
   8  -4  -2   18.25    1.10
   8  -4  -2   17.29    1.16
   8  -4  -2   18.73    1.09
   8  -4  -2   19.79    1.09
  -8   4   2   19.57    1.13
   7  -4  -2   42.25    2.01
   7  -4  -2   39.79    2.02
   7  -4  -2   41.29    2.01
   7   4  -2   40.42    2.01
  -7   4   2   42.64    2.03
   7   4  -2   42.65    2.04
   6  -4  -2    2.89    0.41
   6  -4  -2    3.87    0.42
   6  -4  -2    3.51    0.41
   6   4  -2    3.72    0.44
  -6   4   2    3.48    0.41
  -6   4   2    3.67    0.42
   5  -4  -2    8.91    0.60
   5  -4  -2    7.15    0.60
   5  -4  -2    7.65    0.64
  -5   4   2    7.26    0.59
  -5   4   2    8.35    0.62
   5   4  -2    7.16    0.60
   4  -4  -2   65.91    2.94
   4  -4  -2   63.91    2.91
   4  -4  -2   63.92    2.92
   4   4  -2   60.36    2.95
  -4   4   2   66.17    2.95
   3  -4  -2   25.35    1.28
   3  -4  -2   26.42    1.30
   3  -4  -2   25.91    1.27
   3   4  -2   23.84    1.32
  -3   4   2   26.32    1.32
  -2  -4   2   10.36    0.58
  -2  -4   2    9.33    0.58
   2  -4  -2   11.11    0.66
   2  -4  -2   11.80    0.67
   2  -4  -2    9.73    0.62
  -2   4   2    9.77    0.69
   1  -4  -2  133.28    5.93
  -1  -4   2  134.05    5.92
   1  -4  -2  143.08    5.95
   1  -4  -2  136.37    5.95
  -1  -4   2  137.24    5.92
   1   4  -2  132.24    6.00
  -1   4   2  133.39    6.00
   0  -4  -2   51.93    2.31
   0  -4   2   52.46    2.32
   0  -4  -2   50.25    2.32
   0  -4   2   49.86    2.32
   0   4  -2   49.49    2.38
   0   4   2   51.86    2.40
  -1  -4  -2   32.55    1.52
  -1  -4  -2   32.75    1.53
   1  -4   2   32.72    1.56
   1  -4   2   33.23    1.55
  -1   4  -2   32.46    1.61
   1   4   2   31.77    1.62
   2  -4   2   75.82    3.28
  -2  -4  -2   71.19    3.24
  -2  -4  -2   71.97    3.23
   2  -4   2   72.37    3.29
   2  -4   2   72.37    3.33
   2   4   2   75.28    3.35
   2   4   2   73.02    3.37
   3  -4   2   72.56    3.29
   3  -4   2   70.52    3.23
   3  -4   2   77.33    3.31
   3   4   2   71.20    3.36
   3   4   2   73.93    3.35
   4  -4   2    0.81    0.27
   4  -4   2    0.78    0.22
   4  -4   2    0.77    0.28
   4   4   2    0.74    0.31
   4   4   2    0.74    0.31
   5  -4   2   42.68    2.02
   5  -4   2   42.12    1.96
   5  -4   2   42.74    2.01
   5   4   2   41.48    2.07
   5   4   2   41.84    2.05
   6  -4   2   59.55    2.74
   6  -4   2   60.19    2.69
   6  -4   2   57.78    2.72
   6   4   2   55.87    2.78
   6   4   2   59.79    2.76
   7  -4   2    8.55    0.69
   7  -4   2    7.76    0.74
   7  -4   2    9.77    0.67
   7  -4   2    9.71    0.71
   7   4   2    7.29    0.69
   7   4   2    8.09    0.69
   8  -4   2   16.22    1.03
   8  -4   2   17.93    1.04
   8  -4   2   17.51    1.01
   8  -4   2   17.35    1.16
   8   4   2   15.13    1.08
   8   4   2   16.38    1.09
   8   4   2   16.49    1.01
   9  -4   2    9.30    0.75
   9  -4   2    8.49    0.72
   9  -4   2    9.69    0.89
   9  -4   2    9.60    0.78
   9   4   2    9.53    0.85
  10  -4   2    1.44    0.51
  10  -4   2    0.80    0.38
  10  -4   2    1.84    0.44
  10  -4   2    0.79    0.40
  10   4   2    1.16    0.47
  11  -4   2    0.08    0.40
  11  -4   2    0.03    0.40
  11  -4   2   -0.01    0.52
  11  -4   2    0.31    0.38
   9  -5  -2   27.07    1.72
   9  -5  -2   31.02    1.61
   9  -5  -2   29.75    1.65
   8  -5  -2   25.26    1.47
   8  -5  -2   25.51    1.44
   8  -5  -2   25.24    1.42
   7  -5  -2    5.69    0.58
   7  -5  -2    4.10    0.57
   7  -5  -2    4.02    0.54
   7   5  -2    4.14    0.54
   6  -5  -2   52.14    2.40
   6  -5  -2   47.42    2.40
   6  -5  -2   49.48    2.35
   6   5  -2   47.75    2.40
   5  -5  -2   30.81    1.52
   5  -5  -2   29.55    1.59
   5  -5  -2   31.10    1.57
  -5   5   2   28.54    1.57
   5   5  -2   28.65    1.59
   4  -5  -2    1.37    0.37
   4  -5  -2    1.41    0.38
   4  -5  -2    1.60    0.35
   4   5  -2    1.33    0.38
  -4   5   2    1.63    0.39
   3  -5  -2   44.57    2.15
   3  -5  -2   45.40    2.20
   3  -5  -2   45.05    2.19
   3   5  -2   45.24    2.25
  -3   5   2   48.32    2.26
   2  -5  -2   31.87    1.58
   2  -5  -2   31.95    1.57
   2  -5  -2   32.18    1.54
  -2   5   2   29.02    1.62
   2   5  -2   30.52    1.63
   1  -5  -2    0.64    0.29
   1  -5  -2    0.08    0.27
  -1  -5   2    0.35    0.26
  -1   5   2    0.86    0.36
   1   5  -2    0.24    0.33
   0  -5  -2   61.07    2.87
   0  -5  -2   62.87    2.88
   0  -5   2   64.51    2.90
   0  -5   2   63.72    2.88
   0   5   2   61.29    2.97
   0   5  -2   64.80    2.98
   1  -5   2   57.05    2.63
  -1  -5  -2   58.18    2.67
   1  -5   2   56.23    2.62
   1   5   2   55.34    2.71
   2  -5   2    1.12    0.32
   2  -5   2    1.30    0.34
   2   5   2    1.04    0.40
   3  -5   2   20.41    1.15
   3  -5   2   20.97    1.17
   3   5   2   20.83    1.23
   4  -5   2   63.05    2.89
   4  -5   2   60.18    2.90
   4   5   2   62.21    2.95
   4   5   2   62.01    2.98
   5  -5   2   14.60    0.96
   5  -5   2   14.00    0.92
   5   5   2   13.32    1.00
   5   5   2   13.40    0.95
   6  -5   2    4.78    0.59
   6  -5   2    5.38    0.57
   6   5   2    5.46    0.61
   6   5   2    5.78    0.67
   7  -5   2   38.84    2.02
   7  -5   2   41.23    2.05
   7  -5   2   41.49    2.20
   7   5   2   39.37    2.10
   7   5   2   40.25    2.06
   8  -5   2   12.65    1.12
   8  -5   2   11.91    0.93
   8  -5   2   11.09    0.94
   8   5   2   10.90    0.98
   9  -5   2    2.35    0.63
   9  -5   2    2.45    0.53
   9   5   2    2.40    0.57
   6  -6  -2    1.08    0.50
   5  -6  -2    8.03    0.74
   5  -6  -2    8.51    0.78
   4  -6  -2   18.40    1.21
   4  -6  -2   20.78    1.28
  -4   6   2   19.09    1.26
   3  -6  -2    3.17    0.49
   3  -6  -2    3.28    0.52
  -3   6   2    3.47    0.57
   2  -6  -2    9.98    0.79
   2  -6  -2   11.12    0.88
  -2   6   2   10.84    0.95
   1  -6  -2   22.69    1.30
   1  -6  -2   21.37    1.28
  -1   6   2   24.59    1.41
   0   6   2    8.20    0.79
   1  -6   2    2.65    0.47
   1  -6   2    1.77    0.41
   1   6   2    1.99    0.50
   2  -6   2   58.38    2.84
   2  -6   2   61.83    2.83
   2   6   2   57.84    2.92
   3  -6   2   13.04    0.96
   3  -6   2   11.56    0.93
   3   6   2   14.01    1.07
   4  -6   2    7.15    0.71
   4  -6   2    5.13    0.61
   4   6   2    5.72    0.71
   5  -6   2   19.88    1.24
   5  -6   2   16.18    1.18
   5   6   2   17.29    1.23
   6  -6   2    8.96    0.81
   6   6   2    6.89    0.78
  14   0  -3   -0.24    0.42
  13   0  -3   -0.29    0.38
  12   0  -3   -0.06    0.34
  11   0  -3    0.25    0.31
  10   0  -3    0.13    0.26
 -10   0   3   -0.20    0.18
  -9   0   3   -0.08    0.15
   9   0  -3   -0.14    0.24
  -9   0   3   -0.05    0.15
   8   0  -3    0.19    0.21
   8   0  -3    0.04    0.23
  -8   0   3    0.11    0.14
  -8   0   3   -0.10    0.13
  -7   0   3    0.08    0.12
   7   0  -3    0.06    0.12
   7   0  -3   -0.09    0.07
   7   0  -3   -0.02    0.17
  -7   0   3    0.07    0.12
   6   0  -3    0.01    0.07
  -6   0   3    0.11    0.11
   6   0  -3   -0.18    0.13
   6   0  -3   -0.17    0.06
   6   0  -3   -0.09    0.09
  -6   0   3    0.02    0.10
  -5   0   3   -0.03    0.09
   5   0  -3   -0.08    0.08
  -5   0   3   -0.11    0.09
   5   0  -3   -0.08    0.07
   5   0  -3   -0.11    0.07
   5   0  -3   -0.04    0.12
  -4   0   3    0.03    0.06
  -4   0   3   -0.04    0.08
   4   0  -3    0.00    0.06
   4   0  -3   -0.03    0.07
  -4   0   3   -0.14    0.08
   4   0  -3   -0.02    0.10
   4   0  -3   -0.08    0.06
  -3   0   3   -0.30    0.09
   3   0  -3   -0.42    0.07
  -3   0   3   -0.54    0.08
   3   0  -3   -0.60    0.08
  -3   0   3   -0.32    0.10
   3   0  -3   -0.48    0.06
  -2   0   3    0.08    0.09
  -2   0   3    0.09    0.12
  -2   0   3   -0.13    0.08
   2   0  -3    0.33    0.08
  -1   0   3   -0.15    0.07
  -1   0   3   -0.26    0.08
  -1   0   3   -0.24    0.09
  -1   0   3   -0.11    0.13
   0   0   3   -0.13    0.15
   0   0   3   -0.33    0.11
   0   0   3   -0.24    0.10
   0   0   3   -0.26    0.09
   1   0   3   -0.05    0.07
   1   0   3   -0.13    0.13
   1   0   3   -0.14    0.14
   1   0   3   -0.01    0.10
   1   0   3   -0.14    0.09
   2   0   3   -0.40    0.16
   2   0   3   -0.25    0.13
   2   0   3   -0.19    0.09
   2   0   3   -0.12    0.11
   2   0   3   -0.02    0.11
   3   0   3   -0.05    0.12
   3   0   3   -0.03    0.18
   3   0   3    0.05    0.11
   3   0   3    0.02    0.11
   3   0   3   -0.12    0.10
   4   0   3    0.09    0.13
   4   0   3    0.11    0.21
   4   0   3    0.18    0.12
   4   0   3   -0.19    0.11
   4   0   3    0.02    0.11
   5   0   3    0.14    0.12
   5   0   3   -0.07    0.12
   5   0   3    0.10    0.12
   5   0   3    0.03    0.16
   5   0   3   -0.15    0.21
   6   0   3    0.12    0.11
   6   0   3    0.21    0.16
   6   0   3   -0.12    0.24
   6   0   3   -0.29    0.12
   6   0   3    0.40    0.13
   7   0   3   -0.05    0.12
   7   0   3    0.06    0.19
   7   0   3    0.17    0.27
   7   0   3    0.10    0.11
   8   0   3    0.17    0.23
   8   0   3    0.06    0.29
   9   0   3    0.03    0.28
   9   0   3    0.22    0.34
  10   0   3    0.18    0.30
  10   0   3    0.38    0.36
  11   0   3   -0.13    0.36
  11   0   3   -0.32    0.34
  12   0   3    0.40    0.40
  13   0   3   -0.03    0.44
  14   0   3    0.13    0.49
  14  -1  -3    7.56    0.80
  14   1  -3    5.63    0.69
  13  -1  -3    5.00    0.66
  13   1  -3    6.81    0.66
  12  -1  -3   11.21    0.89
 -12   1   3   12.73    0.82
 -12   1   3   11.47    0.79
  12   1  -3   12.51    0.87
  11  -1  -3   47.05    2.38
  11   1  -3   49.70    2.38
 -11   1   3   49.92    2.33
 -11   1   3   51.14    2.32
  10  -1  -3   11.91    0.81
  10   1  -3   10.76    0.76
 -10   1   3   12.59    0.74
 -10   1   3   12.59    0.73
   9  -1  -3   25.81    1.19
   9  -1  -3   24.67    1.18
   9  -1  -3   24.34    1.30
  -9   1   3   25.12    1.24
  -9   1   3   25.86    1.25
   9   1  -3   24.75    1.28
   8  -1  -3   94.56    4.12
   8  -1  -3   93.63    4.12
   8  -1  -3   97.39    4.20
   8  -1  -3   88.07    4.22
  -8   1   3   97.69    4.16
  -8   1   3   96.15    4.17
   8   1  -3   91.58    4.18
   7  -1  -3   17.51    0.87
  -7  -1   3   18.61    0.84
   7  -1  -3   17.44    0.87
   7  -1  -3   18.90    0.93
  -7  -1   3   18.51    0.84
   7  -1  -3   17.13    0.93
  -7   1   3   18.96    0.90
   7   1  -3   17.35    0.86
  -7   1   3   17.48    0.90
   7   1  -3   18.06    0.92
   6  -1  -3    0.49    0.14
  -6  -1   3    0.45    0.11
   6  -1  -3    0.49    0.15
  -6  -1   3    0.56    0.11
   6  -1  -3    0.67    0.19
   6  -1  -3    0.66    0.16
   6   1  -3    0.72    0.17
   6   1  -3    0.52    0.11
  -6   1   3    0.36    0.15
  -6   1   3    0.53    0.15
  -5  -1   3  120.51    5.70
   5  -1  -3  132.39    5.75
   5  -1  -3  135.49    5.73
  -5  -1   3  123.99    5.70
   5  -1  -3  135.26    5.73
   5  -1  -3  137.56    5.73
  -5   1   3  132.37    5.69
   5   1  -3  136.32    5.71
   5   1  -3  132.12    5.73
  -5   1   3  133.06    5.74
  -5   1   3  133.16    5.74
   4  -1  -3  308.28   13.06
  -4  -1   3  298.22   13.04
  -4  -1   3  281.29   13.04
   4  -1  -3  307.39   13.06
   4  -1  -3  300.03   13.08
   4   1  -3  304.13   13.03
  -4   1   3  314.46   13.04
  -4   1   3  307.11   13.06
  -4   1   3  306.21   13.07
   4   1  -3  307.32   13.05
  -3  -1   3   11.33    0.52
  -3  -1   3   10.96    0.51
   3  -1  -3   11.32    0.55
  -3   1   3   11.10    0.53
  -3   1   3   10.48    0.55
  -3   1   3   10.38    0.54
   3   1  -3   11.23    0.52
   2  -1  -3  175.11    7.91
  -2  -1   3  191.47    7.89
   2  -1  -3  180.64    7.92
  -2  -1   3  185.94    7.89
  -2   1   3  187.85    7.91
  -2   1   3  180.79    7.91
   2   1  -3  193.37    7.88
  -2   1   3  182.29    7.91
  -2   1   3  174.71    7.91
   2   1  -3  182.95    7.88
  -1  -1   3  511.82   21.62
  -1  -1   3  510.06   21.62
  -1   1   3  508.02   21.63
  -1   1   3  505.84   21.63
  -1   1   3  512.76   21.64
  -1   1   3  475.65   21.63
   0  -1   3    3.73    0.19
   0  -1   3    3.40    0.23
   0  -1   3    3.72    0.23
   0   1   3    4.24    0.23
   0   1   3    3.99    0.22
   0   1   3    3.69    0.25
   1  -1   3    3.44    0.24
   1  -1   3    3.64    0.21
   1  -1   3    4.09    0.24
   1  -1   3    3.90    0.28
   1   1   3    3.48    0.26
   1   1   3    3.87    0.21
   1   1   3    3.87    0.20
   2  -1   3  113.06    4.93
   2  -1   3  114.90    4.98
   2  -1   3  115.79    4.94
   2  -1   3  113.16    4.95
   2   1   3  112.23    4.98
   2   1   3  110.78    4.96
   2   1   3  115.98    4.90
   2   1   3  115.83    4.90
   3  -1   3  148.53    6.49
   3  -1   3  145.74    6.43
   3  -1   3  149.89    6.44
   3  -1   3  148.69    6.44
   3   1   3  150.85    6.46
   3   1   3  148.73    6.45
   4  -1   3   36.76    1.67
   4  -1   3   36.94    1.68
   4  -1   3   38.71    1.75
   4  -1   3   36.04    1.67
   4   1   3   36.65    1.67
   4   1   3   37.49    1.75
   4   1   3   36.38    1.70
   5  -1   3  123.82    5.35
   5  -1   3  123.92    5.46
   5  -1   3  123.25    5.35
   5  -1   3  121.33    5.37
   5   1   3  125.75    5.46
   5   1   3  119.06    5.35
   5   1   3  123.07    5.39
   6  -1   3   45.37    2.16
   6  -1   3   40.13    2.04
   6  -1   3   46.90    2.01
   6  -1   3   44.25    2.03
   6  -1   3   43.02    1.99
   6   1   3   45.49    2.06
   6   1   3   44.30    2.00
   6   1   3   45.29    2.14
   7  -1   3    8.22    0.57
   7  -1   3    8.50    0.51
   7  -1   3    8.49    0.55
   7  -1   3    9.39    0.51
   7  -1   3    8.23    0.73
   7   1   3    8.30    0.60
   7   1   3    7.63    0.48
   7   1   3    8.88    0.69
   8  -1   3   35.89    1.62
   8  -1   3   36.32    1.61
   8  -1   3   36.40    1.70
   8  -1   3   28.69    1.81
   8   1   3   35.30    1.80
   8   1   3   34.99    1.71
   9  -1   3   18.87    1.05
   9  -1   3   18.54    1.00
   9  -1   3   17.18    1.19
   9   1   3   17.93    1.11
   9   1   3   17.68    1.05
  10  -1   3    0.26    0.32
  10  -1   3    0.04    0.36
  10   1   3    0.05    0.33
  10   1   3    0.53    0.35
  11  -1   3   14.08    0.98
  11  -1   3   15.96    1.13
  11   1   3   13.68    0.97
  11   1   3   12.81    1.03
  12  -1   3    4.20    0.59
  12  -1   3    3.50    0.63
  12   1   3    2.57    0.53
  13  -1   3    1.87    0.54
  13   1   3    0.74    0.47
  13  -2  -3   20.95    1.29
 -13   2   3   18.40    1.14
  13   2  -3   18.21    1.21
 -13   2   3   17.49    1.16
  12  -2  -3   32.14    1.73
  12   2  -3   31.38    1.70
 -12   2   3   31.94    1.67
 -12   2   3   32.97    1.66
  11  -2  -3    0.19    0.36
  11   2  -3    0.26    0.32
 -11   2   3    0.07    0.30
 -11   2   3    0.27    0.29
  10  -2  -3   57.57    2.69
  10  -2  -3   58.33    2.68
  10  -2  -3   57.23    2.78
 -10   2   3   62.44    2.76
 -10   2   3   58.90    2.74
  10   2  -3   60.82    2.77
   9  -2  -3   71.39    3.19
   9  -2  -3   70.70    3.26
   9  -2  -3   70.64    3.18
   9   2  -3   69.04    3.23
  -9   2   3   71.46    3.22
  -9   2   3   72.90    3.24
   8  -2  -3    0.10    0.18
   8  -2  -3    0.17    0.20
   8  -2  -3    0.05    0.21
   8  -2  -3    0.25    0.25
  -8   2   3    0.33    0.23
   8   2  -3    0.05    0.21
  -8   2   3    0.22    0.22
   7  -2  -3   64.52    3.00
   7  -2  -3   68.28    3.03
   7  -2  -3   65.87    3.01
   7  -2  -3   67.15    3.04
   7   2  -3   67.28    2.99
  -7   2   3   67.48    3.03
   7   2  -3   68.41    3.02
  -7   2   3   68.36    3.02
   6  -2  -3  188.48    8.23
   6  -2  -3  188.52    8.22
   6  -2  -3  188.54    8.25
   6   2  -3  190.74    8.21
   6   2  -3  193.64    8.23
  -6   2   3  188.17    8.23
  -6   2   3  190.18    8.19
  -6   2   3  186.89    8.24
   5  -2  -3   90.92    4.02
   5  -2  -3   89.21    4.00
   5  -2  -3   91.89    4.00
  -5  -2   3   92.55    3.92
  -5   2   3   90.16    3.97
   5   2  -3   92.14    3.98
  -5   2   3   88.75    4.01
   5   2  -3   91.63    3.99
  -5   2   3   90.01    4.00
   4  -2  -3  152.99    6.84
  -4  -2   3  158.89    6.77
  -4  -2   3  157.70    6.77
   4  -2  -3  159.88    6.85
   4  -2  -3  158.63    6.84
  -4   2   3  156.24    6.84
  -4   2   3  155.82    6.83
   4   2  -3  152.72    6.83
   4   2  -3  162.96    6.82
  -4   2   3  158.85    6.85
  -3  -2   3  512.01   21.57
   3  -2  -3  497.57   21.62
  -3  -2   3  507.72   21.57
   3  -2  -3  483.71   21.62
   3  -2  -3  498.54   21.62
  -3   2   3  505.45   21.62
  -3   2   3  522.73   21.62
   3   2  -3  494.99   21.58
  -3   2   3  502.86   21.62
  -2  -2   3   73.80    3.21
   2  -2  -3   72.05    3.25
  -2  -2   3   76.14    3.21
   2  -2  -3   73.86    3.25
  -2   2   3   75.25    3.25
  -2   2   3   73.06    3.24
  -2   2   3   72.78    3.26
  -1  -2   3   74.28    3.25
  -1  -2   3   75.24    3.25
  -1   2   3   73.83    3.30
  -1   2   3   76.45    3.26
  -1   2   3   75.66    3.27
  -1   2   3   71.88    3.29
   0  -2   3  277.74   11.98
   0  -2   3  279.32   12.03
   0  -2   3  288.78   12.03
   0   2   3  278.69   12.01
   0   2   3  281.99   12.06
   0   2   3  273.38   12.01
   0   2   3  274.91   12.07
   1  -2   3  222.86    9.64
   1  -2   3  225.95    9.64
   1  -2   3  225.27    9.60
   1   2   3  219.76    9.60
   1   2   3  228.08    9.67
   1   2   3  222.34    9.60
   1   2   3  220.27    9.68
   2  -2   3    7.87    0.44
   2  -2   3    7.69    0.45
   2  -2   3    7.64    0.40
   2   2   3    6.64    0.47
   2   2   3    7.78    0.46
   3  -2   3  343.52   14.49
   3  -2   3  333.27   14.46
   3  -2   3  342.88   14.49
   3   2   3  325.22   14.53
   3   2   3  328.66   14.50
   3   2   3  343.31   14.51
   4  -2   3  168.26    7.34
   4  -2   3  171.55    7.41
   4  -2   3  169.95    7.35
   4  -2   3  166.99    7.36
   4   2   3  169.53    7.38
   4   2   3  171.45    7.37
   4   2   3  167.45    7.41
   5  -2   3    0.23    0.17
   5  -2   3    0.12    0.17
   5  -2   3    0.33    0.17
   5  -2   3   -0.10    0.20
   5   2   3    0.19    0.20
   5   2   3   -0.18    0.15
   5   2   3    0.23    0.19
   6  -2   3  140.78    6.28
   6  -2   3  145.77    6.37
   6  -2   3  143.16    6.27
   6  -2   3  145.80    6.28
   6   2   3  144.43    6.33
   6   2   3  142.33    6.36
   6   2   3  143.38    6.28
   7  -2   3  144.44    6.43
   7  -2   3  146.84    6.55
   7  -2   3  142.37    6.42
   7  -2   3  151.65    6.45
   7   2   3  151.18    6.53
   7   2   3  147.12    6.42
   7   2   3  144.35    6.48
   8  -2   3    3.51    0.52
   8  -2   3    3.26    0.36
   8  -2   3    3.91    0.37
   8  -2   3    3.30    0.40
   8   2   3    3.51    0.35
   8   2   3    3.18    0.44
   8   2   3    2.42    0.40
   9  -2   3   17.12    0.94
   9  -2   3   16.89    0.92
   9  -2   3   15.68    1.14
   9  -2   3   16.86    1.02
   9   2   3   17.98    1.08
   9   2   3   17.12    1.04
  10  -2   3   68.35    3.09
  10  -2   3   69.06    3.07
  10  -2   3   70.95    3.15
  10  -2   3   61.18    3.31
  10   2   3   68.29    3.22
  10   2   3   65.68    3.17
  11  -2   3   29.36    1.57
  11  -2   3   24.78    1.70
  11   2   3   28.92    1.61
  11   2   3   30.24    1.59
  12  -2   3    8.85    0.80
  12  -2   3    7.61    0.91
  12   2   3    8.21    0.80
  13  -2   3   25.93    1.60
  13   2   3   27.82    1.63
  13  -3  -3    0.25    0.50
 -13   3   3    0.24    0.40
  12  -3  -3    5.35    0.67
 -12   3   3    4.84    0.59
 -12   3   3    4.94    0.57
  11  -3  -3   26.27    1.41
  11  -3  -3   26.33    1.43
  11  -3  -3   27.58    1.53
 -11   3   3   29.59    1.52
 -11   3   3   28.23    1.49
  10  -3  -3    8.46    0.67
  10  -3  -3    9.42    0.77
  10  -3  -3    8.24    0.68
 -10   3   3    8.87    0.70
 -10   3   3    8.26    0.71
   9  -3  -3   11.40    0.75
   9  -3  -3   10.27    0.80
   9  -3  -3   11.97    0.89
   9  -3  -3   10.42    0.75
  -9   3   3   11.21    0.79
  -9   3   3   12.89    0.82
   8  -3  -3   61.29    2.74
   8  -3  -3   54.41    2.68
   8  -3  -3   58.60    2.71
   8  -3  -3   59.49    2.75
  -8   3   3   59.42    2.72
  -8   3   3   58.88    2.73
   7  -3  -3   59.41    2.84
   7  -3  -3   61.24    2.86
   7  -3  -3   65.05    2.88
   7   3  -3   63.35    2.85
  -7   3   3   63.56    2.87
  -7   3   3   62.42    2.86
   6  -3  -3   19.22    1.01
   6  -3  -3   18.61    1.00
   6  -3  -3   18.11    1.01
  -6   3   3   19.15    1.02
   6   3  -3   18.67    0.99
  -6   3   3   19.93    1.01
   6   3  -3   18.88    1.09
  -6   3   3   19.29    0.97
   5  -3  -3  150.01    6.38
   5  -3  -3  144.82    6.38
   5   3  -3  145.89    6.38
  -5   3   3  145.68    6.38
  -5   3   3  142.46    6.37
  -5   3   3  147.56    6.36
   5   3  -3  142.30    6.35
   4  -3  -3   84.51    3.78
   4  -3  -3   86.24    3.78
  -4  -3   3   83.86    3.70
   4  -3  -3   85.94    3.77
  -4   3   3   84.18    3.78
  -4   3   3   85.10    3.77
   4   3  -3   83.00    3.79
  -4   3   3   87.47    3.78
  -3  -3   3    0.22    0.11
   3  -3  -3    0.18    0.17
   3  -3  -3    0.18    0.18
   3  -3  -3    0.13    0.18
  -3  -3   3    0.24    0.12
   3   3  -3    0.30    0.20
  -3   3   3    0.14    0.17
  -3   3   3    0.21    0.18
  -3   3   3    0.38    0.16
   2  -3  -3  156.47    6.92
   2  -3  -3  155.85    6.92
   2  -3  -3  162.89    6.92
  -2  -3   3  159.14    6.88
  -2  -3   3  156.26    6.87
  -2   3   3  162.95    6.91
  -2   3   3  157.06    6.95
  -2   3   3  159.89    6.90
   2   3  -3  160.54    6.95
  -1  -3   3  132.61    5.75
  -1  -3   3  130.95    5.81
   1  -3  -3  138.45    5.83
  -1  -3   3  132.65    5.80
   1  -3  -3  134.91    5.83
  -1   3   3  133.22    5.87
  -1   3   3  131.65    5.80
  -1   3   3  135.27    5.81
   0  -3  -3   14.55    0.72
   0  -3   3   13.67    0.65
   0  -3   3   13.28    0.71
   0  -3   3   14.58    0.72
   0   3   3   14.58    0.80
   0   3   3   14.98    0.79
   1  -3   3   74.04    3.18
   1  -3   3   70.82    3.18
   1  -3   3   70.33    3.12
   1   3   3   71.51    3.23
   1   3   3   72.41    3.25
   2  -3   3  201.40    8.58
   2  -3   3  195.25    8.53
   2  -3   3  194.62    8.58
   2   3   3  199.97    8.63
   2   3   3  197.51    8.64
   3  -3   3   71.42    3.15
   3  -3   3   68.62    3.11
   3  -3   3   69.14    3.16
   3   3   3   72.92    3.20
   3   3   3   71.29    3.21
   4  -3   3   91.75    4.10
   4  -3   3   92.67    4.06
   4  -3   3   91.84    4.10
   4   3   3   90.43    4.16
   4   3   3   95.79    4.14
   5  -3   3  228.82   10.11
   5  -3   3  228.16   10.12
   5  -3   3  236.18   10.20
   5  -3   3  233.55   10.09
   5   3   3  230.22   10.18
   5   3   3  238.52   10.14
   5   3   3  234.40   10.15
   6  -3   3    5.91    0.47
   6  -3   3    5.39    0.55
   6  -3   3    6.01    0.49
   6  -3   3    5.20    0.44
   6   3   3    4.97    0.51
   6   3   3    5.29    0.48
   6   3   3    5.98    0.55
   7  -3   3    4.89    0.44
   7  -3   3    3.96    0.42
   7  -3   3    4.11    0.52
   7  -3   3    4.59    0.44
   7   3   3    3.78    0.48
   7   3   3    4.13    0.42
   7   3   3    4.66    0.51
   8  -3   3   64.82    3.00
   8  -3   3   63.93    2.99
   8  -3   3   65.02    3.00
   8  -3   3   67.64    3.14
   8   3   3   64.15    2.99
   8   3   3   65.75    3.06
   8   3   3   66.18    3.09
   9  -3   3   74.80    3.43
   9  -3   3   76.51    3.45
   9  -3   3   74.19    3.45
   9  -3   3   74.20    3.61
   9   3   3   75.27    3.52
   9   3   3   76.93    3.55
  10  -3   3    1.72    0.53
  10  -3   3    1.22    0.35
  10  -3   3    0.68    0.38
  10  -3   3    1.69    0.36
  10   3   3    1.61    0.45
  10   3   3    0.94    0.43
  11  -3   3   28.51    1.80
  11  -3   3   28.39    1.55
  11  -3   3   27.61    1.50
  11   3   3   27.76    1.86
  11   3   3   30.24    1.65
  12  -3   3   19.96    1.22
  12  -3   3   15.09    1.38
  12   3   3   20.47    1.32
  11  -4  -3   -0.06    0.37
  11  -4  -3    0.36    0.37
  11  -4  -3   -0.39    0.40
 -11   4   3   -0.29    0.38
  10  -4  -3    8.06    0.67
  10  -4  -3    6.97    0.70
  10  -4  -3    7.47    0.66
 -10   4   3    6.46    0.64
 -10   4   3    7.32    0.69
   9  -4  -3    9.65    0.79
   9  -4  -3    9.44    0.79
   9  -4  -3    9.49    0.81
   9  -4  -3    8.36    0.69
  -9   4   3    9.80    0.80
  -9   4   3    9.19    0.77
   8  -4  -3    0.88    0.34
   8  -4  -3    1.65    0.41
   8  -4  -3    1.00    0.37
  -8   4   3    1.30    0.34
  -8   4   3    1.39    0.37
   7  -4  -3   14.74    0.87
   7  -4  -3   13.69    0.89
   7  -4  -3   13.09    0.86
  -7   4   3   11.74    0.86
  -7   4   3   13.19    0.85
   6  -4  -3   40.38    1.95
   6  -4  -3   39.19    1.95
   6  -4  -3   40.36    1.94
  -6   4   3   41.00    1.94
  -6   4   3   40.86    1.94
  -6   4   3   39.06    1.94
   5  -4  -3   12.45    0.75
   5  -4  -3   10.92    0.73
   5  -4  -3   10.06    0.75
   5   4  -3   10.90    0.74
  -5   4   3    9.89    0.70
  -5   4   3   12.05    0.74
  -5   4   3   11.21    0.74
   4  -4  -3    8.26    0.63
   4  -4  -3    8.97    0.62
   4  -4  -3    8.52    0.65
  -4   4   3    8.76    0.63
  -4   4   3    8.34    0.61
   4   4  -3    9.09    0.65
   3  -4  -3   73.11    3.27
   3  -4  -3   72.89    3.25
   3  -4  -3   72.08    3.26
  -3   4   3   72.43    3.24
  -3   4   3   73.57    3.30
   3   4  -3   69.28    3.29
   2  -4  -3   15.54    0.84
  -2  -4   3   15.60    0.79
  -2  -4   3   15.65    0.80
   2  -4  -3   15.16    0.84
   2  -4  -3   15.48    0.86
  -2   4   3   15.52    0.90
   2   4  -3   13.61    0.89
   1  -4  -3    0.16    0.20
   1  -4  -3   -0.02    0.19
  -1  -4   3    0.23    0.19
   1  -4  -3   -0.48    0.18
  -1  -4   3    0.04    0.17
  -1   4   3    0.02    0.26
   0  -4   3   31.53    1.52
   0  -4  -3   34.05    1.53
   0  -4  -3   31.76    1.53
   0  -4   3   32.05    1.52
   0   4   3   31.84    1.61
   1  -4   3   46.91    2.13
  -1  -4  -3   46.70    2.10
   1  -4   3   46.14    2.12
  -1  -4  -3   46.10    2.09
   1   4   3   44.76    2.19
   1   4   3   45.29    2.22
  -2  -4  -3    7.85    0.51
   2  -4   3    8.95    0.60
   2  -4   3    8.51    0.61
   2   4   3    9.21    0.69
   2   4   3    9.88    0.68
   3  -4   3   13.17    0.81
   3  -4   3   12.87    0.80
   3   4   3   14.89    0.91
   3   4   3   14.14    0.87
   4  -4   3    3.40    0.40
   4  -4   3    3.47    0.39
   4   4   3    3.60    0.45
   4   4   3    3.86    0.48
   5  -4   3    3.06    0.40
   5  -4   3    2.68    0.33
   5  -4   3    2.83    0.40
   5   4   3    3.38    0.48
   5   4   3    3.12    0.43
   6  -4   3   10.69    0.86
   6  -4   3    9.52    0.74
   6  -4   3    9.81    0.69
   6  -4   3   10.13    0.74
   6   4   3   11.10    0.79
   6   4   3   11.70    0.85
   7  -4   3   22.06    1.33
   7  -4   3   21.30    1.15
   7  -4   3   21.16    1.21
   7  -4   3   20.94    1.19
   7   4   3   21.51    1.29
   7   4   3   21.71    1.22
   8  -4   3    0.24    0.33
   8  -4   3   -0.13    0.31
   8  -4   3    0.54    0.44
   8  -4   3   -0.19    0.30
   8   4   3   -0.26    0.39
   8   4   3   -0.17    0.31
   8   4   3    0.24    0.37
   9  -4   3    3.21    0.47
   9  -4   3    2.54    0.46
   9  -4   3    2.72    0.58
   9  -4   3    2.48    0.45
   9   4   3    2.96    0.53
   9   4   3    2.99    0.56
  10  -4   3    2.23    0.47
  10  -4   3    1.69    0.43
  10  -4   3    2.07    0.58
  10  -4   3    1.51    0.43
  10   4   3    1.33    0.57
  10   4   3    1.82    0.51
  11  -4   3    5.32    0.63
  11  -4   3    5.43    0.63
  11  -4   3    6.22    0.63
  11  -4   3    5.69    0.83
   9  -5  -3    0.03    0.57
   9  -5  -3    0.84    0.46
   9  -5  -3    0.90    0.44
   8  -5  -3    0.20    0.38
   8  -5  -3    1.02    0.41
   8  -5  -3    0.85    0.44
   7  -5  -3    0.74    0.38
   7  -5  -3    0.55    0.41
   7  -5  -3    0.00    0.37
   6  -5  -3    0.91    0.37
   6  -5  -3    0.67    0.38
   6  -5  -3    0.35    0.35
  -6   5   3    0.31    0.35
   5  -5  -3    0.12    0.35
   5  -5  -3    0.26    0.31
   5  -5  -3   -0.07    0.32
  -5   5   3    0.05    0.33
   4  -5  -3    0.47    0.32
   4  -5  -3    0.36    0.31
   4  -5  -3    0.25    0.32
  -4   5   3    0.21    0.33
   3  -5  -3    5.40    0.53
   3  -5  -3    5.37    0.52
   3  -5  -3    5.25    0.51
  -3   5   3    5.53    0.58
   2  -5  -3    2.86    0.40
   2  -5  -3    2.34    0.39
   2  -5  -3    2.99    0.38
  -2   5   3    2.92    0.45
   1  -5  -3    6.87    0.57
   1  -5  -3    7.20    0.62
  -1  -5   3    7.72    0.62
  -1  -5   3    7.92    0.59
   1  -5  -3    8.02    0.62
  -1   5   3    6.85    0.65
   0  -5   3    1.28    0.32
   0  -5  -3    1.24    0.30
   0  -5  -3    1.39    0.30
   0  -5  -3    1.61    0.32
   0  -5   3    1.25    0.30
   0   5   3    1.04    0.37
   1  -5   3    1.33    0.32
   1  -5   3    1.87    0.36
   1   5   3    1.90    0.41
   2  -5   3    7.81    0.62
   2  -5   3    6.32    0.55
   2   5   3    6.03    0.63
   3  -5   3    0.39    0.31
   3  -5   3    0.94    0.35
   3   5   3    0.59    0.36
   3   5   3    1.07    0.42
   4  -5   3    0.20    0.30
   4  -5   3   -0.03    0.33
   4   5   3    0.14    0.35
   4   5   3   -0.20    0.36
   5  -5   3    0.03    0.32
   5  -5   3   -0.53    0.32
   5   5   3    0.13    0.39
   5   5   3   -0.09    0.35
   6  -5   3    0.22    0.35
   6  -5   3   -0.12    0.43
   6  -5   3    0.09    0.37
   6   5   3   -0.02    0.39
   6   5   3   -0.08    0.35
   7  -5   3   -0.27    0.48
   7  -5   3   -0.42    0.35
   7  -5   3    0.32    0.40
   7   5   3    0.55    0.40
   7   5   3    0.23    0.42
   8  -5   3    0.11    0.40
   8  -5   3    0.55    0.52
   8  -5   3    0.60    0.43
   8   5   3    0.46    0.46
   8   5   3    0.51    0.51
   9  -5   3    0.08    0.51
   9  -5   3   -0.13    0.44
   9   5   3   -0.39    0.46
   6  -6  -3    6.37    0.73
   5  -6  -3    0.18    0.43
   5  -6  -3    0.09    0.40
  -5   6   3   -0.51    0.39
   4  -6  -3    0.86    0.42
   4  -6  -3    0.44    0.43
  -4   6   3    0.39    0.44
   3  -6  -3   11.38    0.86
   3  -6  -3   11.82    0.93
  -3   6   3   10.22    0.90
   2  -6  -3    3.69    0.52
   2  -6  -3    3.85    0.53
  -2   6   3    4.34    0.63
   1  -6  -3    1.47    0.40
   1  -6  -3    1.23    0.38
  -1   6   3    2.66    0.54
   0   6   3    7.04    0.74
   1  -6   3    9.75    0.75
   1  -6   3    7.62    0.69
   1   6   3    8.88    0.82
   2  -6   3    1.97    0.47
   2  -6   3    2.37    0.45
   2   6   3    2.39    0.52
   3  -6   3    3.98    0.54
   3  -6   3    5.10    0.60
   3   6   3    3.53    0.61
   4  -6   3   30.11    1.60
   4  -6   3   31.34    1.64
   4   6   3   25.11    1.63
   5  -6   3    0.11    0.43
   5   6   3    0.04    0.43
   6  -6   3    2.23    0.67
   6  -6   3    2.71    0.57
   6   6   3    2.62    0.86
  14   0  -4    8.53    0.81
  13   0  -4    2.46    0.51
  12   0  -4   56.37    2.70
  11   0  -4    9.55    0.73
  10   0  -4   18.25    1.04
 -10   0   4   18.50    0.95
   9   0  -4   28.08    1.40
  -9   0   4   29.43    1.32
  -9   0   4   26.17    1.32
  -8   0   4  186.65    8.21
   8   0  -4  194.31    8.27
  -8   0   4  187.79    8.21
   7   0  -4   16.96    0.78
   7   0  -4   17.71    0.89
   7   0  -4   16.96    0.80
   7   0  -4   17.15    0.78
  -7   0   4   16.50    0.84
  -7   0   4   17.55    0.84
   6   0  -4  316.38   13.18
  -6   0   4  293.24   13.21
   6   0  -4  313.31   13.18
  -6   0   4  293.21   13.20
   6   0  -4  318.16   13.17
   6   0  -4  305.52   13.24
   5   0  -4  259.70   11.24
  -5   0   4  248.11   11.22
  -5   0   4  273.18   11.19
   5   0  -4  260.15   11.20
   5   0  -4  264.08   11.20
  -5   0   4  256.96   11.22
   4   0  -4   86.85    3.83
  -4   0   4   90.94    3.84
   4   0  -4   85.15    3.81
   4   0  -4   85.56    3.81
  -4   0   4   92.24    3.83
  -4   0   4   86.68    3.83
   3   0  -4   26.69    1.20
  -3   0   4   26.98    1.23
   3   0  -4   27.15    1.22
  -3   0   4   27.10    1.23
  -2   0   4  325.97   13.76
   2   0  -4  313.05   13.73
  -2   0   4  320.89   13.71
  -2   0   4  317.91   13.76
  -1   0   4  449.60   19.33
  -1   0   4  429.59   19.38
  -1   0   4  446.83   19.33
  -1   0   4  472.47   19.32
   0   0   4    4.44    0.36
   0   0   4    4.74    0.42
   0   0   4    4.15    0.38
   0   0   4    5.15    0.37
   1   0   4  598.58   25.36
   1   0   4  599.01   25.39
   1   0   4  596.18   25.44
   1   0   4  583.52   25.38
   1   0   4  576.41   25.44
   2   0   4  255.16   10.99
   2   0   4  257.11   11.02
   2   0   4  248.08   11.05
   2   0   4  257.49   11.01
   2   0   4  256.11   11.10
   3   0   4    8.58    0.50
   3   0   4    8.52    0.54
   3   0   4    8.70    0.51
   3   0   4    9.53    0.64
   3   0   4    8.42    0.49
   4   0   4  503.49   21.20
   4   0   4  531.89   21.36
   4   0   4  510.00   21.20
   4   0   4  444.82   21.19
   4   0   4  475.20   21.22
   5   0   4  248.34   10.28
   5   0   4  254.27   10.46
   5   0   4  246.67   10.27
   5   0   4  212.19   10.29
   5   0   4  228.13   10.30
   6   0   4    3.37    0.32
   6   0   4    3.63    0.48
   6   0   4    2.50    0.32
   6   0   4    4.35    0.30
   6   0   4    3.66    0.30
   7   0   4   94.31    3.94
   7   0   4   82.30    4.02
   7   0   4   93.53    4.19
   7   0   4   94.92    3.94
   7   0   4   86.08    3.98
   8   0   4  150.92    7.12
   8   0   4  174.18    7.30
   9   0   4   14.72    1.02
   9   0   4   12.20    0.85
  10   0   4    0.40    0.40
  10   0   4    0.71    0.35
  11   0   4   33.36    1.81
  11   0   4   36.32    1.95
  12   0   4   12.85    1.00
  12   0   4   11.91    1.07
  13   0   4    0.41    0.48
  14  -1  -4    7.15    0.76
  14   1  -4    6.78    0.73
  13  -1  -4    6.40    0.69
  13   1  -4    5.99    0.65
  12  -1  -4    1.59    0.43
  12   1  -4    1.36    0.41
 -12   1   4    1.85    0.35
 -12   1   4    1.60    0.36
  11  -1  -4    1.10    0.39
 -11   1   4    1.37    0.30
 -11   1   4    1.01    0.29
  11   1  -4    1.03    0.34
  10  -1  -4   64.54    3.07
 -10   1   4   68.82    3.01
 -10   1   4   67.86    3.02
  10   1  -4   64.00    3.05
   9  -1  -4   44.72    1.98
   9  -1  -4   44.19    2.09
   9  -1  -4   43.47    1.99
   9   1  -4   44.16    2.06
  -9   1   4   44.07    2.04
  -9   1   4   43.12    2.04
   8  -1  -4   25.29    1.18
   8  -1  -4   25.20    1.27
   8  -1  -4   26.21    1.18
  -8   1   4   23.90    1.22
   8   1  -4   24.36    1.24
  -8   1   4   25.35    1.22
   7  -1  -4  163.59    6.95
   7  -1  -4  162.21    6.92
   7  -1  -4  160.10    6.92
   7  -1  -4  160.47    6.97
  -7  -1   4  160.22    6.90
  -7  -1   4  158.53    6.90
   7   1  -4  155.17    6.94
  -7   1   4  157.09    6.94
  -7   1   4  157.59    6.94
   6  -1  -4  161.11    6.75
   6  -1  -4  161.92    6.75
   6  -1  -4  157.08    6.74
  -6  -1   4  155.09    6.73
  -6  -1   4  148.99    6.72
   6  -1  -4  157.08    6.78
  -6   1   4  152.24    6.75
   6   1  -4  153.99    6.76
  -6   1   4  155.38    6.69
  -6   1   4  154.75    6.76
   6   1  -4  153.01    6.70
  -5  -1   4    0.54    0.12
   5  -1  -4    0.54    0.17
   5  -1  -4    0.70    0.14
  -5  -1   4    0.29    0.12
   5  -1  -4    0.60    0.14
  -5   1   4    0.41    0.14
   5   1  -4    0.51    0.13
  -5   1   4    0.41    0.10
  -5   1   4    0.16    0.13
   5   1  -4    0.36    0.08
   4  -1  -4  318.54   13.33
   4  -1  -4  310.36   13.32
  -4  -1   4  296.45   13.31
  -4  -1   4  291.79   13.31
   4   1  -4  319.08   13.30
  -4   1   4  314.76   13.29
  -4   1   4  310.62   13.32
  -4   1   4  312.59   13.32
  -3  -1   4  143.86    6.20
  -3  -1   4  143.08    6.20
   3  -1  -4  145.34    6.20
   3  -1  -4  137.16    6.21
   3  -1  -4  140.31    6.21
  -3   1   4  143.96    6.21
   3   1  -4  144.88    6.16
   3   1  -4  142.13    6.16
  -3   1   4  142.87    6.21
  -3   1   4  142.73    6.20
   3   1  -4  144.27    6.18
   3   1  -4  149.25    6.16
  -2  -1   4    6.56    0.33
  -2  -1   4    6.23    0.32
   2   1  -4    5.54    0.28
  -2   1   4    5.11    0.32
  -2   1   4    5.52    0.34
  -2   1   4    5.61    0.33
  -2   1   4    5.78    0.32
  -1  -1   4   27.02    1.19
  -1  -1   4   25.66    1.18
  -1   1   4   26.87    1.19
  -1   1   4   26.35    1.19
  -1   1   4   26.19    1.19
  -1   1   4   25.64    1.20
   1   1  -4   26.41    1.14
   0  -1   4  229.28    9.95
   0  -1   4  229.78    9.95
   0  -1   4  239.56    9.92
   0  -1   4  235.69    9.97
   0   1   4  229.28    9.95
   0   1   4  228.98    9.97
   0   1   4  230.05    9.94
   0   1   4  225.44    9.97
   1  -1   4    0.73    0.10
   1  -1   4    0.61    0.11
   1  -1   4    0.88    0.15
   1  -1   4    0.54    0.11
   1   1   4    0.64    0.13
   1   1   4    0.56    0.13
   1   1   4    0.86    0.10
   1   1   4    0.72    0.10
   2  -1   4  134.55    5.91
   2  -1   4  136.30    5.89
   2  -1   4  131.54    5.91
   2  -1   4  133.97    5.95
   2   1   4  137.20    5.96
   2   1   4  143.42    5.87
   2   1   4  130.31    5.93
   2   1   4  136.74    5.93
   2   1   4  142.35    5.87
   3  -1   4   92.64    3.95
   3  -1   4   88.92    4.01
   3  -1   4   87.36    3.94
   3  -1   4   88.73    3.95
   3   1   4   91.92    4.03
   3   1   4   88.74    3.88
   3   1   4   90.84    3.98
   3   1   4   91.08    3.88
   3   1   4   92.37    3.97
   4  -1   4   16.29    0.85
   4  -1   4   16.84    0.84
   4  -1   4   17.63    0.95
   4  -1   4   17.41    0.85
   4   1   4   17.23    0.89
   4   1   4   17.53    0.87
   4   1   4   19.43    0.98
   5  -1   4   16.13    0.88
   5  -1   4   18.12    0.87
   5  -1   4   18.47    0.93
   5  -1   4   17.82    1.01
   5  -1   4   17.72    0.86
   5   1   4   17.79    1.00
   5   1   4   16.95    0.91
   5   1   4   16.89    0.87
   6  -1   4  137.93    6.00
   6  -1   4  135.57    5.82
   6  -1   4  139.93    5.83
   6  -1   4  120.44    5.88
   6  -1   4  132.44    5.85
   6   1   4  137.94    5.83
   6   1   4  137.08    5.87
   6   1   4  125.19    5.96
   7  -1   4   92.45    4.15
   7  -1   4   98.26    4.17
   7  -1   4   96.01    4.11
   7  -1   4   82.06    4.30
   7  -1   4   95.90    4.12
   7   1   4   94.89    4.18
   7   1   4   86.45    4.27
   7   1   4   97.88    4.12
   8  -1   4    0.46    0.19
   8  -1   4    0.51    0.20
   8  -1   4    0.63    0.27
   8  -1   4    0.13    0.34
   8   1   4    0.36    0.29
   8   1   4    0.08    0.33
   9  -1   4   65.84    3.30
   9  -1   4   71.75    3.13
   9   1   4   69.27    3.14
   9   1   4   62.91    3.23
  10  -1   4   34.47    1.71
  10  -1   4   34.87    1.89
  10   1   4   31.45    1.81
  10   1   4   31.24    1.70
  11  -1   4   -0.57    0.39
  11  -1   4    0.16    0.39
  11   1   4    0.18    0.37
  11   1   4    0.41    0.41
  12  -1   4    5.45    0.67
  12  -1   4    5.30    0.75
  12   1   4    5.88    0.67
  12   1   4    6.10    0.73
  13  -1   4   10.57    0.92
  13   1   4    9.22    0.87
  13  -2  -4    0.91    0.49
  13   2  -4    2.43    0.68
 -13   2   4    1.86    0.41
 -13   2   4    1.18    0.41
  12  -2  -4    5.85    0.64
 -12   2   4    7.30    0.61
  12   2  -4    5.76    0.62
 -12   2   4    6.30    0.61
  11  -2  -4    3.18    0.50
  11   2  -4    3.88    0.48
 -11   2   4    3.22    0.45
 -11   2   4    3.81    0.45
  10  -2  -4    0.14    0.23
  10  -2  -4    0.56    0.34
  10  -2  -4   -0.07    0.21
 -10   2   4   -0.19    0.25
 -10   2   4    0.09    0.26
  10   2  -4   -0.01    0.27
   9  -2  -4   10.34    0.67
   9  -2  -4   10.49    0.65
   9  -2  -4   11.78    0.78
   9   2  -4   10.66    0.70
  -9   2   4   10.95    0.71
  -9   2   4   11.01    0.73
   8  -2  -4   13.06    0.75
   8  -2  -4   12.05    0.74
   8  -2  -4   13.51    0.78
   8  -2  -4   14.07    0.82
   8   2  -4   13.88    0.77
  -8   2   4   13.88    0.80
  -8   2   4   13.23    0.78
   7  -2  -4    4.54    0.37
   7  -2  -4    4.79    0.43
   7  -2  -4    3.75    0.35
   7  -2  -4    3.40    0.33
   7   2  -4    3.87    0.35
  -7   2   4    3.55    0.36
  -7   2   4    3.66    0.36
   6  -2  -4    4.83    0.40
   6  -2  -4    5.56    0.45
   6  -2  -4    5.11    0.42
   6   2  -4    5.29    0.36
  -6   2   4    6.55    0.44
  -6   2   4    5.84    0.37
  -6   2   4    6.15    0.45
   6   2  -4    5.30    0.39
  -5  -2   4   12.17    0.58
   5  -2  -4   11.51    0.67
  -5  -2   4   12.17    0.58
   5  -2  -4   12.64    0.67
   5  -2  -4   11.41    0.65
  -5   2   4   11.96    0.67
  -5   2   4   12.13    0.63
   5   2  -4   12.53    0.63
  -5   2   4   11.80    0.67
  -4  -2   4   35.34    1.57
   4  -2  -4   32.13    1.63
   4  -2  -4   36.21    1.63
  -4  -2   4   36.97    1.57
  -4   2   4   35.41    1.63
  -4   2   4   34.89    1.62
  -4   2   4   34.83    1.64
   4   2  -4   37.47    1.59
  -3  -2   4   88.47    3.84
  -3  -2   4   91.78    3.84
   3  -2  -4   88.83    3.89
   3  -2  -4   82.89    3.88
  -3   2   4   89.25    3.88
  -3   2   4   87.59    3.88
   3   2  -4   88.45    3.82
  -3   2   4   88.83    3.89
  -2  -2   4   64.84    2.78
   2  -2  -4   65.72    2.81
  -2  -2   4   63.12    2.78
  -2   2   4   63.38    2.81
  -2   2   4   63.29    2.83
  -2   2   4   63.04    2.81
  -2   2   4   61.04    2.82
  -1  -2   4   34.06    1.53
  -1  -2   4   33.90    1.52
  -1   2   4   33.87    1.56
  -1   2   4   34.75    1.53
  -1   2   4   33.43    1.53
  -1   2   4   33.44    1.57
   0  -2   4    1.54    0.17
   0  -2   4    1.57    0.18
   0   2   4    1.74    0.16
   0   2   4    1.36    0.21
   0   2   4    1.56    0.21
   0   2   4    1.69    0.16
   1  -2   4    8.00    0.43
   1  -2   4    6.75    0.43
   1  -2   4    7.14    0.36
   1   2   4    7.55    0.37
   1   2   4    7.52    0.37
   1   2   4    7.38    0.46
   1   2   4    6.85    0.46
   2  -2   4    8.57    0.44
   2  -2   4    8.67    0.49
   2   2   4    8.66    0.52
   2   2   4    8.09    0.53
   3  -2   4   20.22    0.95
   3  -2   4   20.59    0.99
   3  -2   4   19.28    1.03
   3   2   4   21.57    1.03
   3   2   4   19.45    1.03
   3   2   4   19.90    1.00
   4  -2   4   20.44    1.03
   4  -2   4   21.08    1.02
   4  -2   4   21.00    1.00
   4  -2   4   21.43    1.10
   4   2   4   20.87    1.09
   4   2   4   20.94    1.04
   4   2   4   20.19    1.06
   5  -2   4   25.36    1.25
   5  -2   4   25.56    1.25
   5  -2   4   25.71    1.23
   5  -2   4   27.20    1.35
   5   2   4   24.75    1.33
   5   2   4   26.53    1.26
   5   2   4   25.20    1.30
   6  -2   4    0.10    0.19
   6  -2   4   -0.12    0.26
   6  -2   4    0.10    0.21
   6  -2   4    0.25    0.19
   6   2   4    0.17    0.25
   6   2   4    0.13    0.19
   6   2   4    0.27    0.25
   7  -2   4   28.62    1.40
   7  -2   4   28.85    1.38
   7  -2   4   26.64    1.52
   7  -2   4   28.47    1.39
   7   2   4   29.90    1.51
   7   2   4   27.26    1.45
   7   2   4   27.63    1.37
   8  -2   4   10.77    0.75
   8  -2   4   11.48    0.71
   8  -2   4   11.75    0.90
   8  -2   4   11.28    0.69
   8   2   4   11.07    0.68
   8   2   4   11.60    0.85
   8   2   4   10.56    0.79
   9  -2   4    0.42    0.43
   9  -2   4    0.82    0.28
   9  -2   4    0.84    0.34
   9  -2   4    0.29    0.25
   9   2   4    0.62    0.36
   9   2   4    0.82    0.39
  10  -2   4    2.71    0.45
  10  -2   4    1.71    0.52
  10  -2   4    2.71    0.37
  10   2   4    2.36    0.47
  10   2   4    2.59    0.51
  11  -2   4    1.04    0.43
  11  -2   4    0.26    0.44
  11   2   4    0.37    0.41
  11   2   4    1.84    0.49
  12  -2   4    0.75    0.46
  12  -2   4    0.36    0.52
  12   2   4    0.78    0.44
  13  -2   4   -0.09    0.46
  13   2   4    0.31    0.50
  13  -3  -4    3.76    0.65
 -13   3   4    3.10    0.55
  12  -3  -4   -0.08    0.42
 -12   3   4    0.16    0.38
 -12   3   4    0.15    0.35
  11  -3  -4    3.00    0.52
  11  -3  -4    3.20    0.43
  11  -3  -4    2.60    0.40
 -11   3   4    2.63    0.46
 -11   3   4    3.33    0.47
  10  -3  -4    0.20    0.37
  10  -3  -4   -0.18    0.27
  10  -3  -4    0.08    0.29
 -10   3   4   -0.16    0.29
 -10   3   4   -0.25    0.30
   9  -3  -4    1.39    0.32
   9  -3  -4    1.56    0.33
   9  -3  -4    1.20    0.38
  -9   3   4    1.46    0.33
  -9   3   4    0.92    0.33
   8  -3  -4    1.89    0.34
   8  -3  -4    1.40    0.34
   8  -3  -4    1.67    0.31
   8  -3  -4    2.30    0.35
  -8   3   4    2.34    0.37
  -8   3   4    1.75    0.33
   7  -3  -4    5.22    0.47
   7  -3  -4    4.66    0.42
   7  -3  -4    4.98    0.48
  -7   3   4    4.43    0.45
  -7   3   4    4.94    0.45
   6  -3  -4    1.04    0.26
   6  -3  -4    1.97    0.32
   6  -3  -4    1.09    0.25
  -6   3   4    1.50    0.25
  -6   3   4    1.17    0.28
  -6   3   4    1.05    0.26
   5  -3  -4    3.23    0.36
   5  -3  -4    4.05    0.39
   5  -3  -4    3.97    0.40
  -5   3   4    4.37    0.39
  -5   3   4    4.42    0.38
  -5   3   4    4.68    0.41
  -4  -3   4    1.21    0.15
   4  -3  -4    1.01    0.23
   4  -3  -4    0.94    0.23
   4  -3  -4    0.86    0.23
  -4   3   4    0.71    0.21
  -4   3   4    1.04    0.23
  -4   3   4    1.55    0.25
  -3  -3   4    0.78    0.15
   3  -3  -4    1.42    0.24
  -3  -3   4    0.96    0.15
   3  -3  -4    1.14    0.23
   3  -3  -4    0.88    0.21
  -3   3   4    0.60    0.20
  -3   3   4    1.03    0.20
  -3   3   4    1.18    0.23
  -2  -3   4    1.74    0.19
  -2  -3   4    1.83    0.19
   2  -3  -4    1.68    0.24
   2  -3  -4    1.02    0.21
   2  -3  -4    1.58    0.22
  -2   3   4    1.22    0.21
  -2   3   4    1.31    0.20
  -2   3   4    1.30    0.25
  -1  -3   4    9.77    0.57
   1  -3  -4   10.27    0.60
   1  -3  -4   10.88    0.60
  -1  -3   4   11.44    0.58
  -1   3   4   10.86    0.57
  -1   3   4   10.44    0.66
  -1   3   4   10.24    0.57
  -1   3   4   11.43    0.66
   0  -3   4   38.92    1.68
   0  -3   4   38.15    1.76
   0  -3   4   38.31    1.76
   0   3   4   38.79    1.73
   0   3   4   37.72    1.83
   0   3   4   39.22    1.82
   0   3   4   39.03    1.73
   1  -3   4    1.67    0.23
   1  -3   4    1.82    0.23
   1  -3   4    1.87    0.15
   1   3   4    1.44    0.25
   1   3   4    1.58    0.29
   2  -3   4    8.09    0.44
   2  -3   4    7.94    0.52
   2  -3   4    8.64    0.52
   2   3   4    7.66    0.56
   3  -3   4    7.42    0.51
   3  -3   4    7.44    0.50
   3  -3   4    7.05    0.43
   3   3   4    7.26    0.56
   3   3   4    6.59    0.52
   4  -3   4    0.52    0.22
   4  -3   4    0.04    0.16
   4  -3   4    0.20    0.21
   4  -3   4    0.10    0.26
   4   3   4    0.18    0.23
   4   3   4    0.37    0.25
   5  -3   4    0.46    0.29
   5  -3   4    0.06    0.19
   5  -3   4   -0.04    0.22
   5  -3   4   -0.12    0.21
   5   3   4   -0.18    0.23
   5   3   4   -0.11    0.26
   5   3   4    0.14    0.26
   6  -3   4    0.10    0.22
   6  -3   4    0.19    0.23
   6  -3   4    0.58    0.34
   6  -3   4    0.19    0.23
   6   3   4   -0.04    0.24
   6   3   4    0.24    0.27
   6   3   4    0.53    0.30
   7  -3   4    0.01    0.25
   7  -3   4    0.47    0.28
   7  -3   4    0.42    0.27
   7  -3   4    0.88    0.39
   7   3   4    0.57    0.27
   7   3   4    0.24    0.33
   7   3   4    0.89    0.34
   8  -3   4    7.20    0.55
   8  -3   4    6.42    0.69
   8  -3   4    6.40    0.55
   8  -3   4    5.69    0.52
   8   3   4    5.66    0.52
   8   3   4    6.44    0.63
   8   3   4    4.72    0.60
   9  -3   4    1.06    0.37
   9  -3   4    1.49    0.36
   9  -3   4    1.47    0.50
   9  -3   4    1.61    0.37
   9   3   4    1.13    0.44
   9   3   4    2.30    0.47
  10  -3   4    0.80    0.34
  10  -3   4    1.27    0.53
  10  -3   4    1.10    0.36
  10  -3   4    0.98    0.38
  10   3   4    1.00    0.45
  10   3   4    0.85    0.42
  11  -3   4    0.18    0.52
  11  -3   4    0.68    0.37
  11  -3   4    0.64    0.41
  11   3   4    0.56    0.47
  11   3   4    0.36    0.44
  12  -3   4    1.04    0.54
  12  -3   4    0.50    0.44
  12   3   4    0.58    0.51
  11  -4  -4   14.41    1.02
  11  -4  -4   15.90    1.11
  11  -4  -4   15.94    1.06
 -11   4   4   15.66    1.09
  10  -4  -4    8.42    0.73
  10  -4  -4    7.45    0.68
  10  -4  -4   10.50    0.83
 -10   4   4    8.16    0.72
 -10   4   4    8.00    0.73
   9  -4  -4   16.81    1.09
   9  -4  -4   16.88    1.04
   9  -4  -4   15.04    1.04
  -9   4   4   17.14    1.05
  -9   4   4   16.66    1.07
   8  -4  -4   32.61    1.63
   8  -4  -4   33.13    1.66
   8  -4  -4   32.45    1.64
  -8   4   4   30.98    1.62
  -8   4   4   28.68    1.63
   7  -4  -4    4.67    0.52
   7  -4  -4    3.74    0.48
   7  -4  -4    3.75    0.46
  -7   4   4    3.71    0.46
  -7   4   4    3.77    0.45
   6  -4  -4   15.29    0.92
   6  -4  -4   15.91    0.95
   6  -4  -4   14.07    0.91
  -6   4   4   14.46    0.90
  -6   4   4   15.51    0.90
  -6   4   4   15.03    0.92
   5  -4  -4   42.36    1.99
   5  -4  -4   41.14    1.99
   5  -4  -4   43.70    2.02
  -5   4   4   39.73    1.97
  -5   4   4   40.91    1.99
  -5   4   4   41.52    1.99
   4  -4  -4    1.97    0.33
   4  -4  -4    2.85    0.37
   4  -4  -4    1.63    0.32
  -4   4   4    1.81    0.31
  -4   4   4    2.86    0.33
  -4   4   4    2.58    0.36
   3  -4  -4    4.83    0.43
   3  -4  -4    4.73    0.43
   3  -4  -4    4.23    0.42
  -3   4   4    4.56    0.40
  -3   4   4    4.89    0.40
  -3   4   4    3.96    0.44
  -2  -4   4   75.24    3.37
   2  -4  -4   77.79    3.42
   2  -4  -4   78.31    3.41
  -2  -4   4   74.16    3.36
   2  -4  -4   76.16    3.41
  -2   4   4   73.42    3.38
  -2   4   4   76.42    3.46
   1  -4  -4   45.40    2.09
  -1  -4   4   44.70    2.07
  -1  -4   4   44.98    2.07
   1  -4  -4   46.19    2.10
  -1   4   4   44.56    2.15
   0  -4   4   11.62    0.70
   0  -4  -4   12.90    0.70
   0  -4   4   11.91    0.70
   0  -4  -4   11.92    0.70
   0   4   4   12.55    0.83
   0   4   4   11.61    0.79
   1  -4   4   78.68    3.49
  -1  -4  -4   77.40    3.45
   1  -4   4   78.17    3.48
  -1  -4  -4   75.63    3.45
   1   4   4   78.47    3.58
   1   4   4   78.20    3.56
   2  -4   4   25.97    1.32
   2  -4   4   27.19    1.31
   2   4   4   25.93    1.38
   2   4   4   25.98    1.40
   3  -4   4    0.48    0.25
   3  -4   4    0.42    0.26
   3   4   4    0.76    0.31
   3   4   4    0.46    0.32
   4  -4   4    2.42    0.36
   4  -4   4    2.38    0.35
   4   4   4    2.55    0.43
   4   4   4    2.29    0.40
   5  -4   4   35.11    1.69
   5  -4   4   33.03    1.69
   5  -4   4   35.51    1.81
   5   4   4   33.55    1.77
   5   4   4   33.09    1.73
   6  -4   4    9.27    0.73
   6  -4   4    9.98    0.73
   6  -4   4   10.07    0.88
   6   4   4    9.45    0.77
   6   4   4    9.61    0.81
   7  -4   4   13.78    0.93
   7  -4   4   14.22    1.06
   7  -4   4   13.23    0.90
   7   4   4   12.88    0.92
   7   4   4   14.91    1.01
   8  -4   4   25.04    1.55
   8  -4   4   24.70    1.34
   8  -4   4   27.15    1.63
   8  -4   4   23.54    1.36
   8   4   4   23.21    1.46
   8   4   4   23.50    1.34
   9  -4   4    1.46    0.53
   9  -4   4    0.85    0.39
   9  -4   4    1.41    0.47
   9  -4   4    1.04    0.41
   9   4   4    1.42    0.54
   9   4   4    1.73    0.51
  10  -4   4   18.09    1.20
  10  -4   4   17.58    1.11
  10  -4   4   16.84    1.34
  10  -4   4   14.79    1.05
  10   4   4   14.60    1.19
  10   4   4   14.78    1.20
  11  -4   4    6.37    0.94
  11  -4   4    5.69    0.66
  11  -4   4    8.08    1.10
  11  -4   4    7.51    0.95
  11   4   4    6.51    0.82
  11   4   4    6.84    1.11
   9  -5  -4   12.13    0.98
   9  -5  -4   11.61    0.99
   8  -5  -4    2.45    0.50
   8  -5  -4    2.04    0.46
   8  -5  -4    3.12    0.52
   7  -5  -4   28.31    1.50
   7  -5  -4   25.44    1.48
   7  -5  -4   27.28    1.53
   6  -5  -4   29.48    1.55
   6  -5  -4   29.41    1.60
   6  -5  -4   27.48    1.57
  -6   5   4   30.54    1.57
   5  -5  -4    0.59    0.35
   5  -5  -4    0.52    0.35
   5  -5  -4    0.15    0.35
  -5   5   4    1.25    0.39
   4  -5  -4   42.37    2.13
   4  -5  -4   44.43    2.15
   4  -5  -4   44.37    2.12
  -4   5   4   44.26    2.17
   3  -5  -4   67.12    3.09
   3  -5  -4   65.63    3.12
   3  -5  -4   68.77    3.11
  -3   5   4   67.31    3.15
   2  -5  -4    4.31    0.45
   2  -5  -4    5.10    0.50
   2  -5  -4    3.28    0.43
  -2   5   4    4.53    0.54
   1  -5  -4   56.75    2.62
   1  -5  -4   57.17    2.63
   1  -5  -4   59.35    2.65
  -1  -5   4   56.50    2.62
  -1  -5   4   53.57    2.60
  -1   5   4   57.27    2.72
   0  -5  -4  104.77    4.58
   0  -5  -4  103.93    4.57
   0  -5   4  102.12    4.58
   0  -5   4  100.05    4.58
   0   5   4  102.60    4.68
   1  -5   4   34.67    1.69
   1  -5   4   34.17    1.67
   1   5   4   32.93    1.77
   2  -5   4   31.53    1.55
   2  -5   4   28.54    1.54
   2   5   4   31.03    1.65
   3  -5   4   89.19    3.98
   3  -5   4   91.53    4.00
   3   5   4   85.51    4.05
   3   5   4   84.48    4.08
   4  -5   4   21.84    1.23
   4  -5   4   21.71    1.25
   4   5   4   21.19    1.36
   4   5   4   23.05    1.31
   5  -5   4    1.10    0.39
   5  -5   4    1.31    0.38
   5   5   4    1.60    0.47
   5   5   4    0.99    0.41
   6  -5   4   36.96    1.88
   6  -5   4   37.08    1.91
   6  -5   4   36.08    2.04
   6   5   4   36.44    2.00
   6   5   4   36.55    1.92
   7  -5   4   16.60    1.14
   7  -5   4   20.65    1.22
   7  -5   4   19.22    1.34
   7   5   4   18.27    1.27
   7   5   4   18.44    1.21
   8  -5   4   -0.53    0.48
   8  -5   4   -0.52    0.47
   8  -5   4   -0.20    0.40
   8   5   4   -0.16    0.40
   8   5   4    0.27    0.48
   9  -5   4   14.72    1.15
   9  -5   4   15.24    1.36
   9   5   4   17.20    1.27
   6  -6  -4   10.04    0.90
   5  -6  -4   28.91    1.69
   5  -6  -4   29.58    1.68
  -5   6   4   31.23    1.70
   4  -6  -4    6.59    0.69
   4  -6  -4    5.53    0.62
  -4   6   4    5.97    0.69
   3  -6  -4   11.73    0.96
   3  -6  -4   12.54    0.94
  -3   6   4   12.74    1.01
   2  -6  -4   30.41    1.62
   2  -6  -4   30.75    1.61
  -2   6   4   29.49    1.71
   1  -6  -4   14.24    0.97
   1  -6  -4   13.51    0.95
  -1   6   4   14.99    1.09
   0   6   4    0.88    0.45
   1  -6   4   24.64    1.40
   1  -6   4   23.80    1.37
   1   6   4   24.86    1.48
   2  -6   4   28.77    1.57
   2  -6   4   28.82    1.54
   2   6   4   27.37    1.63
   3  -6   4    4.36    0.58
   3  -6   4    4.44    0.57
   3   6   4    3.87    0.62
   4  -6   4   23.52    1.35
   4  -6   4   19.99    1.29
   4   6   4   20.76    1.40
   5  -6   4   22.13    1.38
   5   6   4   21.15    1.42
  14   0  -5    0.35    0.44
  13   0  -5   -0.18    0.39
  12   0  -5    0.40    0.35
  11   0  -5    0.31    0.31
  10   0  -5   -0.36    0.26
 -10   0   5    0.11    0.20
 -10   0   5    0.06    0.21
  -9   0   5    0.07    0.17
  -9   0   5   -0.01    0.17
   9   0  -5    0.21    0.25
  -8   0   5    0.11    0.16
   8   0  -5    0.09    0.21
  -8   0   5   -0.19    0.15
  -7   0   5   -0.15    0.13
   7   0  -5    0.05    0.09
  -7   0   5    0.18    0.13
   7   0  -5    0.18    0.18
   7   0  -5    0.12    0.09
  -6   0   5   -0.17    0.11
  -6   0   5    0.09    0.13
   6   0  -5   -0.08    0.08
   6   0  -5    0.06    0.10
  -6   0   5    0.10    0.07
   6   0  -5   -0.09    0.14
  -5   0   5   -0.22    0.11
   5   0  -5    0.03    0.09
   5   0  -5    0.06    0.09
  -5   0   5    0.00    0.12
  -5   0   5   -0.02    0.10
   5   0  -5    0.06    0.14
   4   0  -5   -0.22    0.08
  -4   0   5   -0.08    0.12
  -4   0   5   -0.01    0.12
   4   0  -5   -0.12    0.08
   4   0  -5    0.13    0.12
  -4   0   5   -0.04    0.12
  -3   0   5   -0.19    0.11
   3   0  -5   -0.02    0.09
  -3   0   5   -0.06    0.11
  -3   0   5   -0.02    0.14
  -2   0   5   -0.13    0.11
  -2   0   5   -0.19    0.15
  -2   0   5    0.03    0.07
  -2   0   5   -0.27    0.11
  -1   0   5   -0.06    0.13
  -1   0   5   -0.02    0.11
  -1   0   5   -0.22    0.11
  -1   0   5    0.27    0.19
   0   0   5   -0.05    0.13
   0   0   5   -0.04    0.17
   0   0   5   -0.15    0.13
   0   0   5    0.03    0.13
   1   0   5   -0.13    0.13
   1   0   5   -0.24    0.16
   1   0   5   -0.15    0.13
   1   0   5   -0.39    0.16
   1   0   5   -0.10    0.11
   2   0   5    0.31    0.14
   2   0   5   -0.06    0.11
   2   0   5    0.04    0.20
   2   0   5   -0.02    0.16
   2   0   5   -0.01    0.13
   3   0   5   -0.02    0.14
   3   0   5   -0.03    0.21
   3   0   5   -0.07    0.17
   3   0   5    0.28    0.15
   3   0   5   -0.20    0.13
   4   0   5    0.13    0.14
   4   0   5   -0.18    0.15
   4   0   5    0.03    0.15
   4   0   5    0.12    0.19
   4   0   5   -0.17    0.21
   5   0   5    0.00    0.17
   5   0   5   -0.10    0.18
   5   0   5    0.13    0.14
   5   0   5    0.15    0.26
   5   0   5    0.21    0.15
   6   0   5   -0.20    0.20
   6   0   5    0.27    0.15
   6   0   5    0.14    0.18
   6   0   5    0.04    0.14
   6   0   5    0.36    0.31
   7   0   5    0.26    0.17
   7   0   5    0.15    0.20
   7   0   5    0.20    0.14
   7   0   5    0.25    0.33
   7   0   5    0.26    0.25
   8   0   5    0.36    0.28
   8   0   5   -0.18    0.35
   9   0   5   -0.20    0.31
   9   0   5   -0.10    0.38
  10   0   5    0.31    0.38
  10   0   5    0.20    0.43
  11   0   5   -0.01    0.44
  11   0   5    0.19    0.41
  12   0   5   -0.16    0.47
  12   0   5    0.77    0.47
  13   0   5    0.08    0.50
  14  -1  -5    0.78    0.47
  14   1  -5    1.88    0.49
  13  -1  -5    0.25    0.40
  13   1  -5    0.32    0.39
  12  -1  -5    2.89    0.50
 -12   1   5    3.78    0.45
  12   1  -5    3.68    0.50
 -12   1   5    3.58    0.42
  11  -1  -5   23.56    1.34
  11   1  -5   24.16    1.32
 -11   1   5   25.15    1.27
 -11   1   5   24.52    1.28
  10  -1  -5    2.00    0.37
 -10   1   5    1.67    0.30
  10   1  -5    1.55    0.33
 -10   1   5    1.94    0.32
   9  -1  -5   34.89    1.59
   9  -1  -5   35.44    1.70
   9  -1  -5   36.71    1.58
   9   1  -5   32.39    1.64
  -9   1   5   34.25    1.63
  -9   1   5   32.05    1.64
   8  -1  -5   15.08    0.83
   8  -1  -5   14.98    0.75
   8  -1  -5   14.56    0.74
  -8  -1   5   14.03    0.73
   8   1  -5   14.31    0.79
  -8   1   5   13.16    0.78
  -8   1   5   14.38    0.79
  -7  -1   5    0.27    0.14
   7  -1  -5    0.48    0.16
  -7  -1   5    0.44    0.15
   7  -1  -5    0.28    0.20
   7  -1  -5    0.46    0.15
   7   1  -5    0.16    0.17
  -7   1   5    0.38    0.17
  -7   1   5    0.51    0.19
  -6  -1   5   30.63    1.44
   6  -1  -5   31.38    1.45
  -6  -1   5   31.07    1.43
   6  -1  -5   32.53    1.42
   6  -1  -5   31.73    1.48
   6  -1  -5   31.96    1.44
   6   1  -5   30.40    1.45
  -6   1   5   30.23    1.46
  -6   1   5   30.70    1.46
  -6   1   5   32.47    1.40
   5  -1  -5   45.40    1.97
  -5  -1   5   42.27    1.97
  -5  -1   5   40.81    1.97
   5  -1  -5   44.27    2.00
   5  -1  -5   45.13    1.97
  -5   1   5   43.72    1.99
  -5   1   5   44.06    1.94
  -5   1   5   43.15    1.98
   5   1  -5   45.84    1.96
   4  -1  -5   19.46    0.93
  -4  -1   5   17.31    0.94
  -4  -1   5   18.21    0.95
   4  -1  -5   21.41    0.96
  -4   1   5   19.30    0.95
  -4   1   5   19.99    0.91
   4   1  -5   20.51    0.87
   4   1  -5   19.20    0.90
  -4   1   5   19.77    0.94
   4   1  -5   20.15    0.86
  -3  -1   5   59.84    2.73
   3  -1  -5   65.09    2.72
  -3  -1   5   60.54    2.73
  -3   1   5   61.78    2.72
  -3   1   5   63.18    2.70
  -3   1   5   60.36    2.71
  -3   1   5   61.20    2.72
   3   1  -5   60.28    2.68
  -2  -1   5  118.32    5.15
  -2  -1   5  118.00    5.13
  -2  -1   5  119.05    5.15
   2   1  -5  117.22    5.10
  -2   1   5  114.78    5.15
  -2   1   5  119.67    5.14
  -2   1   5  116.55    5.14
  -2   1   5  123.05    5.15
  -1  -1   5    4.22    0.30
  -1  -1   5    4.58    0.31
  -1  -1   5    4.81    0.30
  -1   1   5    4.52    0.30
  -1   1   5    4.84    0.31
  -1   1   5    4.19    0.31
  -1   1   5    4.09    0.30
   0  -1   5   38.86    1.76
   0  -1   5   40.22    1.78
   0  -1   5   37.64    1.76
   0   1   5   39.69    1.75
   0   1   5   40.18    1.75
   0   1   5   38.14    1.77
   0   1   5   39.56    1.79
   1  -1   5  250.90   11.03
   1  -1   5  257.10   11.00
   1  -1   5  251.09   10.97
   1  -1   5  252.01   11.01
   1   1   5  253.99   11.04
   1   1   5  261.81   10.99
   1   1   5  263.81   10.98
   1   1   5  249.84   11.04
   2  -1   5    3.62    0.33
   2  -1   5    3.41    0.29
   2  -1   5    3.50    0.29
   2  -1   5    3.40    0.26
   2   1   5    3.90    0.24
   2   1   5    3.64    0.24
   2   1   5    4.02    0.32
   2   1   5    3.04    0.31
   2   1   5    3.87    0.32
   3  -1   5   16.22    0.79
   3  -1   5   16.57    0.81
   3  -1   5   17.39    0.90
   3  -1   5   16.12    0.80
   3   1   5   14.77    0.82
   3   1   5   16.05    0.74
   3   1   5   16.23    0.74
   3   1   5   16.23    0.84
   3   1   5   15.77    0.90
   4  -1   5   83.99    3.43
   4  -1   5   74.51    3.34
   4  -1   5   74.92    3.45
   4  -1   5   77.34    3.34
   4  -1   5   76.42    3.35
   4   1   5   72.50    3.37
   4   1   5   76.36    3.37
   4   1   5   68.91    3.45
   5  -1   5   69.94    3.24
   5  -1   5   72.55    3.17
   5  -1   5   73.38    3.16
   5  -1   5   72.22    3.16
   5  -1   5   71.04    3.31
   5   1   5   60.65    3.28
   5   1   5   74.59    3.19
   5   1   5   73.16    3.21
   6  -1   5    5.74    0.60
   6  -1   5    5.74    0.43
   6  -1   5    6.35    0.44
   6  -1   5    5.35    0.49
   6  -1   5    4.67    0.43
   6   1   5    6.45    0.45
   6   1   5    5.27    0.60
   6   1   5    6.22    0.51
   7  -1   5   32.15    1.54
   7  -1   5   25.86    1.68
   7  -1   5   34.27    1.56
   7  -1   5   33.02    1.50
   7  -1   5   33.81    1.50
   7   1   5   31.58    1.49
   7   1   5   25.70    1.65
   7   1   5   32.81    1.57
   8  -1   5   42.92    1.97
   8  -1   5   42.28    1.91
   8  -1   5   42.07    1.90
   8  -1   5   36.18    2.13
   8   1   5   41.49    1.98
   8   1   5   36.87    2.10
   8   1   5   40.76    1.89
   9  -1   5    1.20    0.47
   9  -1   5    1.41    0.38
   9   1   5    1.51    0.46
   9   1   5    1.16    0.38
  10  -1   5   12.66    1.07
  10  -1   5   12.41    0.89
  10   1   5   12.58    1.04
  10   1   5   11.44    0.89
  11  -1   5   21.17    1.38
  11  -1   5   18.20    1.18
  11   1   5   19.35    1.19
  11   1   5   16.31    1.25
  12  -1   5    1.58    0.50
  12  -1   5    2.50    0.62
  12   1   5    2.43    0.57
  12   1   5    1.97    0.51
  13  -1   5    3.35    1.07
  13  -1   5    2.40    0.59
  13   1   5    2.25    0.57
  13  -2  -5   20.15    1.36
 -13   2   5   22.04    1.29
 -13   2   5   21.91    1.26
  12  -2  -5    0.75    0.42
 -12   2   5    1.04    0.37
 -12   2   5    1.31    0.38
  11  -2  -5   32.99    1.83
  11   2  -5   35.37    1.79
 -11   2   5   37.99    1.79
 -11   2   5   36.11    1.80
  10  -2  -5   71.51    3.30
  10  -2  -5   70.36    3.19
  10  -2  -5   70.42    3.20
 -10   2   5   70.29    3.25
 -10   2   5   72.00    3.26
  10   2  -5   71.19    3.26
   9  -2  -5    5.79    0.51
   9  -2  -5    6.30    0.50
   9  -2  -5    6.41    0.57
  -9   2   5    6.83    0.56
  -9   2   5    7.35    0.57
   9   2  -5    7.00    0.55
   8  -2  -5   39.26    1.88
   8  -2  -5   39.99    1.87
  -8   2   5   41.14    1.92
  -8   2   5   40.10    1.90
   8   2  -5   40.32    1.88
   7  -2  -5  150.40    6.82
   7  -2  -5  152.52    6.81
   7  -2  -5  153.60    6.85
  -7   2   5  154.27    6.83
   7   2  -5  164.56    6.81
  -7   2   5  161.07    6.84
  -6  -2   5   47.60    2.27
   6  -2  -5   50.01    2.28
   6  -2  -5   49.47    2.28
   6  -2  -5   51.88    2.31
  -6   2   5   48.71    2.24
  -6   2   5   51.51    2.30
   6   2  -5   52.53    2.26
  -6   2   5   49.63    2.29
  -5  -2   5    8.66    0.48
   5  -2  -5    8.83    0.53
   5  -2  -5    7.80    0.55
  -5  -2   5    8.82    0.47
  -5   2   5    8.13    0.50
   5   2  -5    9.66    0.49
  -5   2   5    9.33    0.55
  -5   2   5    8.92    0.55
  -4  -2   5  210.56    8.91
   4  -2  -5  202.24    8.96
   4  -2  -5  206.88    8.95
   4  -2  -5  196.56    8.94
  -4  -2   5  212.58    8.91
  -4   2   5  204.89    8.95
   4   2  -5  215.50    8.90
  -4   2   5  200.66    8.94
  -4   2   5  207.04    8.94
  -3  -2   5  249.93   10.87
   3  -2  -5  253.20   10.90
  -3  -2   5  254.07   10.87
   3  -2  -5  252.02   10.90
   3  -2  -5  250.30   10.91
  -3   2   5  258.42   10.91
  -3   2   5  249.43   10.90
  -3   2   5  248.89   10.90
   3   2  -5  253.95   10.83
  -2  -2   5   23.15    1.12
  -2  -2   5   24.35    1.12
  -2   2   5   24.42    1.17
  -2   2   5   25.60    1.15
  -2   2   5   23.46    1.16
  -2   2   5   24.35    1.14
  -1  -2   5  205.96    8.87
  -1  -2   5  199.02    8.87
  -1   2   5  203.65    8.91
  -1   2   5  207.98    8.87
  -1   2   5  214.42    8.88
  -1   2   5  201.38    8.91
   0  -2   5   91.85    4.14
   0  -2   5   96.19    4.14
   0   2   5   96.37    4.13
   0   2   5   98.13    4.12
   0   2   5   94.13    4.18
   0   2   5   91.11    4.18
   1  -2   5   27.77    1.21
   1  -2   5   27.86    1.27
   1  -2   5   27.40    1.28
   1   2   5   27.86    1.22
   1   2   5   26.48    1.23
   1   2   5   26.58    1.30
   1   2   5   26.03    1.31
   2  -2   5   90.84    3.95
   2  -2   5   90.28    4.00
   2  -2   5   87.71    3.90
   2  -2   5   89.05    3.96
   2   2   5   90.40    3.99
   2   2   5   90.21    4.01
   2   2   5   89.83    3.88
   2   2   5   90.65    3.88
   3  -2   5  354.04   15.33
   3  -2   5  352.64   15.24
   3  -2   5  356.05   15.28
   3  -2   5  356.26   15.27
   3   2   5  356.63   15.31
   3   2   5  353.79   15.30
   3   2   5  349.32   15.34
   4  -2   5   17.84    0.91
   4  -2   5   18.45    0.92
   4  -2   5   17.61    0.99
   4  -2   5   17.90    0.88
   4   2   5   17.66    0.95
   4   2   5   16.80    0.92
   4   2   5   18.64    1.00
   5  -2   5  102.61    4.63
   5  -2   5  105.54    4.65
   5  -2   5  106.05    4.63
   5  -2   5  106.38    4.74
   5   2   5  104.64    4.68
   5   2   5  106.97    4.75
   5   2   5  103.92    4.66
   6  -2   5   95.47    4.25
   6  -2   5   93.99    4.25
   6  -2   5   97.63    4.27
   6  -2   5   94.84    4.38
   6   2   5   98.57    4.40
   6   2   5   96.29    4.31
   6   2   5   95.22    4.27
   7  -2   5   27.91    1.43
   7  -2   5   28.59    1.59
   7  -2   5   28.05    1.41
   7  -2   5   29.81    1.43
   7   2   5   29.23    1.49
   7   2   5   28.93    1.42
   7   2   5   28.80    1.58
   8  -2   5    6.40    0.54
   8  -2   5    6.35    0.54
   8  -2   5    6.48    0.53
   8  -2   5    5.44    0.68
   8   2   5    5.91    0.51
   8   2   5    6.00    0.58
   8   2   5    5.90    0.66
   9  -2   5   53.50    2.92
   9  -2   5   58.52    2.73
   9  -2   5   56.68    2.68
   9  -2   5   61.09    2.68
   9   2   5   59.34    2.90
   9   2   5   58.92    2.79
  10  -2   5   15.32    0.91
  10  -2   5   16.31    1.01
  10  -2   5   10.77    1.10
  10   2   5   13.70    1.00
  10   2   5   15.18    1.13
  11  -2   5    1.14    0.54
  11  -2   5    0.58    0.41
  11   2   5    1.54    0.47
  11   2   5    0.04    0.44
  12  -2   5   15.55    1.33
  12  -2   5   16.72    1.13
  12   2   5   14.92    1.22
  12   2   5   16.68    1.20
  13  -2   5    8.40    0.84
  13  -2   5    7.62    1.00
  13   2   5    7.34    0.83
  12  -3  -5   39.10    1.99
 -12   3   5   34.75    1.93
 -12   3   5   38.12    1.92
  11  -3  -5    8.76    0.71
  11  -3  -5    9.56    0.74
  11  -3  -5   10.21    0.84
 -11   3   5    8.44    0.74
 -11   3   5   10.24    0.79
  10  -3  -5    8.72    0.68
  10  -3  -5    8.86    0.75
  10  -3  -5    8.21    0.69
 -10   3   5    9.74    0.74
 -10   3   5    8.81    0.75
   9  -3  -5   67.66    3.22
   9  -3  -5   68.30    3.16
   9  -3  -5   67.99    3.17
  -9   3   5   70.20    3.19
  -9   3   5   71.62    3.21
   8  -3  -5   41.67    2.01
   8  -3  -5   43.09    1.99
   8  -3  -5   41.74    1.96
  -8   3   5   38.83    1.98
  -8   3   5   40.20    1.99
   7  -3  -5    0.95    0.27
   7  -3  -5    0.94    0.30
   7  -3  -5    0.57    0.28
  -7   3   5    0.44    0.27
  -7   3   5    0.78    0.26
   6  -3  -5   73.17    3.16
   6  -3  -5   69.14    3.13
   6  -3  -5   71.29    3.14
  -6   3   5   66.39    3.14
  -6   3   5   68.88    3.10
  -6   3   5   66.10    3.13
   5  -3  -5  301.54   12.91
   5  -3  -5  310.61   12.92
   5  -3  -5  300.78   12.93
  -5   3   5  294.07   12.90
  -5   3   5  288.06   12.91
  -5   3   5  293.15   12.91
   4  -3  -5    2.17    0.29
  -4  -3   5    2.72    0.24
  -4  -3   5    2.87    0.24
   4  -3  -5    2.69    0.31
   4  -3  -5    2.35    0.31
  -4   3   5    2.56    0.31
  -4   3   5    2.95    0.32
  -4   3   5    2.33    0.29
  -3  -3   5  144.77    6.47
   3  -3  -5  144.89    6.52
   3  -3  -5  155.60    6.53
  -3  -3   5  147.70    6.47
   3  -3  -5  149.14    6.52
  -3   3   5  153.25    6.52
  -3   3   5  151.65    6.51
  -3   3   5  146.41    6.53
   2  -3  -5  129.76    5.51
  -2  -3   5  122.67    5.48
  -2  -3   5  124.24    5.48
   2  -3  -5  126.03    5.52
  -2   3   5  126.41    5.50
  -2   3   5  125.33    5.54
  -2   3   5  126.74    5.51
   1  -3  -5   39.13    1.79
  -1  -3   5   39.21    1.78
  -1  -3   5   39.90    1.79
  -1   3   5   39.72    1.78
  -1   3   5   38.75    1.84
  -1   3   5   36.67    1.76
  -1   3   5   39.60    1.86
   0  -3   5   55.46    2.52
   0  -3   5   55.36    2.52
   0   3   5   57.46    2.48
   0   3   5   57.29    2.48
   0   3   5   54.70    2.58
   0   3   5   55.91    2.57
   1  -3   5  169.16    7.30
   1  -3   5  177.64    7.29
   1   3   5  161.51    7.35
   1   3   5  165.08    7.34
   1   3   5  163.93    7.22
   2  -3   5   50.57    2.31
   2  -3   5   51.35    2.23
   2  -3   5   50.75    2.31
   2   3   5   50.72    2.35
   2   3   5   49.61    2.37
   3  -3   5   20.52    0.96
   3  -3   5   19.27    1.03
   3  -3   5   21.80    1.13
   3  -3   5   19.28    1.04
   3   3   5   20.10    1.07
   3   3   5   19.84    1.10
   4  -3   5  134.36    5.91
   4  -3   5  133.47    5.83
   4  -3   5  129.01    5.77
   4   3   5  134.28    5.87
   4   3   5  131.46    5.91
   5  -3   5   75.32    3.40
   5  -3   5   76.94    3.41
   5  -3   5   76.28    3.35
   5  -3   5   73.26    3.49
   5   3   5   75.83    3.50
   5   3   5   74.05    3.43
   6  -3   5    6.82    0.67
   6  -3   5    7.05    0.58
   6  -3   5    5.28    0.49
   6  -3   5    6.00    0.50
   6   3   5    6.02    0.58
   6   3   5    6.01    0.61
   6   3   5    7.10    0.58
   7  -3   5   62.38    2.88
   7  -3   5   63.48    3.05
   7  -3   5   62.46    2.92
   7  -3   5   63.32    2.91
   7   3   5   63.23    2.93
   7   3   5   61.73    2.98
   7   3   5   66.17    3.06
   8  -3   5    8.13    0.67
   8  -3   5    8.61    0.68
   8  -3   5    8.62    0.65
   8  -3   5    8.33    0.81
   8   3   5    9.41    0.87
   8   3   5    9.02    0.68
   8   3   5    8.33    0.73
   9  -3   5    6.62    0.78
   9  -3   5    6.23    0.59
   9  -3   5    6.48    0.59
   9  -3   5    5.99    0.56
   9   3   5    6.24    0.69
   9   3   5    6.75    0.75
  10  -3   5    4.88    0.55
  10  -3   5    5.80    0.60
  10  -3   5    4.69    0.75
  10  -3   5    6.68    0.59
  10   3   5    6.34    0.69
  10   3   5    5.22    0.71
  11  -3   5   28.51    1.94
  11  -3   5   31.79    1.70
  11   3   5   30.13    1.76
  11   3   5   33.82    1.88
  12  -3   5    0.00    0.45
  12  -3   5    0.82    0.53
  12   3   5    0.79    0.50
  11  -4  -5    9.09    0.83
  11  -4  -5    8.29    0.73
  11  -4  -5    8.17    0.75
 -11   4   5    9.48    0.82
  10  -4  -5    8.03    0.75
  10  -4  -5    6.35    0.64
  10  -4  -5    6.81    0.64
 -10   4   5    5.70    0.65
 -10   4   5    7.12    0.66
   9  -4  -5    2.02    0.47
   9  -4  -5    1.81    0.43
   9  -4  -5    2.63    0.44
  -9   4   5    2.11    0.45
  -9   4   5    2.57    0.43
   8  -4  -5   19.69    1.17
   8  -4  -5   21.33    1.20
   8  -4  -5   20.83    1.21
  -8   4   5   19.91    1.17
  -8   4   5   20.64    1.19
   7  -4  -5   36.70    1.94
   7  -4  -5   41.79    1.96
   7  -4  -5   40.56    1.94
  -7   4   5   39.78    1.94
  -7   4   5   37.13    1.92
   6  -4  -5    0.32    0.30
   6  -4  -5    0.36    0.29
   6  -4  -5    0.57    0.32
  -6   4   5    0.51    0.29
  -6   4   5   -0.06    0.27
  -6   4   5    0.47    0.28
   5  -4  -5   12.14    0.83
   5  -4  -5   13.24    0.83
   5  -4  -5   12.26    0.82
  -5   4   5   12.84    0.81
  -5   4   5   13.63    0.83
  -5   4   5   13.48    0.82
   4  -4  -5   22.14    1.17
   4  -4  -5   21.44    1.16
   4  -4  -5   22.15    1.16
  -4   4   5   23.18    1.14
  -4   4   5   20.38    1.16
  -4   4   5   21.13    1.14
   3  -4  -5   14.81    0.85
   3  -4  -5   14.09    0.83
   3  -4  -5   14.94    0.84
  -3   4   5   14.40    0.88
  -3   4   5   13.86    0.80
  -3   4   5   13.55    0.81
   2  -4  -5    6.01    0.48
  -2  -4   5    5.62    0.45
   2  -4  -5    6.54    0.51
  -2  -4   5    5.38    0.45
   2  -4  -5    6.24    0.50
  -2   4   5    5.94    0.46
  -2   4   5    6.48    0.56
  -2   4   5    5.66    0.47
   1  -4  -5   63.47    2.86
  -1  -4   5   62.01    2.85
   1  -4  -5   64.43    2.87
  -1  -4   5   63.57    2.85
  -1   4   5   63.35    2.83
  -1   4   5   62.80    2.93
   0  -4   5    3.50    0.35
   0  -4  -5    2.81    0.32
   0  -4   5    3.57    0.36
   0  -4  -5    3.26    0.33
   0   4   5    3.16    0.44
   0   4   5    3.32    0.42
   1  -4   5    1.92    0.31
   1  -4   5    1.56    0.28
   1   4   5    2.04    0.36
   1   4   5    1.66    0.39
   2  -4   5   36.23    1.73
   2  -4   5   36.13    1.72
   2   4   5   33.61    1.80
   2   4   5   36.55    1.79
   3  -4   5   61.12    2.86
   3  -4   5   63.95    2.86
   3   4   5   62.01    2.95
   3   4   5   61.73    2.91
   4  -4   5    4.01    0.44
   4  -4   5    3.34    0.51
   4  -4   5    4.40    0.46
   4   4   5    4.83    0.50
   4   4   5    3.96    0.51
   5  -4   5   32.35    1.72
   5  -4   5   32.98    1.61
   5  -4   5   30.73    1.61
   5   4   5   32.13    1.66
   5   4   5   30.71    1.70
   6  -4   5   23.39    1.31
   6  -4   5   23.96    1.44
   6  -4   5   23.54    1.32
   6   4   5   24.94    1.43
   6   4   5   25.86    1.35
   7  -4   5    6.95    0.76
   7  -4   5    7.06    0.62
   7  -4   5    7.42    0.66
   7   4   5    6.22    0.72
   7   4   5    8.23    0.68
   8  -4   5   13.52    1.18
   8  -4   5   14.14    0.97
   8  -4   5   15.81    1.01
   8   4   5   13.61    0.98
   8   4   5   14.75    1.11
   9  -4   5   24.75    1.62
   9  -4   5   23.66    1.39
   9  -4   5   23.32    1.35
   9   4   5   24.45    1.54
  10  -4   5    0.45    0.57
  10  -4   5    0.37    0.41
  10  -4   5    0.00    0.39
  10   4   5    0.57    0.52
  10   4   5    0.60    0.54
   9  -5  -5    0.83    0.47
   9  -5  -5    0.74    0.46
  -9   5   5    1.05    0.43
   8  -5  -5   -0.11    0.37
   8  -5  -5   -0.19    0.39
   8  -5  -5    0.32    0.43
  -8   5   5    0.37    0.37
   7  -5  -5    0.07    0.40
   7  -5  -5    0.28    0.37
   7  -5  -5    0.15    0.41
  -7   5   5    0.25    0.35
   6  -5  -5    0.94    0.42
   6  -5  -5    1.88    0.43
   6  -5  -5    1.80    0.43
  -6   5   5    1.04    0.39
  -6   5   5    1.17    0.35
   5  -5  -5    0.38    0.35
   5  -5  -5   -0.37    0.31
   5  -5  -5    0.15    0.34
  -5   5   5   -0.19    0.33
  -5   5   5    0.23    0.29
   4  -5  -5    1.27    0.38
   4  -5  -5    0.27    0.33
   4  -5  -5    0.82    0.37
  -4   5   5    0.63    0.35
   3  -5  -5   -0.09    0.30
   3  -5  -5   -0.23    0.29
   3  -5  -5    0.09    0.30
  -3   5   5   -0.15    0.33
   2  -5  -5    0.72    0.32
   2  -5  -5    0.82    0.32
   2  -5  -5    0.84    0.32
  -2   5   5    0.77    0.36
   1  -5  -5    0.14    0.27
   1  -5  -5    0.50    0.28
  -1  -5   5    0.34    0.27
   1  -5  -5    0.79    0.31
  -1  -5   5    0.38    0.29
  -1   5   5    0.50    0.37
   0  -5  -5    5.98    0.52
   0  -5   5    6.09    0.54
   0  -5  -5    7.45    0.55
   0  -5   5    7.65    0.58
   0   5   5    5.28    0.61
   1  -5   5   13.47    0.87
   1  -5   5   14.33    0.89
   1   5   5   13.61    0.99
   2  -5   5   27.99    1.53
   2  -5   5   31.51    1.53
   2   5   5   29.58    1.67
   2   5   5   29.53    1.62
   3  -5   5    7.92    0.66
   3  -5   5    9.20    0.75
   3   5   5    8.53    0.80
   3   5   5    7.84    0.73
   4  -5   5    1.55    0.39
   4  -5   5    1.94    0.42
   4   5   5    1.62    0.49
   4   5   5    1.23    0.44
   5  -5   5    1.04    0.40
   5  -5   5    0.65    0.47
   5  -5   5    0.79    0.38
   5   5   5    0.95    0.47
   5   5   5    1.21    0.44
   6  -5   5    0.64    0.40
   6  -5   5    1.16    0.43
   6  -5   5    1.66    0.54
   6   5   5    0.84    0.44
   6   5   5    1.12    0.49
   7  -5   5    1.98    0.47
   7  -5   5    3.08    0.51
   7  -5   5    2.01    0.61
   7   5   5    1.46    0.55
   7   5   5    2.35    0.50
   8  -5   5   -0.12    0.52
   8  -5   5   -0.07    0.44
   8   5   5    0.17    0.49
   8   5   5    0.24    0.45
   6  -6  -5    4.04    0.63
   5  -6  -5    0.72    0.44
  -5   6   5    0.86    0.45
   4  -6  -5   21.68    1.27
   4  -6  -5   20.44    1.28
  -4   6   5   18.28    1.25
   3  -6  -5    0.27    0.40
   3  -6  -5    0.89    0.40
  -3   6   5    0.94    0.46
   2  -6  -5    0.70    0.38
   2  -6  -5    0.56    0.37
  -2   6   5    0.89    0.45
   1  -6  -5   11.13    0.88
   1  -6  -5   13.51    0.89
  -1   6   5   11.58    0.98
   0  -6   5   11.99    0.99
   0   6   5   11.18    1.01
   1  -6   5    0.25    0.36
   1  -6   5   -0.32    0.37
   1   6   5    0.16    0.42
   2  -6   5    7.13    0.71
   2  -6   5    6.55    0.65
   2   6   5    7.27    0.77
   3  -6   5    6.17    0.64
   3  -6   5    5.04    0.63
   3   6   5    4.55    0.67
   4  -6   5    0.74    0.49
   4  -6   5    0.59    0.46
   4   6   5    0.72    0.49
   5  -6   5    1.34    0.51
   5  -6   5    1.86    0.66
   5   6   5    1.23    0.56
  14   0  -6    0.06    0.43
  13   0  -6   29.91    1.64
  12   0  -6   41.89    2.09
  11   0  -6    8.17    0.68
 -10   0   6   59.23    2.72
 -10   0   6   60.55    2.72
  10   0  -6   60.13    2.79
  -9   0   6  182.09    7.75
  -9   0   6  175.48    7.76
   9   0  -6  176.53    7.80
   8   0  -6   53.73    2.52
  -8   0   6   54.75    2.48
  -8   0   6   56.74    2.49
   7   0  -6   10.31    0.51
  -7   0   6    9.69    0.56
   7   0  -6    9.90    0.59
  -7   0   6   10.51    0.58
   7   0  -6    9.59    0.51
   6   0  -6  431.04   18.61
  -6   0   6  444.51   18.57
  -6   0   6  417.82   18.60
   6   0  -6  438.77   18.56
   6   0  -6  428.29   18.57
  -5   0   6  197.90    8.48
   5   0  -6  192.99    8.44
  -5   0   6  191.89    8.47
   5   0  -6  198.24    8.45
   5   0  -6  194.39    8.47
  -5   0   6  198.80    8.49
  -4   0   6   51.68    2.24
  -4   0   6   51.49    2.23
   4   0  -6   49.96    2.21
   4   0  -6   50.97    2.19
  -4   0   6   43.09    2.24
   3   0  -6  197.78    8.55
  -3   0   6  205.88    8.59
  -3   0   6  205.45    8.51
  -3   0   6  201.42    8.59
  -3   0   6  177.71    8.62
  -2   0   6  190.88    8.44
  -2   0   6  192.46    8.39
  -2   0   6  204.67    8.34
  -2   0   6  184.77    8.38
  -1   0   6  111.04    4.74
  -1   0   6  103.98    4.67
  -1   0   6   99.95    4.66
  -1   0   6  109.78    4.66
   0   0   6  293.30   12.94
   0   0   6  288.28   12.94
   0   0   6  291.85   12.97
   0   0   6  325.37   13.03
   1   0   6  228.84    9.89
   1   0   6  232.49    9.95
   1   0   6  234.45    9.96
   1   0   6  215.45    9.85
   1   0   6  229.51    9.89
   2   0   6    5.28    0.45
   2   0   6    2.87    0.29
   2   0   6    5.28    0.38
   2   0   6    2.91    0.40
   2   0   6    4.74    0.37
   3   0   6  312.15   14.62
   3   0   6  347.49   14.65
   3   0   6  353.01   14.78
   3   0   6  340.63   14.64
   3   0   6  343.17   14.71
   4   0   6  216.35   10.00
   4   0   6  223.56   10.05
   4   0   6  240.13   10.00
   4   0   6  240.11   10.16
   4   0   6  232.95   10.00
   5   0   6   53.37    2.43
   5   0   6   58.19    2.63
   5   0   6   56.16    2.43
   5   0   6   48.68    2.44
   5   0   6   53.00    2.49
   6   0   6   54.53    2.43
   6   0   6   51.45    2.49
   6   0   6   57.02    2.66
   6   0   6   48.78    2.47
   6   0   6   58.14    2.43
   7   0   6  195.84    8.37
   7   0   6  182.03    8.18
   7   0   6  175.87    8.19
   7   0   6  194.53    8.11
   8   0   6   40.30    2.05
   8   0   6   36.48    1.85
   8   0   6   38.24    1.88
   9   0   6   27.61    1.53
   9   0   6   30.84    1.72
  10   0   6   47.18    2.46
  10   0   6   54.71    2.66
  11   0   6    5.92    0.78
  11   0   6    7.62    0.75
  12   0   6    0.24    0.52
  12   0   6   -0.74    0.43
  13   0   6   43.98    2.37
  13   0   6   46.50    2.51
  14  -1  -6   21.66    1.34
  14   1  -6   19.39    1.29
  13  -1  -6    4.27    0.61
  13   1  -6    6.09    0.63
  12  -1  -6   27.51    1.50
 -12   1   6   27.03    1.43
 -12   1   6   26.66    1.41
  12   1  -6   26.72    1.46
  11  -1  -6   44.69    2.17
  11   1  -6   43.62    2.14
 -11   1   6   43.37    2.11
 -11   1   6   45.35    2.11
  10  -1  -6   21.63    1.25
 -10   1   6   23.05    1.19
 -10   1   6   23.72    1.20
  10   1  -6   22.63    1.21
   9  -1  -6    1.13    0.21
   9  -1  -6    0.71    0.31
   9  -1  -6    1.17    0.20
   9   1  -6    1.13    0.27
  -9   1   6    1.25    0.27
  -9   1   6    1.09    0.27
   8  -1  -6  127.54    5.46
   8  -1  -6  124.77    5.45
  -8  -1   6  125.82    5.46
   8  -1  -6  124.91    5.53
  -8   1   6  124.33    5.49
  -8   1   6  122.13    5.49
   8   1  -6  124.93    5.49
   7  -1  -6  125.93    5.42
   7  -1  -6  125.20    5.46
  -7  -1   6  120.08    5.41
   7  -1  -6  126.39    5.41
  -7  -1   6  123.10    5.41
  -7   1   6  123.41    5.43
  -7   1   6  120.51    5.44
   7   1  -6  127.20    5.43
   6  -1  -6    0.12    0.14
  -6  -1   6    0.24    0.15
   6  -1  -6    0.16    0.14
   6  -1  -6    0.29    0.19
   6  -1  -6    0.09    0.10
  -6  -1   6   -0.05    0.14
  -6   1   6    0.03    0.16
   6   1  -6    0.18    0.14
  -6   1   6    0.16    0.11
  -6   1   6    0.20    0.16
   5  -1  -6   66.92    3.06
   5  -1  -6   71.24    3.08
  -5  -1   6   65.90    3.07
  -5  -1   6   67.36    3.07
   5  -1  -6   70.90    3.06
   5   1  -6   72.14    2.98
  -5   1   6   66.74    3.03
   5   1  -6   71.55    2.99
  -5   1   6   71.54    3.08
   5   1  -6   66.15    3.04
  -5   1   6   69.28    3.08
  -4  -1   6   87.87    4.37
  -4  -1   6  101.39    4.29
   4  -1  -6  101.76    4.36
   4  -1  -6  102.46    4.37
  -4  -1   6   93.47    4.38
  -4   1   6  101.29    4.37
   4   1  -6  102.83    4.30
   4   1  -6   99.75    4.32
  -4   1   6  101.26    4.34
  -4   1   6  101.85    4.36
  -3  -1   6   30.02    1.53
  -3  -1   6   32.56    1.53
  -3  -1   6   32.30    1.46
   3  -1  -6   33.11    1.51
  -3   1   6   33.46    1.51
  -3   1   6   34.22    1.48
  -3   1   6   33.40    1.51
   3   1  -6   33.01    1.46
  -3   1   6   32.83    1.52
  -2  -1   6   53.35    2.51
  -2  -1   6   55.53    2.51
  -2  -1   6   57.58    2.47
  -2   1   6   56.08    2.48
  -2   1   6   55.73    2.50
  -2   1   6   57.14    2.51
   2   1  -6   55.97    2.44
  -2   1   6   56.56    2.49
  -1  -1   6  288.25   12.48
  -1  -1   6  288.43   12.49
  -1  -1   6  277.34   12.49
  -1   1   6  280.99   12.48
  -1   1   6  299.35   12.48
  -1   1   6  290.44   12.51
  -1   1   6  301.11   12.49
   0  -1   6   76.50    3.42
   0  -1   6   70.59    3.41
   0  -1   6   76.47    3.41
   0   1   6   79.46    3.45
   0   1   6   79.36    3.40
   0   1   6   80.69    3.40
   0   1   6   78.01    3.42
   1  -1   6  185.10    8.15
   1  -1   6  186.10    8.16
   1  -1   6  190.99    8.19
   1  -1   6  181.65    8.11
   1   1   6  188.14    8.19
   1   1   6  186.25    8.20
   1   1   6  195.30    8.14
   1   1   6  190.71    8.14
   2  -1   6  419.80   18.55
   2  -1   6  432.04   18.52
   2  -1   6  428.27   18.55
   2  -1   6  422.04   18.61
   2   1   6  449.57   18.60
   2   1   6  442.23   18.52
   2   1   6  411.73   18.61
   2   1   6  426.50   18.56
   2   1   6  444.89   18.52
   3  -1   6   85.67    3.67
   3  -1   6   84.43    3.68
   3  -1   6   82.16    3.77
   3  -1   6   80.69    3.65
   3   1   6   84.54    3.72
   3   1   6   84.03    3.63
   3   1   6   86.83    3.62
   3   1   6   82.17    3.69
   3   1   6   76.28    3.76
   4  -1   6   15.60    0.79
   4  -1   6   13.43    0.90
   4  -1   6   15.22    0.78
   4  -1   6   14.04    0.86
   4  -1   6   14.13    0.76
   4   1   6   15.08    0.69
   4   1   6   15.15    0.81
   4   1   6   14.26    0.80
   4   1   6   14.50    0.69
   5  -1   6  184.77    8.02
   5  -1   6  162.37    8.09
   5  -1   6  191.11    8.01
   5  -1   6  176.29    8.17
   5  -1   6  188.53    8.02
   5   1   6  192.73    8.05
   5   1   6  192.15    8.05
   6  -1   6  102.96    5.65
   6  -1   6  130.36    5.60
   6  -1   6  124.33    5.51
   6  -1   6  126.17    5.50
   6  -1   6  130.14    5.52
   6   1   6  131.55    5.55
   6   1   6  129.75    5.53
   7  -1   6    1.15    0.26
   7  -1   6    0.89    0.24
   7  -1   6    1.54    0.31
   7  -1   6    0.83    0.39
   7  -1   6    1.73    0.32
   7   1   6    1.36    0.34
   7   1   6    1.34    0.27
   7   1   6    1.22    0.43
   8  -1   6   39.61    1.77
   8  -1   6   33.86    1.96
   8  -1   6   35.01    1.70
   8  -1   6   37.03    1.72
   8   1   6   36.23    1.79
   8   1   6   31.77    1.92
   8   1   6   34.64    1.69
   9  -1   6   31.62    1.52
   9  -1   6   27.76    1.70
   9   1   6   27.74    1.70
   9   1   6   26.68    1.52
  10  -1   6    2.44    0.57
  10  -1   6    1.32    0.41
  10   1   6    1.19    0.42
  10   1   6    0.57    0.49
  11  -1   6   15.67    1.22
  11  -1   6   14.67    1.05
  11   1   6   13.80    1.05
  11   1   6   13.60    1.19
  12  -1   6    5.57    0.81
  12  -1   6    7.36    0.78
  12   1   6    6.12    0.82
  12   1   6    8.65    0.83
  13  -1   6    0.24    0.56
  13  -1   6    0.06    0.49
  13   1   6    0.18    0.62
  13   1   6    0.54    0.53
  13  -2  -6    0.31    0.44
 -13   2   6    1.48    0.42
 -13   2   6    0.56    0.37
  12  -2  -6    0.30    0.40
 -12   2   6    0.59    0.35
 -12   2   6    1.19    0.37
  11  -2  -6    1.76    0.44
 -11   2   6    1.12    0.33
 -11   2   6    0.96    0.35
  10  -2  -6    8.25    0.60
  10  -2  -6    8.87    0.60
  10  -2  -6    7.53    0.68
 -10   2   6    8.40    0.66
 -10   2   6    8.67    0.67
   9  -2  -6   15.45    0.86
   9  -2  -6   15.33    0.95
   9  -2  -6   14.53    0.85
  -9   2   6   14.29    0.90
   9   2  -6   16.34    0.90
  -9   2   6   16.17    0.92
   8  -2  -6    9.01    0.66
   8  -2  -6    8.70    0.58
   8  -2  -6    8.02    0.59
  -8   2   6    8.60    0.63
   8   2  -6    9.27    0.60
  -8   2   6    8.91    0.63
   7  -2  -6    8.82    0.57
   7  -2  -6    7.87    0.59
   7  -2  -6    7.99    0.54
  -7   2   6    7.58    0.58
   7   2  -6    8.10    0.52
  -7   2   6    7.63    0.56
   6  -2  -6   26.43    1.36
   6  -2  -6   28.19    1.34
  -6  -2   6   25.64    1.31
   6  -2  -6   28.40    1.34
  -6   2   6   27.09    1.30
   6   2  -6   29.50    1.30
  -6   2   6   28.72    1.36
  -6   2   6   27.85    1.35
   5  -2  -6    7.22    0.48
   5  -2  -6    6.72    0.48
   5  -2  -6    6.89    0.50
  -5  -2   6    6.60    0.43
  -5  -2   6    6.97    0.44
  -5   2   6    6.60    0.49
  -5   2   6    6.97    0.44
   5   2  -6    6.84    0.40
  -5   2   6    7.06    0.49
  -4  -2   6    4.38    0.34
   4  -2  -6    5.11    0.39
  -4  -2   6    4.70    0.34
   4  -2  -6    4.87    0.40
   4   2  -6    4.98    0.29
  -4   2   6    4.88    0.40
  -4   2   6    5.16    0.40
  -4   2   6    4.69    0.36
   3  -2  -6   19.69    1.03
  -3  -2   6   21.51    1.00
   3  -2  -6   20.02    1.02
  -3  -2   6   21.61    1.01
  -3   2   6   21.37    1.04
  -3   2   6   19.93    1.03
  -3   2   6   22.58    1.05
  -3   2   6   21.36    1.04
  -2  -2   6    1.37    0.19
  -2  -2   6    1.37    0.18
  -2   2   6    1.49    0.21
  -2   2   6    1.45    0.21
  -2   2   6    1.06    0.20
  -2   2   6    1.67    0.23
  -1  -2   6    1.79    0.21
  -1  -2   6    1.64    0.20
  -1   2   6    1.92    0.21
  -1   2   6    1.87    0.24
  -1   2   6    1.62    0.24
  -1   2   6    1.74    0.21
   0  -2   6   65.32    2.94
   0  -2   6   67.13    2.95
   0  -2   6   64.77    2.98
   0   2   6   65.22    2.99
   0   2   6   69.09    2.93
   0   2   6   64.11    2.98
   0   2   6   68.90    2.93
   1  -2   6   18.47    0.94
   1  -2   6   17.73    0.82
   1  -2   6   17.20    0.90
   1  -2   6   17.54    0.89
   1   2   6   17.82    0.84
   1   2   6   17.93    0.93
   1   2   6   18.04    0.94
   1   2   6   18.10    0.84
   2  -2   6    2.19    0.26
   2  -2   6    2.19    0.31
   2  -2   6    2.88    0.28
   2  -2   6    2.60    0.22
   2   2   6    2.19    0.31
   2   2   6    2.74    0.20
   2   2   6    2.85    0.32
   2   2   6    2.51    0.20
   3  -2   6   28.38    1.35
   3  -2   6   27.76    1.41
   3  -2   6   28.08    1.30
   3  -2   6   28.78    1.36
   3   2   6   28.38    1.38
   3   2   6   27.29    1.42
   4  -2   6   31.62    1.60
   4  -2   6   32.42    1.51
   4  -2   6   30.88    1.52
   4  -2   6   30.31    1.47
   4   2   6   31.58    1.61
   4   2   6   33.27    1.56
   4   2   6   32.40    1.55
   5  -2   6    2.37    0.28
   5  -2   6    1.68    0.37
   5  -2   6    2.47    0.30
   5  -2   6    2.52    0.31
   5   2   6    2.01    0.30
   5   2   6    2.49    0.40
   5   2   6    1.77    0.32
   6  -2   6    3.99    0.39
   6  -2   6    5.07    0.58
   6  -2   6    4.81    0.43
   6  -2   6    3.67    0.39
   6   2   6    4.68    0.43
   6   2   6    3.78    0.52
   6   2   6    4.44    0.48
   7  -2   6   14.50    1.09
   7  -2   6   16.63    0.89
   7  -2   6   15.08    0.96
   7  -2   6   15.14    0.89
   7  -2   6   16.14    0.88
   7   2   6   13.94    0.95
   7   2   6   15.96    0.89
   7   2   6   14.94    1.08
   8  -2   6   25.97    1.33
   8  -2   6   25.54    1.34
   8  -2   6   29.35    1.38
   8  -2   6   24.26    1.59
   8   2   6   24.90    1.33
   8   2   6   25.96    1.57
   8   2   6   27.47    1.44
   9  -2   6    0.75    0.29
   9  -2   6    0.68    0.35
   9  -2   6    0.43    0.29
   9  -2   6    0.56    0.45
   9   2   6    0.85    0.41
   9   2   6    0.48    0.45
  10  -2   6    1.62    0.57
  10  -2   6    1.40    0.42
  10   2   6    0.96    0.44
  10   2   6    0.55    0.48
  11  -2   6    0.75    0.53
  11  -2   6    0.64    0.42
  11   2   6    0.89    0.48
  11   2   6    0.58    0.54
  12  -2   6    0.43    0.56
  12  -2   6    0.61    0.49
  12   2   6    0.52    0.48
  12   2   6    0.26    0.54
  12  -3  -6    0.94    0.47
 -12   3   6   -0.22    0.36
 -12   3   6    0.09    0.36
  11  -3  -6    0.42    0.45
  11  -3  -6    0.77    0.34
  11  -3  -6    0.35    0.31
 -11   3   6    0.77    0.37
 -11   3   6    0.75    0.40
  10  -3  -6    3.42    0.43
  10  -3  -6    2.92    0.43
  10  -3  -6    3.37    0.52
 -10   3   6    3.37    0.47
 -10   3   6    2.84    0.45
   9  -3  -6    0.23    0.35
   9  -3  -6    0.00    0.29
   9  -3  -6    0.13    0.28
  -9   3   6    0.50    0.31
  -9   3   6    0.12    0.31
   8  -3  -6    7.21    0.61
   8  -3  -6    8.12    0.66
   8  -3  -6    7.97    0.64
  -8   3   6    7.47    0.60
  -8   3   6    7.61    0.65
   7  -3  -6   13.26    0.82
   7  -3  -6   11.48    0.75
  -7   3   6   11.86    0.78
  -7   3   6   12.10    0.79
   6  -3  -6    1.38    0.31
   6  -3  -6    1.64    0.32
   6  -3  -6    1.44    0.30
  -6   3   6    1.21    0.29
  -6   3   6    1.06    0.27
  -6   3   6    1.03    0.25
   5  -3  -6   62.84    2.92
   5  -3  -6   64.98    2.90
  -5   3   6   63.30    2.90
  -5   3   6   63.77    2.90
  -5   3   6   63.75    2.89
  -4  -3   6   14.41    0.79
   4  -3  -6   15.02    0.88
  -4  -3   6   15.95    0.81
   4  -3  -6   16.57    0.88
  -4   3   6   15.64    0.87
  -4   3   6   17.53    0.89
  -4   3   6   17.14    0.88
   3  -3  -6    0.22    0.20
   3  -3  -6    0.31    0.23
   3  -3  -6    0.15    0.20
  -3  -3   6    0.67    0.18
  -3  -3   6    0.47    0.17
  -3   3   6    0.62    0.21
  -3   3   6    0.29    0.22
  -3   3   6    0.71    0.21
   2  -3  -6   17.97    0.88
  -2  -3   6   16.78    0.85
  -2  -3   6   17.04    0.84
  -2   3   6   15.77    0.85
  -2   3   6   16.13    0.91
  -2   3   6   16.38    0.92
  -2   3   6   16.34    0.86
  -1  -3   6   57.70    2.67
  -1  -3   6   62.57    2.67
  -1   3   6   59.89    2.66
  -1   3   6   57.92    2.73
  -1   3   6   61.96    2.73
  -1   3   6   57.53    2.65
   0  -3   6   10.18    0.60
   0  -3   6    9.86    0.61
   0   3   6    9.95    0.55
   0   3   6   10.46    0.55
   0   3   6   10.59    0.68
   1  -3   6    3.58    0.33
   1  -3   6    3.37    0.33
   1   3   6    3.71    0.26
   1   3   6    3.57    0.26
   1   3   6    2.57    0.34
   1   3   6    2.89    0.36
   2  -3   6   20.02    0.97
   2  -3   6   19.43    0.98
   2  -3   6   18.65    1.04
   2   3   6   17.52    1.03
   2   3   6   16.82    1.00
   3  -3   6    1.89    0.22
   3  -3   6    1.45    0.27
   3  -3   6    2.06    0.37
   3  -3   6    1.62    0.28
   3   3   6    1.83    0.32
   3   3   6    1.66    0.34
   4  -3   6    0.47    0.30
   4  -3   6    0.08    0.18
   4  -3   6    0.06    0.22
   4  -3   6    0.33    0.24
   4   3   6   -0.15    0.27
   4   3   6   -0.32    0.23
   5  -3   6    2.15    0.33
   5  -3   6    1.57    0.32
   5  -3   6    1.86    0.42
   5  -3   6    2.20    0.28
   5   3   6    1.54    0.33
   5   3   6    1.84    0.41
   6  -3   6    9.90    0.71
   6  -3   6    8.73    0.72
   6  -3   6   10.79    0.66
   6  -3   6   11.73    0.89
   6   3   6   10.24    0.72
   6   3   6   11.19    0.86
   6   3   6   10.08    0.79
   7  -3   6    1.11    0.33
   7  -3   6    0.88    0.44
   7  -3   6    1.10    0.33
   7  -3   6    1.34    0.31
   7   3   6    1.29    0.45
   7   3   6    0.90    0.32
   7   3   6    0.81    0.40
   8  -3   6   12.96    0.82
   8  -3   6   12.11    0.85
   8  -3   6   11.05    1.02
   8  -3   6   11.48    0.82
   8   3   6   11.50    0.82
   8   3   6   11.61    1.02
   8   3   6   12.39    0.92
   9  -3   6   15.06    0.98
   9  -3   6   13.42    0.94
   9  -3   6   13.82    1.21
   9  -3   6   15.45    0.97
   9   3   6   16.30    1.21
   9   3   6   14.97    1.06
  10  -3   6   -0.35    0.51
  10  -3   6    0.14    0.37
  10  -3   6   -0.03    0.33
  10  -3   6    0.43    0.37
  10   3   6    0.43    0.49
  10   3   6   -0.38    0.42
  11  -3   6    1.34    0.61
  11  -3   6    1.53    0.46
  11   3   6    0.80    0.55
  11   3   6    0.59    0.51
  11  -4  -6   -0.29    0.37
  11  -4  -6    0.18    0.36
  11  -4  -6    0.50    0.49
 -11   4   6    0.22    0.42
  10  -4  -6    6.07    0.61
  10  -4  -6    5.71    0.61
  10  -4  -6    5.29    0.66
 -10   4   6    5.50    0.61
 -10   4   6    5.72    0.63
   9  -4  -6   23.55    1.31
   9  -4  -6   23.72    1.37
   9  -4  -6   23.77    1.35
  -9   4   6   23.78    1.33
  -9   4   6   21.59    1.33
   8  -4  -6    4.71    0.52
   8  -4  -6    6.10    0.62
   8  -4  -6    4.74    0.55
  -8   4   6    5.56    0.57
  -8   4   6    6.65    0.59
   7  -4  -6   45.07    2.07
   7  -4  -6   43.08    2.04
   7  -4  -6   39.79    2.04
  -7   4   6   38.65    2.02
  -7   4   6   40.93    2.04
   6  -4  -6   46.87    2.26
   6  -4  -6   48.45    2.26
   6  -4  -6   47.26    2.24
  -6   4   6   47.16    2.22
  -6   4   6   45.22    2.22
  -6   4   6   45.16    2.24
   5  -4  -6    5.26    0.53
   5  -4  -6    5.51    0.54
   5  -4  -6    5.49    0.53
  -5   4   6    5.29    0.50
  -5   4   6    5.87    0.51
  -5   4   6    5.47    0.52
   4  -4  -6    9.57    0.68
   4  -4  -6    9.19    0.66
   4  -4  -6    8.65    0.66
  -4   4   6    8.56    0.67
  -4   4   6    9.04    0.65
  -4   4   6    8.14    0.63
  -3  -4   6   71.96    3.21
   3  -4  -6   72.73    3.22
   3  -4  -6   68.24    3.21
   3  -4  -6   70.69    3.22
  -3   4   6   69.25    3.19
  -3   4   6   72.08    3.25
  -3   4   6   69.53    3.19
  -2  -4   6   64.87    2.91
  -2  -4   6   64.33    2.90
   2  -4  -6   64.19    2.94
   2  -4  -6   64.73    2.95
   2  -4  -6   64.68    2.93
  -2   4   6   65.16    2.98
  -2   4   6   62.97    2.91
  -2   4   6   63.96    2.90
  -1  -4   6   10.00    0.64
   1  -4  -6    9.26    0.63
   1  -4  -6   10.10    0.65
  -1  -4   6    9.64    0.64
  -1   4   6    9.80    0.58
  -1   4   6    9.91    0.59
  -1   4   6    9.34    0.71
  -1   4   6   10.82    0.77
   0  -4   6  112.87    4.83
   0  -4  -6  107.43    4.81
   0  -4   6  107.91    4.82
   0   4   6  106.47    4.89
   0   4   6  109.90    4.93
   1  -4   6  122.19    5.37
   1  -4   6  123.83    5.39
   1   4   6  120.60    5.45
   1   4   6  119.94    5.47
   2  -4   6    0.11    0.25
   2  -4   6   -0.16    0.24
   2   4   6    0.03    0.28
   2   4   6    0.10    0.32
   3  -4   6   39.25    1.95
   3  -4   6   37.41    1.84
   3  -4   6   38.24    1.84
   3   4   6   36.27    1.90
   3   4   6   38.32    1.94
   4  -4   6   38.89    1.83
   4  -4   6   39.30    1.95
   4  -4   6   36.30    1.84
   4   4   6   35.14    1.92
   4   4   6   37.07    1.88
   5  -4   6    3.11    0.45
   5  -4   6    3.00    0.52
   5  -4   6    3.52    0.46
   5   4   6    3.56    0.49
   5   4   6    3.03    0.52
   6  -4   6    5.94    0.56
   6  -4   6    5.95    0.73
   6  -4   6    5.86    0.57
   6   4   6    5.91    0.69
   6   4   6    6.36    0.62
   7  -4   6   49.23    2.49
   7  -4   6   45.31    2.29
   7  -4   6   45.90    2.28
   7   4   6   47.34    2.44
   7   4   6   46.94    2.32
   8  -4   6   10.09    0.86
   8  -4   6    9.49    0.97
   8  -4   6    9.83    0.77
   8   4   6   10.78    1.00
   8   4   6    9.67    0.83
   9  -4   6    7.54    0.72
   9  -4   6    7.41    0.70
   9  -4   6    8.14    0.94
   9   4   6    9.19    0.93
  10  -4   6   14.89    1.37
  10  -4   6   13.05    1.03
  10  -4   6   13.18    1.02
  10   4   6   13.07    1.23
   9  -5  -6    0.27    0.47
   9  -5  -6    0.76    0.47
  -9   5   6    0.82    0.43
   8  -5  -6   21.49    1.27
   8  -5  -6   17.35    1.25
   8  -5  -6   19.60    1.26
  -8   5   6   18.46    1.21
  -8   5   6   21.47    1.23
   7  -5  -6   38.70    1.88
   7  -5  -6   36.09    1.83
   7  -5  -6   32.35    1.81
  -7   5   6   32.77    1.78
  -7   5   6   34.07    1.80
   6  -5  -6    0.00    0.37
   6  -5  -6    0.16    0.34
   6  -5  -6    0.33    0.39
  -6   5   6   -0.28    0.30
  -6   5   6   -0.06    0.57
   5  -5  -6   31.36    1.61
   5  -5  -6   28.77    1.60
   5  -5  -6   29.92    1.60
  -5   5   6   30.58    1.57
  -5   5   6   29.86    1.60
   4  -5  -6   55.23    2.51
   4  -5  -6   52.61    2.51
   4  -5  -6   52.41    2.52
  -4   5   6   52.27    2.54
  -4   5   6   49.10    2.46
   3  -5  -6    3.13    0.45
   3  -5  -6    3.79    0.48
   3  -5  -6    3.95    0.47
  -3   5   6    3.46    0.51
   2  -5  -6   18.21    1.04
   2  -5  -6   17.41    1.06
   2  -5  -6   18.82    1.07
  -2   5   6   17.71    1.12
  -1  -5   6   62.04    2.81
   1  -5  -6   61.25    2.81
  -1  -5   6   59.33    2.80
   1  -5  -6   60.44    2.81
   1  -5  -6   59.55    2.83
  -1   5   6   61.57    2.91
   0  -5   6   15.37    0.94
   0  -5  -6   15.76    0.93
   0  -5   6   15.39    0.95
   0  -5  -6   15.79    0.91
   0   5   6   15.62    1.04
   1  -5   6   10.54    0.78
   1  -5   6   11.46    0.81
   1   5   6   11.17    0.87
   1   5   6   10.66    0.95
   2  -5   6   24.61    1.32
   2  -5   6   23.79    1.30
   2   5   6   23.60    1.39
   2   5   6   24.00    1.46
   3  -5   6   13.93    0.98
   3  -5   6   15.78    1.03
   3   5   6   17.60    1.09
   3   5   6   15.63    1.16
   4  -5   6    1.01    0.48
   4  -5   6    0.71    0.39
   4  -5   6    0.96    0.38
   4   5   6    1.66    0.46
   4   5   6    1.15    0.49
   5  -5   6   22.47    1.36
   5  -5   6   23.51    1.50
   5  -5   6   22.20    1.32
   5   5   6   24.91    1.52
   5   5   6   23.65    1.42
   6  -5   6   12.32    1.11
   6  -5   6   12.68    0.97
   6  -5   6    9.78    0.83
   6   5   6   11.15    1.01
   6   5   6   11.38    0.97
   7  -5   6   -0.45    0.40
   7  -5   6   -0.52    0.40
   7  -5   6   -0.60    0.51
   7   5   6    0.02    0.40
   7   5   6    0.13    0.53
   8  -5   6   18.63    1.49
   8  -5   6   18.94    1.26
   8   5   6   17.66    1.37
   8   5   6   16.86    1.23
   5  -6  -6   11.83    0.93
   5  -6  -6   10.36    1.00
  -5   6   6   11.04    0.96
   4  -6  -6    1.98    0.49
   4  -6  -6    1.44    0.45
  -4   6   6    1.29    0.48
   3  -6  -6   21.07    1.31
   3  -6  -6   23.82    1.37
  -3   6   6   24.04    1.41
   2  -6  -6   11.51    0.91
   2  -6  -6   11.39    0.88
  -2   6   6   12.63    1.02
   1  -6  -6    0.60    0.36
   1  -6  -6    0.09    0.35
  -1   6   6    0.97    0.46
   0  -6   6    4.45    0.54
   0   6   6    4.43    0.66
   1  -6   6   14.70    1.01
   1  -6   6   13.18    1.00
   1   6   6   14.45    1.11
   2  -6   6    2.61    0.52
   2  -6   6    3.09    0.51
   2   6   6    2.88    0.59
   3  -6   6    9.48    0.83
   3  -6   6    9.19    0.79
   3   6   6    8.40    0.88
   4  -6   6    9.08    0.84
   4  -6   6   12.27    1.10
   4   6   6    8.91    0.96
  14   0  -7   -0.12    0.43
  13   0  -7   -0.24    0.38
  12   0  -7    0.00    0.35
  11   0  -7    0.13    0.30
 -10   0   7    0.10    0.23
 -10   0   7   -0.09    0.21
  10   0  -7    0.25    0.28
   9   0  -7   -0.09    0.24
  -9   0   7   -0.07    0.20
  -9   0   7   -0.09    0.20
   8   0  -7    0.07    0.20
  -8   0   7    0.25    0.19
  -8   0   7    0.13    0.18
   7   0  -7   -0.09    0.12
   7   0  -7   -0.05    0.11
  -7   0   7   -0.15    0.16
   7   0  -7    0.10    0.19
  -7   0   7    0.12    0.17
  -6   0   7    0.08    0.13
   6   0  -7   -0.13    0.15
  -6   0   7    0.03    0.17
  -6   0   7   -0.07    0.16
   6   0  -7    0.13    0.11
   6   0  -7    0.18    0.12
  -5   0   7   -0.20    0.15
   5   0  -7    0.11    0.12
   5   0  -7    0.07    0.11
  -5   0   7    0.13    0.17
   5   0  -7    0.24    0.15
  -5   0   7    0.05    0.15
  -4   0   7   -0.04    0.15
  -4   0   7    0.18    0.17
  -4   0   7   -0.17    0.16
   4   0  -7   -0.07    0.12
  -3   0   7   -0.40    0.15
  -3   0   7    0.02    0.19
   3   0  -7   -0.38    0.10
  -3   0   7   -0.38    0.15
  -3   0   7   -0.27    0.07
  -2   0   7   -0.08    0.16
  -2   0   7    0.04    0.19
  -2   0   7   -0.08    0.11
  -2   0   7   -0.23    0.15
  -1   0   7   -0.06    0.14
  -1   0   7   -0.31    0.14
  -1   0   7   -0.18    0.18
  -1   0   7    0.09    0.16
   0   0   7   -0.01    0.16
   0   0   7   -0.26    0.15
   0   0   7    0.07    0.22
   0   0   7   -0.12    0.18
   1   0   7    0.08    0.17
   1   0   7    0.27    0.22
   1   0   7    0.14    0.16
   1   0   7   -0.28    0.18
   2   0   7    0.03    0.16
   2   0   7   -0.07    0.21
   2   0   7   -0.06    0.17
   2   0   7   -0.12    0.14
   2   0   7   -0.15    0.20
   3   0   7    0.16    0.23
   3   0   7    0.08    0.17
   3   0   7   -0.15    0.16
   3   0   7    0.01    0.17
   3   0   7    0.39    0.27
   4   0   7   -0.04    0.17
   4   0   7    0.18    0.27
   4   0   7    0.24    0.17
   4   0   7   -0.17    0.18
   4   0   7   -0.29    0.20
   5   0   7    0.13    0.25
   5   0   7    0.12    0.22
   5   0   7    0.21    0.30
   5   0   7    0.12    0.17
   5   0   7    0.01    0.17
   6   0   7    0.23    0.25
   6   0   7    0.17    0.18
   6   0   7    0.04    0.17
   6   0   7    0.11    0.34
   6   0   7   -0.13    0.24
   7   0   7    0.29    0.36
   7   0   7   -0.09    0.25
   7   0   7    0.08    0.20
   7   0   7    0.58    0.30
   8   0   7   -0.06    0.32
   8   0   7    0.01    0.24
   8   0   7    0.18    0.40
   9   0   7   -0.28    0.35
   9   0   7   -0.21    0.40
  10   0   7    0.11    0.47
  10   0   7   -0.20    0.38
  11   0   7    0.41    0.49
  11   0   7   -0.05    0.44
  12   0   7   -0.81    0.49
  12   0   7   -0.28    0.45
  13   0   7    0.31    0.57
  13   0   7   -0.14    0.50
  14  -1  -7    2.39    0.54
  14   1  -7    2.51    0.54
  13  -1  -7   10.25    0.85
  13   1  -7    9.80    0.81
  12  -1  -7    4.74    0.57
 -12   1   7    4.11    0.49
  12   1  -7    4.72    0.54
 -12   1   7    4.15    0.47
  11  -1  -7    2.69    0.45
  11   1  -7    3.04    0.44
 -11   1   7    2.63    0.37
 -11   1   7    2.64    0.39
  10  -1  -7   15.51    0.96
 -10   1   7   16.13    0.92
 -10   1   7   14.71    0.90
  10   1  -7   16.05    0.92
   9  -1  -7   46.55    2.10
   9  -1  -7   46.20    2.19
   9  -1  -7   45.89    2.09
   9   1  -7   44.95    2.15
  -9   1   7   47.33    2.16
  -9   1   7   44.94    2.15
   8  -1  -7    1.14    0.22
  -8  -1   7    1.35    0.24
   8  -1  -7    1.00    0.21
   8  -1  -7    0.62    0.27
  -8  -1   7    0.90    0.23
   8   1  -7    1.23    0.25
  -8   1   7    1.44    0.27
  -8   1   7    0.75    0.23
   7  -1  -7   53.43    2.36
  -7  -1   7   52.30    2.37
   7  -1  -7   52.45    2.35
   7  -1  -7   51.81    2.41
  -7  -1   7   51.64    2.37
  -7   1   7   51.49    2.39
  -7   1   7   52.62    2.39
   7   1  -7   52.67    2.37
   6  -1  -7   38.41    1.81
   6  -1  -7   38.26    1.78
  -6  -1   7   37.65    1.79
  -6  -1   7   39.95    1.80
   6  -1  -7   38.83    1.77
  -6   1   7   39.84    1.81
  -6   1   7   36.71    1.74
   6   1  -7   39.00    1.77
  -6   1   7   40.91    1.82
   5  -1  -7   11.87    0.63
  -5  -1   7    9.95    0.64
   5  -1  -7   11.37    0.65
  -5  -1   7   11.77    0.65
   5  -1  -7   10.88    0.61
  -5   1   7   11.88    0.66
   5   1  -7   11.07    0.59
  -5   1   7   11.97    0.65
   5   1  -7   11.32    0.55
  -5   1   7   10.68    0.59
   5   1  -7   12.33    0.54
   4  -1  -7   52.62    2.34
  -4  -1   7   54.24    2.28
   4  -1  -7   53.24    2.33
  -4  -1   7   46.58    2.35
  -4  -1   7   47.42    2.34
  -4   1   7   53.08    2.34
  -4   1   7   50.92    2.35
  -4   1   7   52.43    2.33
   4   1  -7   54.44    2.29
  -3  -1   7   72.54    3.10
   3  -1  -7   73.81    3.13
  -3  -1   7   64.87    3.15
  -3  -1   7   63.37    3.15
  -3   1   7   69.93    3.09
  -3   1   7   72.86    3.14
  -3   1   7   72.23    3.14
   3   1  -7   72.49    3.07
  -3   1   7   71.26    3.14
  -2  -1   7   21.15    1.00
  -2  -1   7   20.75    1.05
  -2  -1   7   19.35    1.05
  -2   1   7   21.86    1.04
   2   1  -7   21.68    0.95
  -2   1   7   21.45    1.05
  -2   1   7   20.90    1.03
  -2   1   7   20.51    0.99
  -1  -1   7   14.98    0.81
  -1  -1   7   15.03    0.79
  -1  -1   7   14.13    0.80
  -1   1   7   14.60    0.77
  -1   1   7   16.18    0.80
  -1   1   7   17.08    0.85
  -1   1   7   15.24    0.80
   0  -1   7   43.31    2.13
   0  -1   7   47.68    2.15
   0  -1   7   45.77    2.13
   0   1   7   46.88    2.18
   0   1   7   46.18    2.13
   0   1   7   48.98    2.12
   0   1   7   47.15    2.12
   1  -1   7   54.93    2.57
   1  -1   7   56.21    2.53
   1  -1   7   55.65    2.53
   1  -1   7   54.65    2.47
   1   1   7   60.17    2.52
   1   1   7   54.32    2.58
   1   1   7   55.80    2.51
   1   1   7   55.47    2.56
   2  -1   7    1.00    0.25
   2  -1   7    0.80    0.17
   2  -1   7    1.10    0.21
   2  -1   7    0.64    0.26
   2  -1   7    1.04    0.21
   2   1   7    1.21    0.20
   2   1   7    1.10    0.27
   2   1   7    1.22    0.19
   2   1   7    0.68    0.23
   3  -1   7  117.28    5.00
   3  -1   7  114.00    5.00
   3  -1   7  114.93    5.08
   3  -1   7  116.31    4.97
   3  -1   7  110.74    5.10
   3   1   7  120.21    4.96
   3   1   7   98.52    5.08
   3   1   7  114.51    4.96
   3   1   7  111.38    5.05
   3   1   7  116.09    5.01
   4  -1   7   21.34    1.07
   4  -1   7   19.54    1.20
   4  -1   7   21.72    1.07
   4  -1   7   22.70    1.06
   4  -1   7   19.89    1.16
   4   1   7   20.45    0.98
   4   1   7   20.59    1.11
   4   1   7   23.41    1.10
   4   1   7   19.86    0.99
   5  -1   7    0.18    0.27
   5  -1   7    0.60    0.22
   5  -1   7    0.70    0.24
   5  -1   7    0.50    0.22
   5  -1   7    0.99    0.38
   5   1   7    0.71    0.12
   5   1   7    0.82    0.12
   5   1   7   -0.18    0.30
   5   1   7    0.59    0.24
   5   1   7    0.78    0.29
   6  -1   7    6.11    0.51
   6  -1   7    7.67    0.62
   6  -1   7    6.68    0.74
   6  -1   7    6.74    0.53
   6  -1   7    6.44    0.53
   6   1   7    7.34    0.56
   6   1   7    7.92    0.60
   6   1   7    5.08    0.65
   7  -1   7   19.10    1.04
   7  -1   7   15.19    1.16
   7  -1   7   17.85    0.96
   7  -1   7   19.34    1.02
   7  -1   7   15.92    0.96
   7   1   7   18.48    1.04
   7   1   7   18.24    0.99
   7   1   7   16.02    1.19
   8  -1   7    0.54    0.25
   8  -1   7    0.79    0.25
   8  -1   7    0.62    0.44
   8  -1   7    1.11    0.46
   8  -1   7    0.27    0.33
   8   1   7    0.49    0.26
   8   1   7    0.41    0.44
   8   1   7    0.36    0.36
   9  -1   7    2.14    0.54
   9  -1   7    2.04    0.44
   9   1   7    2.08    0.59
   9   1   7    1.44    0.42
  10  -1   7   14.41    0.97
  10  -1   7   13.52    1.15
  10   1   7   12.29    0.97
  10   1   7   11.87    1.11
  11  -1   7    0.28    0.45
  11  -1   7   -0.03    0.47
  11   1   7   -0.38    0.45
  11   1   7    0.06    0.42
  12  -1   7    5.36    0.69
  12  -1   7    5.62    0.82
  12   1   7    4.70    0.69
  12   1   7    4.80    0.79
  13  -2  -7    0.86    0.45
 -13   2   7    2.05    0.44
 -13   2   7    0.39    0.39
  12  -2  -7    9.58    0.87
 -12   2   7   11.22    0.86
 -12   2   7   13.13    0.90
  11  -2  -7   47.39    2.35
 -11   2   7   47.29    2.31
 -11   2   7   47.84    2.29
  10  -2  -7    2.57    0.35
  10  -2  -7    2.80    0.47
  10  -2  -7    2.91    0.37
 -10   2   7    2.91    0.41
 -10   2   7    3.53    0.44
   9  -2  -7   30.61    1.47
   9  -2  -7   29.88    1.45
   9  -2  -7   29.56    1.53
  -9   2   7   29.63    1.51
  -9   2   7   28.72    1.49
   8  -2  -7   47.55    2.23
   8  -2  -7   47.77    2.22
   8  -2  -7   50.24    2.29
  -8   2   7   48.62    2.26
  -8   2   7   46.16    2.24
   7  -2  -7   27.66    1.38
   7  -2  -7   27.71    1.42
   7  -2  -7   27.96    1.37
  -7   2   7   29.63    1.41
  -7   2   7   28.39    1.41
   6  -2  -7    3.21    0.33
   6  -2  -7    2.05    0.29
  -6  -2   7    3.35    0.34
  -6  -2   7    2.67    0.31
   6  -2  -7    3.97    0.39
  -6   2   7    2.72    0.33
  -6   2   7    3.02    0.33
  -6   2   7    2.71    0.28
   5  -2  -7  163.27    7.14
  -5  -2   7  154.51    7.14
   5  -2  -7  167.87    7.15
  -5  -2   7  154.92    7.13
  -5   2   7  162.73    7.12
  -5   2   7  170.65    7.16
  -5   2   7  172.25    7.17
  -4  -2   7   77.08    3.36
  -4  -2   7   74.72    3.35
   4  -2  -7   74.90    3.37
   4  -2  -7   74.63    3.38
   4  -2  -7   77.83    3.36
  -4   2   7   73.71    3.37
  -4   2   7   75.67    3.36
  -4   2   7   75.64    3.37
  -3  -2   7   15.48    0.81
   3  -2  -7   17.08    0.85
  -3  -2   7   16.58    0.81
  -3   2   7   15.88    0.83
  -3   2   7   15.81    0.83
  -3   2   7   15.40    0.82
  -3   2   7   14.95    0.82
  -2  -2   7  160.54    7.00
  -2  -2   7  161.00    7.00
  -2   2   7  159.10    7.03
  -2   2   7  160.56    7.02
  -2   2   7  160.67    7.00
  -2   2   7  163.16    7.00
  -1  -2   7  150.30    6.54
  -1  -2   7  153.09    6.53
  -1  -2   7  146.27    6.55
  -1   2   7  149.63    6.57
  -1   2   7  150.41    6.53
  -1   2   7  144.35    6.56
  -1   2   7  155.83    6.53
   0  -2   7    9.50    0.59
   0  -2   7    9.20    0.57
   0  -2   7    9.67    0.57
   0   2   7    9.78    0.60
   0   2   7    9.77    0.54
   0   2   7   10.10    0.55
   0   2   7    9.23    0.61
   1  -2   7  138.90    6.21
   1  -2   7  141.00    6.20
   1  -2   7  140.91    6.13
   1  -2   7  140.08    6.24
   1   2   7  145.84    6.16
   1   2   7  142.63    6.25
   1   2   7  143.63    6.17
   1   2   7  142.81    6.26
   2  -2   7  123.52    5.47
   2  -2   7  124.78    5.42
   2  -2   7  123.35    5.48
   2  -2   7  125.27    5.54
   2   2   7  124.80    5.52
   2   2   7  128.13    5.41
   2   2   7  123.81    5.55
   2   2   7  124.44    5.41
   3  -2   7   19.32    0.95
   3  -2   7   19.38    1.00
   3  -2   7   19.60    1.01
   3  -2   7   19.70    1.09
   3   2   7   19.64    0.89
   3   2   7   20.01    1.05
   3   2   7   18.76    0.88
   3   2   7   20.43    1.11
   4  -2   7   79.95    3.60
   4  -2   7   78.42    3.46
   4  -2   7   76.89    3.49
   4  -2   7   78.70    3.50
   4   2   7   76.20    3.61
   4   2   7   78.83    3.54
   4   2   7   76.79    3.54
   5  -2   7  143.44    6.40
   5  -2   7  151.60    6.57
   5  -2   7  146.61    6.43
   5  -2   7  144.47    6.44
   5   2   7  149.68    6.48
   5   2   7  149.66    6.48
   5   2   7  139.55    6.57
   6  -2   7    6.92    0.53
   6  -2   7    5.54    0.64
   6  -2   7    6.92    0.54
   6  -2   7    6.13    0.51
   6  -2   7    6.84    0.62
   6   2   7    6.85    0.70
   6   2   7    6.81    0.60
   6   2   7    6.70    0.57
   7  -2   7   20.70    1.11
   7  -2   7   22.43    1.14
   7  -2   7   20.43    1.21
   7  -2   7   21.85    1.13
   7  -2   7   21.10    1.35
   7   2   7   19.90    1.19
   7   2   7   21.42    1.14
   7   2   7   17.46    1.29
   8  -2   7   28.75    1.36
   8  -2   7   22.41    1.58
   8  -2   7   27.99    1.39
   8  -2   7   26.10    1.37
   8   2   7   22.76    1.56
   8   2   7   25.91    1.45
   8   2   7   26.26    1.36
   9  -2   7   16.35    0.93
   9  -2   7   10.72    1.12
   9  -2   7   16.25    0.95
   9  -2   7   16.61    1.00
   9   2   7   11.87    1.18
   9   2   7   16.75    1.06
  10  -2   7    0.35    0.48
  10  -2   7    0.74    0.40
  10   2   7    0.48    0.52
  10   2   7    0.53    0.44
  11  -2   7   22.88    1.37
  11  -2   7   21.55    1.57
  11   2   7   24.79    1.43
  11   2   7   19.02    1.53
  12  -2   7   10.12    1.09
  12  -2   7   10.95    0.90
  12   2   7   10.15    0.95
  12   2   7    8.62    1.02
  12  -3  -7   12.51    0.99
 -12   3   7   11.09    0.93
 -12   3   7   10.59    1.16
  11  -3  -7    0.28    0.32
  11  -3  -7   -0.19    0.30
  11  -3  -7    1.04    0.47
 -11   3   7    0.93    0.40
 -11   3   7    0.82    0.37
  10  -3  -7   44.03    2.18
  10  -3  -7   46.62    2.21
  10  -3  -7   46.21    2.29
 -10   3   7   45.71    2.23
 -10   3   7   45.50    2.25
   9  -3  -7   38.02    1.91
   9  -3  -7   38.14    1.86
   9  -3  -7   34.59    1.82
  -9   3   7   37.92    1.87
  -9   3   7   38.99    1.89
   8  -3  -7    0.40    0.27
   8  -3  -7    0.28    0.28
   8  -3  -7   -0.02    0.32
  -8   3   7    0.29    0.29
  -8   3   7    0.05    0.28
   7  -3  -7   50.89    2.34
   7  -3  -7   50.21    2.38
   7  -3  -7   49.67    2.35
  -7   3   7   49.50    2.35
  -7   3   7   49.35    2.36
   6  -3  -7   44.37    2.08
   6  -3  -7   44.14    2.11
   6  -3  -7   43.59    2.08
  -6   3   7   45.11    2.05
  -6   3   7   43.67    2.09
  -6   3   7   42.80    2.08
   5  -3  -7    8.73    0.63
   5  -3  -7    8.06    0.60
   5  -3  -7    7.89    0.60
  -5   3   7    7.74    0.61
  -5   3   7    8.47    0.61
  -5   3   7    8.61    0.59
   4  -3  -7   33.98    1.61
   4  -3  -7   35.01    1.60
  -4  -3   7   33.13    1.54
  -4  -3   7   31.98    1.54
   4  -3  -7   31.56    1.59
  -4   3   7   33.58    1.60
  -4   3   7   31.30    1.58
  -4   3   7   32.77    1.60
   3  -3  -7  228.21   10.14
   3  -3  -7  231.94   10.12
  -3  -3   7  234.66   10.10
   3  -3  -7  232.74   10.13
  -3  -3   7  233.68   10.10
  -3   3   7  235.06   10.15
  -3   3   7  228.11   10.12
  -3   3   7  240.37   10.14
  -2  -3   7    0.54    0.20
  -2  -3   7    0.69    0.20
  -2   3   7    0.57    0.21
  -2   3   7    0.54    0.21
  -2   3   7    0.56    0.24
  -2   3   7    0.21    0.24
  -1  -3   7  108.91    4.62
  -1  -3   7  105.79    4.62
  -1   3   7  105.43    4.68
  -1   3   7  102.52    4.60
  -1   3   7  101.77    4.60
  -1   3   7  104.45    4.67
   0  -3   7   72.99    3.31
   0  -3   7   77.39    3.31
   0   3   7   74.48    3.37
   0   3   7   70.76    3.37
   0   3   7   74.22    3.27
   0   3   7   73.93    3.26
   1  -3   7   61.69    2.72
   1  -3   7   59.68    2.72
   1  -3   7   61.63    2.78
   1   3   7   59.17    2.64
   1   3   7   60.64    2.64
   1   3   7   55.44    2.76
   1   3   7   60.37    2.79
   2  -3   7   10.20    0.67
   2  -3   7   11.12    0.75
   2  -3   7   10.08    0.68
   2   3   7    9.44    0.73
   2   3   7   11.82    0.75
   3  -3   7  141.01    6.25
   3  -3   7  141.72    6.33
   3  -3   7  141.79    6.25
   3   3   7  139.68    6.30
   3   3   7  145.72    6.35
   4  -3   7   94.00    4.21
   4  -3   7   94.90    4.20
   4  -3   7   94.17    4.30
   4   3   7   96.29    4.26
   4   3   7   89.96    4.31
   5  -3   7    1.25    0.34
   5  -3   7    1.54    0.32
   5  -3   7    2.23    0.45
   5  -3   7    1.59    0.27
   5   3   7    1.54    0.35
   5   3   7    1.54    0.42
   6  -3   7   80.38    3.62
   6  -3   7   78.25    3.75
   6  -3   7   79.09    3.56
   6  -3   7   80.30    3.61
   6   3   7   76.40    3.64
   6   3   7   81.32    3.78
   7  -3   7   53.37    2.50
   7  -3   7   51.92    2.52
   7  -3   7   53.52    2.47
   7  -3   7   53.49    2.70
   7   3   7   51.29    2.53
   7   3   7   55.22    2.71
   7   3   7   52.00    2.59
   8  -3   7    0.07    0.31
   8  -3   7   -0.30    0.30
   8  -3   7   -0.36    0.31
   8  -3   7   -0.04    0.48
   8   3   7    0.16    0.41
   8   3   7   -0.21    0.44
   8   3   7   -0.54    0.28
   9  -3   7   29.62    1.85
   9  -3   7   28.52    1.55
   9  -3   7   29.85    1.56
   9  -3   7   30.86    1.59
   9   3   7   29.57    1.83
   9   3   7   28.35    1.64
  10  -3   7   13.71    1.01
  10  -3   7   14.78    1.00
  10  -3   7   15.68    1.04
  10  -3   7   12.74    1.28
  10   3   7   16.01    1.32
  10   3   7   15.78    1.13
  11  -3   7    2.74    0.54
  11  -3   7    2.23    0.66
  11   3   7    3.10    0.60
  11   3   7    2.54    0.70
  11  -4  -7   23.65    1.48
  11  -4  -7   24.33    1.40
 -11   4   7   24.08    1.45
  10  -4  -7    1.43    0.42
  10  -4  -7    1.73    0.44
  10  -4  -7    2.46    0.52
 -10   4   7    1.07    0.41
 -10   4   7    2.54    0.48
   9  -4  -7    7.87    0.69
   9  -4  -7    8.60    0.70
   9  -4  -7    7.15    0.73
  -9   4   7    7.87    0.71
  -9   4   7    6.40    0.65
   8  -4  -7   12.58    0.91
   8  -4  -7   14.05    0.95
   8  -4  -7   12.41    0.97
  -8   4   7   13.61    0.92
  -8   4   7   14.03    0.94
   7  -4  -7   35.26    1.73
   7  -4  -7   33.42    1.74
   7  -4  -7   34.03    1.76
  -7   4   7   33.82    1.72
  -7   4   7   32.65    1.73
   6  -4  -7    2.34    0.42
   6  -4  -7    1.45    0.38
   6  -4  -7    2.03    0.38
  -6   4   7    1.73    0.36
  -6   4   7    2.01    0.38
  -6   4   7    1.75    0.36
   5  -4  -7   55.55    2.60
   5  -4  -7   57.00    2.62
   5  -4  -7   55.95    2.59
  -5   4   7   52.24    2.58
  -5   4   7   52.90    2.57
  -5   4   7   57.67    2.60
   4  -4  -7   16.20    0.96
   4  -4  -7   15.44    0.95
   4  -4  -7   16.71    0.95
  -4   4   7   15.36    0.95
  -4   4   7   15.79    0.92
  -4   4   7   15.37    0.92
  -3  -4   7   -0.13    0.21
   3  -4  -7   -0.03    0.26
   3  -4  -7   -0.22    0.27
   3  -4  -7   -0.22    0.24
  -3   4   7    0.18    0.24
  -3   4   7    0.41    0.24
  -3   4   7    0.32    0.28
  -2  -4   7   29.93    1.46
   2  -4  -7   29.09    1.48
   2  -4  -7   30.90    1.50
  -2  -4   7   31.42    1.47
  -2   4   7   29.38    1.46
  -2   4   7   29.96    1.45
  -2   4   7   28.86    1.54
  -1  -4   7   75.88    3.28
   1  -4  -7   72.99    3.27
  -1  -4   7   72.79    3.27
  -1   4   7   71.01    3.36
  -1   4   7   71.78    3.23
  -1   4   7   71.17    3.22
  -1   4   7   71.09    3.34
   0  -4   7    0.39    0.26
   0  -4   7    0.69    0.26
   0   4   7    0.51    0.33
   0   4   7    0.77    0.33
   1  -4   7   72.27    3.25
   1  -4   7   66.61    3.23
   1   4   7   73.50    3.36
   1   4   7   73.63    3.33
   2  -4   7   26.75    1.42
   2  -4   7   28.17    1.52
   2  -4   7   28.74    1.44
   2   4   7   27.70    1.50
   2   4   7   28.93    1.56
   3  -4   7    3.45    0.43
   3  -4   7    3.47    0.44
   3  -4   7    4.24    0.56
   3   4   7    3.57    0.48
   3   4   7    3.76    0.54
   4  -4   7    4.82    0.60
   4  -4   7    5.94    0.54
   4  -4   7    5.54    0.54
   4   4   7    4.46    0.56
   4   4   7    4.99    0.62
   5  -4   7   39.06    1.95
   5  -4   7   39.10    1.94
   5  -4   7   38.72    2.08
   5   4   7   40.11    2.02
   5   4   7   39.57    2.11
   6  -4   7    2.79    0.57
   6  -4   7    2.08    0.42
   6  -4   7    1.73    0.41
   6   4   7    1.77    0.43
   6   4   7    1.90    0.54
   7  -4   7    1.41    0.41
   7  -4   7    2.17    0.59
   7  -4   7    1.54    0.44
   7   4   7    1.83    0.44
   7   4   7    1.29    0.53
   8  -4   7    5.47    0.83
   8  -4   7    4.17    0.56
   8  -4   7    6.09    0.65
   8   4   7    6.10    0.80
   8   4   7    5.82    0.63
   9  -4   7    3.27    0.57
   9  -4   7    4.65    0.80
   9  -4   7    4.39    0.57
   9   4   7    4.22    0.76
  10  -4   7    0.68    0.45
  10  -4   7    0.92    0.67
  10   4   7    0.23    0.57
   9  -5  -7   12.21    1.01
   9  -5  -7   12.99    1.06
  -9   5   7   12.58    1.02
   8  -5  -7    0.78    0.45
   8  -5  -7    0.32    0.44
  -8   5   7    0.28    0.39
  -8   5   7    0.64    0.41
   7  -5  -7    7.23    0.70
   7  -5  -7    8.38    0.75
   7  -5  -7    9.36    0.80
  -7   5   7    7.31    0.69
  -7   5   7    9.20    0.75
   6  -5  -7   -0.46    0.33
   6  -5  -7    0.16    0.37
   6  -5  -7    0.03    0.40
  -6   5   7    0.08    0.31
  -6   5   7   -0.30    0.32
   5  -5  -7   -0.14    0.34
   5  -5  -7   -0.21    0.37
   5  -5  -7    0.54    0.36
  -5   5   7    0.16    0.35
  -5   5   7   -0.24    0.30
  -5   5   7   -0.22    0.29
   4  -5  -7    0.04    0.34
   4  -5  -7   -0.08    0.33
   4  -5  -7   -0.02    0.32
  -4   5   7    0.24    0.29
  -4   5   7   -0.16    0.33
   3  -5  -7    0.11    0.30
   3  -5  -7    0.03    0.34
   3  -5  -7    0.16    0.31
  -3   5   7    0.41    0.36
  -3   5   7    0.62    0.28
   2  -5  -7   -0.08    0.28
   2  -5  -7   -0.41    0.30
   2  -5  -7    0.00    0.30
  -2   5   7    0.17    0.36
  -1  -5   7    0.25    0.31
   1  -5  -7   -0.14    0.27
  -1  -5   7   -0.01    0.27
   1  -5  -7    0.15    0.28
  -1   5   7    0.19    0.35
   0  -5  -7    0.23    0.28
   0  -5   7    0.33    0.31
   0  -5   7    0.70    0.33
   0  -5  -7    0.58    0.28
   0   5   7    0.75    0.39
   1  -5   7    5.35    0.54
   1  -5   7    5.90    0.57
   1   5   7    5.59    0.69
   1   5   7    5.64    0.65
   2  -5   7    0.87    0.36
   2  -5   7   -0.27    0.30
   2   5   7    0.25    0.39
   2   5   7    0.18    0.43
   3  -5   7    6.69    0.64
   3  -5   7    8.09    0.69
   3  -5   7    7.74    0.83
   3   5   7    8.66    0.78
   3   5   7    8.12    0.82
   4  -5   7    0.87    0.39
   4  -5   7    0.33    0.47
   4  -5   7   -0.20    0.38
   4   5   7    1.10    0.45
   4   5   7    0.83    0.49
   5  -5   7    0.71    0.42
   5  -5   7    2.11    0.60
   5  -5   7    0.86    0.44
   5   5   7    1.94    0.58
   5   5   7    1.98    0.52
   6  -5   7    0.90    0.59
   6  -5   7    1.10    0.47
   6  -5   7    0.77    0.45
   6   5   7    0.96    0.48
   6   5   7    1.28    0.59
   7  -5   7    3.95    0.76
   7  -5   7    3.43    0.61
   7   5   7    5.20    0.78
   7   5   7    3.56    0.60
   5  -6  -7    3.56    0.59
   5  -6  -7    3.28    0.56
  -5   6   7    3.21    0.58
   4  -6  -7   15.54    1.12
   4  -6  -7   16.11    1.14
  -4   6   7   16.26    1.15
   3  -6  -7    0.04    0.37
   3  -6  -7   -0.47    0.35
   3  -6  -7   -0.02    0.39
  -3   6   7    0.16    0.43
   2  -6  -7   13.45    0.97
   2  -6  -7   13.09    0.95
   2  -6  -7   14.35    0.99
  -2   6   7   12.20    1.08
   1  -6  -7    1.11    0.38
   1  -6  -7    0.87    0.39
   1  -6  -7    0.77    0.62
  -1   6   7    0.69    0.48
   0  -6   7    4.38    0.54
   0   6   7    3.90    0.64
   1  -6   7    0.29    0.37
   1  -6   7   -0.18    0.39
   1   6   7   -0.03    0.48
   2  -6   7    8.91    0.76
   2  -6   7    8.73    0.79
   2   6   7    8.46    0.96
   3  -6   7    1.83    0.64
   3  -6   7    2.75    0.55
   4  -6   7    0.25    0.46
   4  -6   7    0.51    0.61
   4   6   7    0.13    0.58
  14   0  -8   20.45    1.31
  13   0  -8   38.58    1.99
  12   0  -8    5.54    0.60
  11   0  -8   30.79    1.60
 -10   0   8   85.24    3.71
  10   0  -8   79.92    3.73
 -10   0   8   81.49    3.69
  -9   0   8   35.68    1.71
   9   0  -8   36.46    1.75
  -9   0   8   35.89    1.72
  -8   0   8   16.15    0.86
   8   0  -8   15.14    0.87
  -8   0   8   15.35    0.85
   7   0  -8  156.98    6.76
   7   0  -8  155.22    6.75
  -7   0   8  157.36    6.82
  -7   0   8  159.81    6.82
   7   0  -8  150.26    6.81
  -6   0   8   39.70    1.89
   6   0  -8   40.32    1.89
   6   0  -8   40.14    1.85
  -6   0   8   43.27    1.93
  -6   0   8   42.34    1.92
   6   0  -8   41.47    1.86
   5   0  -8    8.68    0.52
  -5   0   8    8.04    0.56
  -5   0   8    7.99    0.55
   5   0  -8    8.38    0.48
  -5   0   8    9.07    0.57
   5   0  -8    8.86    0.49
   4   0  -8  189.99    7.85
  -4   0   8  183.48    7.89
  -4   0   8  182.77    7.90
  -4   0   8  167.53    7.92
  -3   0   8  171.50    7.40
  -3   0   8  169.50    7.26
  -3   0   8  162.11    7.34
   3   0  -8  171.77    7.29
  -3   0   8  165.79    7.35
  -2   0   8   15.51    0.88
  -2   0   8   13.47    0.81
  -2   0   8   15.52    0.76
  -2   0   8   14.29    0.81
  -1   0   8  387.55   15.30
  -1   0   8  344.46   15.19
  -1   0   8  344.48   15.20
  -1   0   8  331.14   15.20
   0   0   8  821.85   33.35
   0   0   8  768.81   33.29
   0   0   8  748.01   33.26
   0   0   8  755.38   33.26
   1   0   8    5.00    0.48
   1   0   8    4.28    0.40
   1   0   8    4.26    0.45
   1   0   8    3.14    0.34
   2   0   8  106.80    5.15
   2   0   8  120.49    5.20
   2   0   8  120.81    5.27
   2   0   8  122.14    5.29
   2   0   8  118.51    5.19
   3   0   8  287.40   13.60
   3   0   8  326.21   13.64
   3   0   8  310.18   13.75
   3   0   8  332.19   13.72
   3   0   8  318.83   13.63
   4   0   8  193.18    8.52
   4   0   8  202.47    8.37
   4   0   8  196.08    8.45
   4   0   8  173.36    8.35
   4   0   8  194.24    8.36
   5   0   8   35.89    1.68
   5   0   8   31.08    1.69
   5   0   8   37.36    1.67
   5   0   8   35.05    1.76
   5   0   8   37.62    1.88
   6   0   8  171.63    7.13
   6   0   8  168.55    7.36
   6   0   8  161.09    7.23
   6   0   8  167.91    7.13
   6   0   8  147.39    7.17
   7   0   8   57.70    2.79
   7   0   8   57.13    2.80
   7   0   8   65.72    3.00
   8   0   8    3.62    0.50
   8   0   8    3.91    0.46
   8   0   8    5.39    0.70
   9   0   8   53.54    2.67
   9   0   8   58.05    2.86
  10   0   8   17.26    1.32
  10   0   8   18.59    1.18
  11   0   8    0.66    0.49
  11   0   8    1.03    0.57
  12   0   8    5.06    0.82
  12   0   8    4.53    0.70
  13  -1  -8    1.31    0.46
  13   1  -8    1.13    0.72
  12  -1  -8   22.26    1.39
 -12   1   8   26.60    1.38
  12   1  -8   25.08    1.38
 -12   1   8   25.68    1.35
  11  -1  -8   34.49    1.81
 -11   1   8   33.72    1.76
  11   1  -8   35.38    1.77
 -11   1   8   37.84    1.77
  10  -1  -8    2.32    0.41
 -10   1   8    2.61    0.37
  10   1  -8    2.06    0.36
 -10   1   8    2.59    0.38
   9  -1  -8   25.04    1.22
   9  -1  -8   26.30    1.22
   9  -1  -8   24.22    1.33
  -9   1   8   24.59    1.28
   9   1  -8   25.91    1.28
  -9   1   8   24.33    1.28
   8  -1  -8   97.85    4.39
   8  -1  -8   98.95    4.32
  -8  -1   8   98.80    4.34
  -8  -1   8   96.83    4.35
   8  -1  -8   98.09    4.33
   8   1  -8   98.42    4.35
  -8   1   8   98.99    4.36
  -8   1   8   96.29    4.37
   7  -1  -8   14.82    0.80
   7  -1  -8   14.85    0.86
   7  -1  -8   15.18    0.80
  -7  -1   8   15.80    0.84
  -7  -1   8   14.71    0.83
  -7   1   8   15.66    0.86
   7   1  -8   14.75    0.80
  -7   1   8   16.25    0.87
   6  -1  -8   55.69    2.52
   6  -1  -8   56.45    2.49
   6  -1  -8   54.43    2.48
  -6  -1   8   52.72    2.56
  -6  -1   8   54.42    2.50
  -6  -1   8   55.44    2.51
  -6   1   8   51.70    2.45
   6   1  -8   55.86    2.47
   6   1  -8   56.56    2.42
  -6   1   8   59.13    2.53
  -6   1   8   53.11    2.51
  -5  -1   8  116.55    5.25
   5  -1  -8  118.18    5.22
   5  -1  -8  119.95    5.25
   5  -1  -8  119.72    5.23
  -5  -1   8  112.01    5.25
  -5  -1   8  126.43    5.32
  -5   1   8  118.54    5.26
   5   1  -8  120.46    5.20
  -5   1   8  120.15    5.22
   5   1  -8  118.13    5.16
   5   1  -8  117.61    5.17
  -5   1   8  124.28    5.25
  -4  -1   8   12.79    0.70
  -4  -1   8   13.49    0.79
   4  -1  -8   14.39    0.77
  -4  -1   8   13.85    0.79
   4   1  -8   14.73    0.71
  -4   1   8   14.59    0.79
  -4   1   8   15.48    0.71
  -4   1   8   14.72    0.80
  -4   1   8   16.06    0.78
  -3  -1   8   99.06    4.57
  -3  -1   8   97.82    4.52
  -3  -1   8   96.72    4.57
  -3   1   8  104.60    4.55
  -3   1   8  105.14    4.50
  -3   1   8  107.86    4.57
   3   1  -8  104.47    4.48
  -3   1   8  108.69    4.56
  -2  -1   8  194.68    8.67
  -2  -1   8  192.41    8.64
  -2  -1   8  189.51    8.67
  -2   1   8  211.99    8.66
  -2   1   8  209.74    8.66
  -2   1   8  192.05    8.61
  -2   1   8  201.76    8.69
  -1  -1   8   42.55    2.06
  -1  -1   8   43.01    2.06
  -1  -1   8   43.43    2.05
  -1   1   8   46.41    2.05
  -1   1   8   44.83    2.10
  -1   1   8   45.95    2.05
  -1   1   8   43.47    2.02
   0  -1   8   25.52    1.27
   0  -1   8   25.08    1.26
   0  -1   8   24.24    1.25
   0   1   8   24.34    1.30
   0   1   8   26.39    1.24
   0   1   8   25.86    1.25
   0   1   8   24.86    1.24
   1  -1   8  276.94   11.30
   1  -1   8  262.26   11.23
   1  -1   8  256.39   11.28
   1  -1   8  259.83   11.22
   1   1   8  256.75   11.21
   1   1   8  256.43   11.20
   1   1   8  251.51   11.28
   1   1   8  248.07   11.25
   2  -1   8  112.32    5.04
   2  -1   8  114.05    4.97
   2  -1   8  109.23    5.04
   2  -1   8  119.16    4.90
   2  -1   8  115.14    4.96
   2   1   8  108.24    4.92
   2   1   8  109.07    4.93
   2   1   8  113.35    5.03
   2   1   8  107.31    5.02
   3  -1   8    7.70    0.46
   3  -1   8    7.29    0.65
   3  -1   8    5.42    0.55
   3  -1   8    6.36    0.52
   3  -1   8    7.41    0.53
   3   1   8    6.19    0.46
   3   1   8    5.82    0.44
   3   1   8    5.64    0.54
   3   1   8    6.20    0.62
   3   1   8    6.71    0.51
   4  -1   8   36.18    1.96
   4  -1   8   32.38    1.97
   4  -1   8   43.01    1.84
   4  -1   8   40.56    1.87
   4  -1   8   47.03    1.91
   4   1   8   33.28    1.98
   4   1   8   44.50    1.89
   4   1   8   38.32    1.79
   4   1   8   39.12    1.79
   4   1   8   37.92    1.92
   5  -1   8   43.07    1.89
   5  -1   8   37.78    1.90
   5  -1   8   33.52    2.05
   5  -1   8   40.35    1.92
   5  -1   8   39.31    2.00
   5   1   8   43.14    1.94
   5   1   8   36.85    2.07
   5   1   8   42.82    1.97
   5   1   8   41.42    1.81
   5   1   8   40.37    1.80
   6  -1   8   22.20    1.20
   6  -1   8   23.77    1.28
   6  -1   8   21.33    1.18
   6  -1   8   24.21    1.21
   6  -1   8   20.25    1.37
   6   1   8   22.51    1.23
   6   1   8   22.87    1.43
   6   1   8   25.32    1.25
   7  -1   8   29.24    1.41
   7  -1   8   25.63    1.38
   7  -1   8   24.75    1.37
   7  -1   8   28.69    1.45
   7  -1   8   25.19    1.60
   7   1   8   28.24    1.45
   7   1   8   30.32    1.68
   7   1   8   26.28    1.42
   8  -1   8   56.74    2.58
   8  -1   8   52.84    2.73
   8  -1   8   55.38    2.53
   8  -1   8   50.07    2.45
   8  -1   8   50.55    2.47
   8   1   8   53.13    2.54
   8   1   8   54.87    2.77
   8   1   8   51.19    2.50
   9  -1   8    0.39    0.37
   9  -1   8    0.57    0.47
   9   1   8   -0.05    0.49
   9   1   8    0.67    0.40
  10  -1   8    7.26    0.70
  10  -1   8    7.23    0.83
  10   1   8    6.41    0.70
  10   1   8    6.27    0.85
  11  -1   8   21.20    1.51
  11  -1   8   19.53    1.33
  11   1   8   22.78    1.36
  11   1   8   18.75    1.50
  12  -1   8    6.96    0.81
  12  -1   8    8.11    0.96
  12   1   8    9.98    1.03
  12   1   8    7.09    0.82
  13  -2  -8   10.54    0.94
 -13   2   8   11.31    0.93
 -13   2   8   11.76    0.91
  12  -2  -8    0.04    0.41
 -12   2   8    0.43    0.34
 -12   2   8    0.35    0.36
  11  -2  -8    0.62    0.41
 -11   2   8    1.50    0.40
 -11   2   8    0.80    0.35
  10  -2  -8   10.74    0.82
  10  -2  -8   10.27    0.69
  10  -2  -8    9.44    0.67
 -10   2   8    9.50    0.75
 -10   2   8    9.74    0.78
   9  -2  -8    6.20    0.50
   9  -2  -8    6.66    0.55
   9  -2  -8    7.51    0.64
  -9   2   8    6.13    0.55
  -9   2   8    6.06    0.56
   8  -2  -8    0.59    0.24
   8  -2  -8    0.41    0.29
   8  -2  -8    0.71    0.26
  -8   2   8    1.19    0.30
  -8   2   8    0.84    0.30
   7  -2  -8    3.05    0.34
   7  -2  -8    3.81    0.43
   7  -2  -8    3.08    0.35
  -7   2   8    3.47    0.39
  -7   2   8    2.91    0.37
   6  -2  -8    6.37    0.50
  -6  -2   8    5.93    0.50
  -6  -2   8    6.23    0.50
   6  -2  -8    6.43    0.53
   6  -2  -8    6.60    0.50
  -6   2   8    5.97    0.45
  -6   2   8    7.07    0.54
  -6   2   8    6.53    0.54
   5  -2  -8    9.02    0.58
  -5  -2   8    7.70    0.58
   5  -2  -8    7.79    0.56
  -5  -2   8    8.06    0.57
  -5   2   8    8.85    0.59
  -5   2   8    8.63    0.58
  -5   2   8    8.09    0.53
   4  -2  -8    2.96    0.34
   4  -2  -8    3.03    0.30
  -4  -2   8    2.20    0.30
  -4  -2   8    2.47    0.30
  -4  -2   8    2.54    0.25
  -4   2   8    2.14    0.29
  -4   2   8    2.46    0.30
  -4   2   8    2.59    0.29
  -3  -2   8    0.77    0.18
  -3  -2   8    0.52    0.20
  -3  -2   8    0.51    0.20
  -3   2   8    1.03    0.22
  -3   2   8    0.75    0.21
  -3   2   8    0.62    0.21
  -3   2   8    0.86    0.23
  -2  -2   8    0.15    0.17
  -2  -2   8    0.16    0.17
  -2  -2   8    0.35    0.19
  -2   2   8    0.33    0.20
  -2   2   8    0.28    0.20
  -2   2   8    0.42    0.19
  -2   2   8    0.16    0.19
  -1  -2   8   20.94    1.07
  -1  -2   8   20.23    1.05
  -1  -2   8   20.98    1.07
  -1   2   8   22.21    1.11
  -1   2   8   20.34    1.08
  -1   2   8   20.99    1.05
  -1   2   8   22.40    1.05
   0  -2   8   21.57    1.18
   0  -2   8   25.00    1.19
   0  -2   8   24.52    1.21
   0   2   8   24.67    1.23
   0   2   8   24.03    1.15
   0   2   8   24.64    1.16
   0   2   8   23.14    1.21
   1  -2   8    4.74    0.41
   1  -2   8    4.38    0.41
   1  -2   8    4.82    0.32
   1  -2   8    4.89    0.46
   1   2   8    5.66    0.50
   1   2   8    5.38    0.37
   1   2   8    5.36    0.38
   1   2   8    5.06    0.46
   2  -2   8   16.63    0.95
   2  -2   8   17.77    0.97
   2  -2   8   18.41    1.04
   2  -2   8   17.87    0.88
   2   2   8   19.52    0.89
   2   2   8   19.02    1.03
   2   2   8   18.36    0.88
   2   2   8   17.75    1.04
   3  -2   8   32.25    1.67
   3  -2   8   32.51    1.58
   3  -2   8   31.27    1.51
   3  -2   8   32.84    1.59
   3   2   8   31.97    1.46
   3   2   8   32.94    1.63
   3   2   8   33.77    1.47
   3   2   8   34.53    1.70
   4  -2   8    1.61    0.29
   4  -2   8    3.07    0.46
   4  -2   8    2.25    0.28
   4  -2   8    1.63    0.30
   4   2   8    1.80    0.42
   4   2   8    2.51    0.36
   5  -2   8   12.01    0.92
   5  -2   8   11.81    0.75
   5  -2   8   12.15    0.71
   5  -2   8   10.74    0.73
   5   2   8   11.10    0.89
   5   2   8   11.64    0.80
   5   2   8   11.25    0.77
   6  -2   8    4.87    0.46
   6  -2   8    4.36    0.55
   6  -2   8    5.00    0.46
   6  -2   8    5.39    0.50
   6  -2   8    5.31    0.67
   6   2   8    5.15    0.51
   6   2   8    4.97    0.52
   6   2   8    4.38    0.63
   7  -2   8   10.02    0.69
   7  -2   8    8.24    0.75
   7  -2   8    7.85    0.87
   7  -2   8    8.21    0.65
   7  -2   8    9.05    0.69
   7   2   8    7.53    0.67
   7   2   8    6.79    0.80
   7   2   8    7.57    0.67
   8  -2   8    0.03    0.29
   8  -2   8    0.09    0.30
   8  -2   8    0.45    0.46
   8  -2   8   -0.09    0.33
   8   2   8   -0.25    0.28
   8   2   8    0.10    0.39
   8   2   8   -0.39    0.45
   9  -2   8    4.07    0.48
   9  -2   8    4.04    0.50
   9  -2   8    5.30    0.56
   9  -2   8    3.06    0.69
   9   2   8    3.80    0.58
   9   2   8    3.03    0.69
  10  -2   8    0.96    0.56
  10  -2   8    1.25    0.45
  10   2   8    0.83    0.48
  10   2   8    0.40    0.57
  11  -2   8   13.23    1.05
  11  -2   8   13.68    1.26
  11   2   8   11.05    0.97
  11   2   8   12.12    1.19
  12  -3  -8    0.80    0.51
 -12   3   8    0.46    0.41
  11  -3  -8    1.11    0.36
  11  -3  -8    1.10    0.37
  11  -3  -8    1.38    0.49
 -11   3   8    0.83    0.41
 -11   3   8    1.17    0.40
  10  -3  -8    0.04    0.32
  10  -3  -8   -0.35    0.28
  10  -3  -8    0.00    0.39
 -10   3   8    0.27    0.33
 -10   3   8    0.12    0.34
   9  -3  -8    1.76    0.35
   9  -3  -8    1.29    0.36
   9  -3  -8    1.57    0.42
  -9   3   8    1.48    0.39
  -9   3   8    1.14    0.37
   8  -3  -8    8.18    0.70
   8  -3  -8    8.56    0.68
   8  -3  -8   10.28    0.77
  -8   3   8    9.56    0.72
  -8   3   8    9.95    0.75
   7  -3  -8    0.65    0.30
   7  -3  -8    0.63    0.32
   7  -3  -8    0.80    0.31
  -7   3   8    0.81    0.32
  -7   3   8    0.67    0.30
   6  -3  -8    3.56    0.40
   6  -3  -8    3.44    0.39
   6  -3  -8    3.36    0.44
  -6   3   8    3.76    0.43
  -6   3   8    3.74    0.41
  -6   3   8    3.55    0.39
   5  -3  -8    8.57    0.65
   5  -3  -8    8.94    0.64
   5  -3  -8    8.25    0.65
  -5   3   8    9.45    0.63
  -5   3   8    8.64    0.64
  -5   3   8    8.70    0.65
   4  -3  -8    9.56    0.68
  -4  -3   8   10.45    0.62
   4  -3  -8    9.98    0.65
   4  -3  -8   10.04    0.66
  -4  -3   8    9.17    0.62
  -4   3   8   10.28    0.66
  -4   3   8    9.88    0.68
  -4   3   8    8.64    0.65
   3  -3  -8    5.45    0.48
  -3  -3   8    5.06    0.41
   3  -3  -8    4.68    0.43
  -3  -3   8    4.60    0.41
  -3   3   8    4.95    0.45
  -3   3   8    4.75    0.43
  -3   3   8    4.66    0.46
  -3   3   8    5.44    0.45
  -2  -3   8    0.60    0.23
  -2  -3   8    0.62    0.22
  -2   3   8    0.53    0.25
  -2   3   8    0.69    0.23
  -2   3   8    0.96    0.28
  -2   3   8    0.58    0.23
  -1  -3   8   42.82    1.98
  -1  -3   8   43.42    1.98
  -1   3   8   43.49    1.95
  -1   3   8   41.11    1.96
  -1   3   8   41.99    2.03
  -1   3   8   41.18    2.03
   0  -3   8    2.89    0.39
   0  -3   8    3.46    0.37
   0  -3   8    3.48    0.36
   0   3   8    4.06    0.44
   0   3   8    4.19    0.34
   0   3   8    3.32    0.30
   0   3   8    3.38    0.42
   1  -3   8    7.84    0.59
   1  -3   8    7.49    0.57
   1  -3   8    9.07    0.64
   1   3   8    6.65    0.44
   1   3   8    7.97    0.66
   1   3   8    7.28    0.62
   1   3   8    7.82    0.46
   2  -3   8    1.37    0.31
   2  -3   8    2.21    0.32
   2  -3   8    1.30    0.36
   2   3   8    1.87    0.40
   2   3   8    2.06    0.37
   3  -3   8    0.03    0.26
   3  -3   8    0.35    0.36
   3  -3   8    0.02    0.25
   3   3   8    0.28    0.33
   3   3   8    0.18    0.30
   4  -3   8    7.18    0.58
   4  -3   8    6.59    0.66
   4  -3   8    6.63    0.56
   4   3   8    6.49    0.61
   4   3   8    6.29    0.66
   5  -3   8    8.45    0.79
   5  -3   8    6.81    0.61
   5  -3   8    8.02    0.62
   5   3   8    6.73    0.73
   5   3   8    7.93    0.71
   6  -3   8   -0.05    0.42
   6  -3   8    0.01    0.31
   6  -3   8    0.05    0.31
   6   3   8    0.11    0.33
   6   3   8   -0.20    0.42
   7  -3   8    3.58    0.49
   7  -3   8    2.59    0.43
   7  -3   8    1.63    0.58
   7   3   8    2.90    0.61
   7   3   8    2.95    0.53
   7   3   8    3.20    0.47
   8  -3   8    6.97    0.86
   8  -3   8    7.85    0.69
   8  -3   8    7.79    0.66
   8   3   8    7.30    0.68
   8   3   8    7.90    0.92
   8   3   8    7.07    0.75
   9  -3   8    1.58    0.43
   9  -3   8    1.22    0.64
   9  -3   8    1.60    0.50
   9  -3   8    0.50    0.38
   9   3   8    1.21    0.51
   9   3   8   -0.23    0.51
  10  -3   8    0.10    0.54
  10  -3   8    0.03    0.40
  10  -3   8    0.89    0.55
  10  -3   8    0.04    0.38
  10   3   8    0.42    0.49
  10   3   8   -0.69    0.53
  11  -3   8    0.61    0.76
  11  -3   8    0.66    0.59
  11   3   8    0.29    0.51
  11   3   8    0.13    0.62
  10  -4  -8   10.47    0.84
  10  -4  -8    8.61    0.78
  10  -4  -8   10.93    0.91
 -10   4   8    9.21    0.82
   9  -4  -8   18.52    1.20
   9  -4  -8   17.65    1.11
   9  -4  -8   17.73    1.14
  -9   4   8   18.41    1.16
  -9   4   8   16.73    1.12
   8  -4  -8    1.10    0.42
   8  -4  -8    0.79    0.35
   8  -4  -8    1.65    0.41
  -8   4   8    1.06    0.39
  -8   4   8    1.18    0.37
   7  -4  -8   57.94    2.71
   7  -4  -8   58.98    2.75
   7  -4  -8   56.84    2.73
  -7   4   8   53.93    2.72
  -7   4   8   58.03    2.71
   6  -4  -8   48.75    2.39
   6  -4  -8   51.30    2.38
   6  -4  -8   50.25    2.37
  -6   4   8   49.02    2.36
  -6   4   8   49.50    2.35
  -6   4   8   46.74    2.37
   5  -4  -8    6.49    0.58
   5  -4  -8    6.29    0.62
   5  -4  -8    6.76    0.60
  -5   4   8    6.27    0.56
  -5   4   8    6.07    0.58
  -5   4   8    7.01    0.59
   4  -4  -8   36.04    1.79
   4  -4  -8   35.13    1.76
  -4   4   8   36.09    1.79
  -4   4   8   35.90    1.74
  -4   4   8   34.83    1.76
   3  -4  -8   34.69    1.77
  -3  -4   8   38.05    1.74
  -3  -4   8   35.08    1.72
   3  -4  -8   36.36    1.78
   3  -4  -8   35.70    1.75
  -3   4   8   36.22    1.75
  -3   4   8   35.24    1.79
  -3   4   8   35.49    1.73
  -2  -4   8    6.19    0.50
  -2  -4   8    6.81    0.56
   2  -4  -8    7.10    0.57
   2  -4  -8    6.01    0.54
  -2   4   8    6.78    0.55
  -2   4   8    5.92    0.58
  -2   4   8    6.39    0.53
  -1  -4   8   20.45    1.07
  -1  -4   8   20.08    1.06
   1  -4  -8   18.18    1.04
  -1   4   8   20.04    1.18
  -1   4   8   20.19    1.13
  -1   4   8   18.10    1.00
  -1   4   8   18.99    0.99
   0  -4   8   39.69    1.85
   0  -4   8   37.07    1.83
   0   4   8   39.72    1.95
   0   4   8   35.04    1.89
   1  -4   8    9.12    0.69
   1  -4   8    7.92    0.73
   1  -4   8    7.84    0.66
   1   4   8    9.36    0.79
   1   4   8    8.68    0.74
   2  -4   8   29.36    1.58
   2  -4   8   28.43    1.48
   2  -4   8   29.28    1.50
   2   4   8   28.03    1.55
   2   4   8   28.84    1.61
   3  -4   8   28.17    1.46
   3  -4   8   27.48    1.46
   3  -4   8   26.49    1.55
   3   4   8   29.01    1.59
   3   4   8   28.04    1.54
   4  -4   8    0.18    0.42
   4  -4   8    0.60    0.34
   4  -4   8    0.24    0.33
   4   4   8    0.08    0.34
   4   4   8    1.09    0.45
   5  -4   8    2.89    0.46
   5  -4   8    2.06    0.56
   5  -4   8    2.44    0.45
   5   4   8    2.38    0.57
   5   4   8    2.21    0.46
   6  -4   8   20.29    1.26
   6  -4   8   21.13    1.24
   6  -4   8   20.74    1.45
   6   4   8   20.30    1.28
   6   4   8   22.71    1.44
   7  -4   8   13.92    1.04
   7  -4   8   14.80    1.03
   7  -4   8   14.73    1.26
   7   4   8   16.84    1.31
   7   4   8   15.03    1.08
   8  -4   8    0.19    0.55
   8  -4   8   -0.27    0.37
   8  -4   8   -0.16    0.40
   8   4   8    0.71    0.59
   8   4   8    0.19    0.41
   9  -4   8   16.94    1.19
   9  -4   8   15.60    1.31
   9  -4   8   20.12    1.57
   9   4   8   17.09    1.41
   8  -5  -8   14.53    1.12
   8  -5  -8   14.86    1.09
  -8   5   8   14.13    1.08
   7  -5  -8    0.14    0.42
   7  -5  -8   -0.01    0.40
   7  -5  -8   -0.15    0.36
  -7   5   8   -0.39    0.33
  -7   5   8   -0.55    0.35
   6  -5  -8   29.15    1.58
   6  -5  -8   29.40    1.61
   6  -5  -8   28.13    1.60
  -6   5   8   28.24    1.58
  -6   5   8   30.05    1.57
   5  -5  -8   48.92    2.45
   5  -5  -8   50.51    2.47
   5  -5  -8   51.92    2.45
  -5   5   8   51.16    2.41
  -5   5   8   49.66    2.43
  -5   5   8   48.01    2.45
   4  -5  -8    3.43    0.51
   4  -5  -8    3.14    0.49
   4  -5  -8    2.89    0.47
  -4   5   8    2.84    0.50
  -4   5   8    3.22    0.45
  -4   5   8    3.95    0.45
   3  -5  -8   13.03    0.90
   3  -5  -8   11.68    0.84
   3  -5  -8    9.96    0.84
  -3   5   8   12.14    0.89
  -3   5   8   10.73    0.90
   2  -5  -8   53.77    2.63
   2  -5  -8   54.58    2.66
   2  -5  -8   57.30    2.63
  -2   5   8   56.84    2.72
   1  -5  -8   20.76    1.14
  -1  -5   8   20.66    1.16
   1  -5  -8   19.21    1.15
  -1  -5   8   21.30    1.18
  -1   5   8   19.98    1.27
   0  -5  -8    4.76    0.47
   0  -5  -8    4.20    0.47
   0  -5   8    4.49    0.51
   0  -5   8    3.96    0.50
   0   5   8    4.71    0.61
   0   5   8    4.52    0.63
   1  -5   8   61.35    2.82
   1  -5   8   55.41    2.80
   1   5   8   59.58    2.95
   1   5   8   62.54    2.93
   2  -5   8   29.71    1.71
   2  -5   8   28.99    1.59
   2  -5   8   30.96    1.61
   2   5   8   30.06    1.74
   2   5   8   30.85    1.71
   3  -5   8    6.07    0.62
   3  -5   8    6.51    0.62
   3  -5   8    5.72    0.72
   3   5   8    5.60    0.68
   3   5   8    5.37    0.73
   4  -5   8   32.18    1.88
   4  -5   8   30.15    1.73
   4  -5   8   32.58    1.72
   4   5   8   33.73    1.90
   4   5   8   31.50    1.78
   5  -5   8   30.10    1.72
   5  -5   8   31.63    1.70
   5  -5   8   30.86    1.88
   5   5   8   32.10    1.89
   5   5   8   29.49    1.75
   6  -5   8   -0.06    0.56
   6  -5   8   -0.14    0.63
   6  -5   8   -0.24    0.44
   6   5   8    0.06    0.53
   6   5   8    0.09    0.44
   7  -5   8   20.93    1.44
   7  -5   8   24.17    1.65
   7   5   8   25.67    1.72
   7   5   8   21.31    1.42
   4  -6  -8   21.05    1.35
   4  -6  -8   21.20    1.33
  -4   6   8   22.31    1.39
   3  -6  -8   16.74    1.18
   3  -6  -8   19.45    1.21
   3  -6  -8   18.46    1.24
  -3   6   8   18.22    1.27
   2  -6  -8    1.53    0.46
   2  -6  -8    0.76    0.40
   2  -6  -8    1.01    0.41
  -2   6   8    1.40    0.49
   1  -6  -8   22.27    1.28
   1  -6  -8   21.34    1.29
   1  -6  -8   22.05    1.30
  -1   6   8   22.94    1.43
   0  -6  -8   11.86    0.91
   0  -6   8   10.32    0.83
   0  -6   8    9.90    0.90
   0   6   8   10.33    1.02
   1  -6   8    2.53    0.50
   1  -6   8    1.54    0.48
   2  -6   8    4.49    0.87
   2  -6   8    5.25    0.78
   2  -6   8    3.82    0.61
   3  -6   8   10.26    0.90
   3  -6   8    8.72    0.97
   3   6   8   10.18    1.05
  13   0  -9   -0.17    0.38
  12   0  -9    0.21    0.35
  11   0  -9    0.08    0.31
 -10   0   9   -0.11    0.26
 -10   0   9   -0.13    0.24
  10   0  -9   -0.42    0.27
   9   0  -9    0.17    0.25
  -9   0   9   -0.17    0.23
  -9   0   9   -0.27    0.21
   8   0  -9   -0.29    0.23
  -8   0   9   -0.05    0.21
  -8   0   9    0.22    0.23
   7   0  -9    0.10    0.14
  -7   0   9   -0.24    0.21
  -7   0   9    0.00    0.22
   7   0  -9    0.02    0.14
   7   0  -9    0.22    0.21
  -6   0   9   -0.22    0.18
   6   0  -9   -0.16    0.17
  -6   0   9   -0.30    0.21
   6   0  -9    0.04    0.14
  -6   0   9    0.00    0.22
   6   0  -9   -0.12    0.14
   5   0  -9    0.10    0.17
  -5   0   9   -0.26    0.19
   5   0  -9    0.02    0.14
  -5   0   9   -0.08    0.21
  -5   0   9    0.20    0.22
  -4   0   9   -0.16    0.21
   4   0  -9    0.00    0.15
  -4   0   9   -0.13    0.20
  -4   0   9    0.23    0.21
  -4   0   9   -0.15    0.10
  -3   0   9   -0.05    0.19
  -3   0   9   -0.12    0.19
  -3   0   9    0.22    0.13
   3   0  -9   -0.02    0.14
  -3   0   9    0.41    0.25
  -2   0   9   -0.29    0.18
  -2   0   9   -0.22    0.15
  -2   0   9   -0.10    0.22
  -2   0   9    0.02    0.21
  -1   0   9    0.31    0.24
  -1   0   9    0.07    0.20
  -1   0   9   -0.07    0.18
  -1   0   9    0.05    0.20
   0   0   9    0.31    0.23
   0   0   9    0.38    0.26
   0   0   9    0.58    0.21
   0   0   9    0.08    0.20
   1   0   9   -0.09    0.19
   1   0   9    0.11    0.23
   1   0   9    0.25    0.19
   1   0   9   -0.17    0.22
   2   0   9    0.34    0.27
   2   0   9   -0.02    0.27
   2   0   9    0.65    0.23
   2   0   9    0.14    0.20
   3   0   9    0.06    0.26
   3   0   9    0.02    0.19
   3   0   9   -0.05    0.20
   3   0   9    0.01    0.20
   3   0   9   -0.13    0.27
   4   0   9    0.31    0.21
   4   0   9    0.20    0.21
   4   0   9    0.01    0.26
   4   0   9    0.05    0.31
   4   0   9    0.12    0.23
   5   0   9   -0.17    0.28
   5   0   9   -0.05    0.21
   5   0   9   -0.10    0.25
   5   0   9   -0.29    0.34
   5   0   9    0.07    0.20
   6   0   9   -0.01    0.29
   6   0   9   -0.29    0.35
   6   0   9    0.12    0.21
   6   0   9    0.38    0.30
   6   0   9    0.20    0.22
   7   0   9    0.51    0.44
   7   0   9   -0.10    0.29
   7   0   9   -0.02    0.31
   8   0   9    0.09    0.45
   8   0   9    0.17    0.32
   8   0   9    0.10    0.36
   9   0   9    0.31    0.48
   9   0   9    0.24    0.41
  10   0   9   -0.15    0.49
  10   0   9   -0.28    0.42
  11   0   9   -0.40    0.51
  11   0   9    0.04    0.49
  12   0   9   -0.06    0.51
  12   0   9    0.03    0.59
  13  -1  -9    4.91    0.63
 -13   1   9    5.91    0.88
  12  -1  -9   -0.53    0.35
 -12   1   9    0.60    0.35
 -12   1   9   -0.08    0.30
  11  -1  -9   17.58    1.08
  11   1  -9   16.17    1.02
 -11   1   9   17.36    1.04
 -11   1   9   16.88    1.03
  10  -1  -9   11.49    0.84
 -10   1   9   11.90    0.79
  10   1  -9   11.01    0.77
 -10   1   9   12.15    0.80
   9  -1  -9    1.21    0.24
   9  -1  -9    0.43    0.21
   9  -1  -9    0.36    0.30
   9   1  -9    0.45    0.25
  -9   1   9    1.09    0.29
  -9   1   9    0.41    0.28
   8  -1  -9    5.22    0.42
  -8  -1   9    5.22    0.46
   8  -1  -9    4.37    0.46
  -8  -1   9    5.89    0.47
   8  -1  -9    4.74    0.41
   8   1  -9    5.79    0.46
  -8   1   9    5.52    0.48
  -8   1   9    5.10    0.47
   7  -1  -9   47.60    2.32
   7  -1  -9   47.85    2.27
  -7  -1   9   49.34    2.32
   7  -1  -9   46.51    2.26
  -7  -1   9   53.59    2.32
  -7   1   9   52.97    2.34
   7   1  -9   51.97    2.28
  -7   1   9   49.99    2.34
   6  -1  -9    3.37    0.37
   6  -1  -9    3.91    0.36
  -6  -1   9    3.48    0.38
  -6  -1   9    3.58    0.43
  -6  -1   9    3.24    0.37
   6  -1  -9    3.66    0.33
   6   1  -9    4.17    0.29
  -6   1   9    4.19    0.40
  -6   1   9    3.79    0.34
   6   1  -9    3.90    0.33
  -6   1   9    4.35    0.41
   6   1  -9    3.98    0.28
  -5  -1   9   45.06    2.17
  -5  -1   9   43.43    2.23
   5  -1  -9   46.88    2.15
   5  -1  -9   47.04    2.13
  -5  -1   9   44.06    2.16
  -5   1   9   50.37    2.19
  -5   1   9   47.64    2.17
  -5   1   9   47.39    2.14
   5   1  -9   46.37    2.09
   5   1  -9   46.83    2.07
   4  -1  -9   75.07    3.29
  -4  -1   9   71.01    3.33
  -4  -1   9   71.34    3.32
  -4  -1   9   78.14    3.40
  -4   1   9   72.66    3.23
  -4   1   9   73.87    3.32
  -4   1   9   73.51    3.31
   4   1  -9   73.16    3.23
  -4   1   9   73.41    3.31
  -3  -1   9   11.65    0.74
  -3  -1   9   10.93    0.69
  -3  -1   9    9.78    0.63
  -3  -1   9   11.23    0.69
  -3   1   9   11.22    0.70
  -3   1   9   11.36    0.59
   3   1  -9   11.49    0.57
  -3   1   9   11.24    0.69
  -3   1   9   10.21    0.68
  -2  -1   9   67.22    3.52
  -2  -1   9   78.73    3.55
  -2  -1   9   86.87    3.62
  -2  -1   9   77.85    3.56
  -2   1   9   80.55    3.49
  -2   1   9   81.35    3.59
  -2   1   9   80.86    3.54
  -2   1   9   77.06    3.53
  -1  -1   9   65.26    2.95
  -1  -1   9   59.80    2.95
  -1  -1   9   63.76    2.95
  -1  -1   9   68.50    3.02
  -1   1   9   63.83    3.00
  -1   1   9   65.44    2.94
  -1   1   9   64.63    2.93
  -1   1   9   65.18    2.91
   0  -1   9   27.25    1.32
   0  -1   9   27.21    1.38
   0  -1   9   26.64    1.32
   0  -1   9   23.62    1.33
   0   1   9   27.65    1.31
   0   1   9   25.07    1.29
   0   1   9   23.37    1.36
   0   1   9   25.61    1.30
   1  -1   9    5.07    0.45
   1  -1   9    4.12    0.41
   1  -1   9    4.33    0.48
   1  -1   9    4.89    0.51
   1   1   9    5.22    0.44
   1   1   9    5.30    0.49
   1   1   9    4.66    0.49
   1   1   9    4.79    0.44
   2  -1   9   92.18    3.74
   2  -1   9   92.03    3.83
   2  -1   9   79.78    3.89
   2  -1   9   82.54    3.90
   2  -1   9   90.94    3.82
   2   1   9   86.39    3.89
   2   1   9   78.24    3.76
   2   1   9   82.94    3.88
   2   1   9   75.04    3.77
   3  -1   9   52.34    2.72
   3  -1   9   53.01    2.75
   3  -1   9   62.80    2.58
   3  -1   9   60.55    2.65
   3  -1   9   58.30    2.64
   3   1   9   57.06    2.58
   3   1   9   55.89    2.71
   3   1   9   54.19    2.59
   3   1   9   56.82    2.75
   4  -1   9    1.17    0.29
   4  -1   9    1.72    0.28
   4  -1   9    1.38    0.37
   4  -1   9    1.37    0.29
   4  -1   9    0.96    0.39
   4   1   9    1.77    0.34
   4   1   9    1.51    0.24
   4   1   9    1.85    0.25
   4   1   9    1.19    0.35
   4   1   9    1.44    0.43
   5  -1   9   99.95    4.47
   5  -1   9   92.92    4.37
   5  -1   9   98.57    4.34
   5  -1   9   97.33    4.38
   5  -1   9   87.53    4.53
   5   1   9   97.70    4.44
   5   1   9  101.79    4.39
   5   1   9  105.19    4.59
   5   1   9   96.29    4.27
   6  -1   9   18.50    1.06
   6  -1   9   20.06    1.31
   6  -1   9   17.64    1.06
   6  -1   9   20.22    1.07
   6  -1   9   20.82    1.16
   6   1   9   17.84    1.09
   6   1   9   18.91    1.12
   6   1   9   19.33    1.31
   7  -1   9    0.60    0.28
   7  -1   9    0.05    0.33
   7  -1   9    0.46    0.25
   7  -1   9    1.49    0.49
   7  -1   9    0.98    0.34
   7   1   9    0.46    0.31
   7   1   9    1.29    0.40
   7   1   9    0.67    0.50
   8  -1   9    8.93    0.73
   8  -1   9    7.77    0.71
   8  -1   9    7.92    0.63
   8  -1   9    7.33    0.84
   8  -1   9    7.51    0.67
   8   1   9    8.78    0.92
   8   1   9    6.98    0.67
   8   1   9    7.21    0.65
   9  -1   9   26.80    1.68
   9  -1   9   24.95    1.45
   9   1   9   25.10    1.49
   9   1   9   26.86    1.70
  10  -1   9    5.42    0.79
  10  -1   9    4.50    0.61
  10   1   9    5.18    0.81
  10   1   9    4.77    0.64
  11  -1   9    2.06    0.64
  11  -1   9    2.32    0.57
  11   1   9    2.69    0.70
  11   1   9    2.95    0.60
  12  -1   9   20.89    1.61
  12  -1   9   22.02    1.48
  12   1   9   22.82    1.68
  12   1   9   23.69    1.50
  13  -2  -9   15.29    1.13
 -13   2   9   14.51    1.07
  12  -2  -9   30.14    1.68
 -12   2   9   30.90    1.60
 -12   2   9   27.65    1.61
  11  -2  -9   15.52    1.05
 -11   2   9   15.22    0.99
 -11   2   9   14.52    1.00
  10  -2  -9   15.92    0.94
  10  -2  -9   16.39    0.92
  10  -2  -9   16.18    1.04
 -10   2   9   16.12    1.00
 -10   2   9   15.71    1.02
   9  -2  -9  102.29    4.62
   9  -2  -9  101.68    4.69
   9  -2  -9  105.63    4.61
  -9   2   9  101.51    4.65
  -9   2   9  106.82    4.68
   8  -2  -9   21.42    1.17
   8  -2  -9   22.42    1.23
   8  -2  -9   21.70    1.16
  -8   2   9   23.49    1.22
  -8   2   9   23.41    1.23
   7  -2  -9   16.34    0.89
   7  -2  -9   14.81    0.89
   7  -2  -9   16.08    0.96
  -7   2   9   16.14    0.94
  -7   2   9   16.74    0.96
   6  -2  -9   91.75    4.06
   6  -2  -9   95.27    4.10
   6  -2  -9   92.47    4.07
  -6  -2   9   86.03    4.07
  -6  -2   9   84.54    4.07
  -6   2   9   92.55    4.09
  -6   2   9   92.55    4.04
  -6   2   9   92.62    4.08
   5  -2  -9  111.00    4.77
  -5  -2   9  103.41    4.79
   5  -2  -9  110.36    4.79
   5  -2  -9  105.89    4.75
  -5  -2   9  103.64    4.79
  -5   2   9  108.10    4.79
  -5   2   9  112.48    4.78
  -5   2   9  105.02    4.75
   4  -2  -9    0.50    0.22
  -4  -2   9   -0.20    0.20
  -4  -2   9    0.12    0.23
   4  -2  -9   -0.15    0.21
  -4  -2   9   -0.02    0.24
  -4   2   9    0.05    0.19
  -4   2   9    0.27    0.21
  -4   2   9    0.20    0.23
  -4   2   9    0.00    0.21
  -3  -2   9  249.02   10.81
  -3  -2   9  243.57   10.82
  -3  -2   9  242.86   10.76
  -3   2   9  249.33   10.81
  -3   2   9  256.25   10.81
  -3   2   9  248.39   10.80
  -3   2   9  250.43   10.78
  -2  -2   9  148.24    6.58
  -2  -2   9  146.75    6.61
  -2  -2   9  154.46    6.60
  -2   2   9  145.93    6.59
  -2   2   9  154.62    6.60
  -2   2   9  148.81    6.59
  -2   2   9  153.83    6.63
  -1  -2   9    0.08    0.21
  -1  -2   9    0.13    0.20
  -1  -2   9    0.07    0.20
  -1   2   9    0.18    0.23
  -1   2   9    0.33    0.21
  -1   2   9    0.36    0.22
  -1   2   9    0.03    0.20
   0  -2   9   72.49    3.37
   0  -2   9   72.03    3.35
   0  -2   9   73.85    3.34
   0   2   9   76.48    3.32
   0   2   9   75.27    3.41
   0   2   9   76.26    3.33
   0   2   9   72.87    3.37
   1  -2   9  176.74    7.67
   1  -2   9  173.65    7.70
   1  -2   9  172.17    7.65
   1   2   9  173.72    7.72
   1   2   9  177.60    7.61
   1   2   9  175.68    7.72
   1   2   9  175.27    7.62
   2  -2   9   36.62    1.72
   2  -2   9   38.35    1.82
   2  -2   9   37.78    1.81
   2  -2   9   37.20    1.88
   2   2   9   38.77    1.90
   2   2   9   37.98    1.88
   2   2   9   38.44    1.74
   2   2   9   37.62    1.73
   3  -2   9   34.32    1.63
   3  -2   9   31.23    1.54
   3  -2   9   32.21    1.62
   3  -2   9   35.11    1.75
   3   2   9   33.89    1.51
   3   2   9   31.66    1.73
   3   2   9   33.60    1.70
   3   2   9   33.02    1.51
   4  -2   9  136.88    5.98
   4  -2   9  136.21    5.91
   4  -2   9  133.33    5.96
   4  -2   9  139.41    6.11
   4   2   9  128.44    6.11
   4   2   9  135.04    6.04
   5  -2   9   34.33    1.71
   5  -2   9   33.98    1.81
   5  -2   9   35.47    1.89
   5  -2   9   34.72    1.65
   5  -2   9   31.59    1.68
   5   2   9   34.24    1.74
   5   2   9   35.77    1.77
   6  -2   9   18.72    1.03
   6  -2   9   15.99    1.11
   6  -2   9   16.68    1.21
   6  -2   9   18.43    0.97
   6  -2   9   17.23    0.99
   6   2   9   17.16    1.05
   6   2   9   16.93    1.07
   6   2   9   11.53    1.13
   7  -2   9   47.22    2.30
   7  -2   9   42.50    2.52
   7  -2   9   40.92    2.40
   7  -2   9   52.46    2.30
   7  -2   9   51.74    2.34
   7   2   9   50.88    2.37
   7   2   9   49.19    2.35
   8  -2   9   20.37    1.17
   8  -2   9   15.54    1.38
   8  -2   9   22.89    1.17
   8  -2   9   18.71    1.13
   8   2   9   20.48    1.22
   8   2   9   21.67    1.17
   8   2   9   13.70    1.34
   9  -2   9    0.48    0.34
   9  -2   9    0.72    0.36
   9  -2   9    0.41    0.41
   9  -2   9    0.50    0.53
   9   2   9    0.43    0.43
   9   2   9    0.80    0.60
  10  -2   9   26.54    1.76
  10  -2   9   25.39    1.46
  10   2   9   28.24    1.56
  10   2   9   21.92    1.72
  11  -2   9   15.26    1.39
  11  -2   9   17.91    1.16
  11   2   9   13.52    1.32
  11   2   9   16.60    1.21
  12  -3  -9    0.18    0.47
 -12   3   9   -0.19    0.38
  11  -3  -9   46.18    2.24
  11  -3  -9   45.11    2.36
  11  -3  -9   48.11    2.27
 -11   3   9   44.99    2.31
 -11   3   9   45.36    2.29
  10  -3  -9   27.46    1.55
  10  -3  -9   27.58    1.44
  10  -3  -9   25.76    1.45
 -10   3   9   27.00    1.49
 -10   3   9   28.22    1.51
   9  -3  -9    0.34    0.32
   9  -3  -9   -0.08    0.37
   9  -3  -9   -0.03    0.28
  -9   3   9    0.29    0.34
  -9   3   9   -0.04    0.31
   8  -3  -9   38.45    1.85
   8  -3  -9   34.48    1.77
   8  -3  -9   35.15    1.79
  -8   3   9   37.18    1.82
  -8   3   9   34.61    1.82
   7  -3  -9   55.80    2.76
   7  -3  -9   59.71    2.78
   7  -3  -9   61.14    2.82
  -7   3   9   62.29    2.82
  -7   3   9   59.66    2.79
   6  -3  -9   10.73    0.71
   6  -3  -9   10.09    0.75
   6  -3  -9   10.17    0.72
  -6   3   9    9.71    0.72
  -6   3   9    9.95    0.74
  -6   3   9    9.30    0.67
   5  -3  -9   35.16    1.77
   5  -3  -9   34.88    1.73
   5  -3  -9   35.06    1.75
  -5  -3   9   34.97    1.73
  -5   3   9   36.88    1.74
  -5   3   9   34.40    1.74
  -5   3   9   38.08    1.78
  -4  -3   9  121.65    5.26
   4  -3  -9  118.36    5.30
  -4  -3   9  116.74    5.27
   4  -3  -9  118.17    5.27
   4  -3  -9  119.25    5.28
  -4   3   9  119.66    5.29
  -4   3   9  117.73    5.28
  -4   3   9  120.11    5.30
  -3  -3   9   52.31    2.50
   3  -3  -9   53.94    2.50
   3  -3  -9   52.15    2.53
  -3  -3   9   54.03    2.50
  -3  -3   9   57.40    2.50
  -3   3   9   55.94    2.54
  -3   3   9   52.92    2.53
  -3   3   9   55.13    2.52
  -3   3   9   53.60    2.50
  -2  -3   9   12.06    0.76
  -2  -3   9   12.36    0.77
  -2  -3   9   13.01    0.78
  -2   3   9   12.56    0.77
  -2   3   9   12.53    0.81
  -2   3   9   13.12    0.83
  -2   3   9   13.19    0.76
  -1  -3   9  253.35   11.21
  -1  -3   9  255.64   11.18
  -1  -3   9  260.15   11.19
  -1   3   9  253.46   11.16
  -1   3   9  260.40   11.24
  -1   3   9  259.73   11.16
  -1   3   9  258.38   11.23
   0  -3   9   56.42    2.60
   0  -3   9   58.10    2.65
   0  -3   9   55.54    2.61
   0   3   9   55.55    2.55
   0   3   9   56.40    2.66
   0   3   9   56.19    2.54
   0   3   9   56.12    2.66
   1  -3   9   11.40    0.72
   1  -3   9    9.95    0.77
   1  -3   9   10.29    0.71
   1   3   9   10.34    0.77
   1   3   9    9.97    0.79
   1   3   9   10.78    0.59
   1   3   9   10.50    0.60
   2  -3   9   61.24    2.85
   2  -3   9   61.58    2.92
   2  -3   9   61.51    2.84
   2   3   9   60.19    2.91
   2   3   9   63.12    2.94
   3  -3   9   79.90    3.76
   3  -3   9   83.73    3.88
   3  -3   9   84.31    3.78
   3   3   9   86.40    3.90
   3   3   9   81.59    3.84
   4  -3   9   -0.12    0.37
   4  -3   9   -0.29    0.27
   4  -3   9    0.10    0.28
   4   3   9    0.60    0.34
   4   3   9    0.88    0.43
   5  -3   9   33.40    1.76
   5  -3   9   34.74    1.78
   5  -3   9   36.39    1.94
   5   3   9   35.38    1.84
   5   3   9   35.95    1.96
   6  -3   9   48.23    2.26
   6  -3   9   45.62    2.44
   6  -3   9   47.39    2.27
   6   3   9   44.62    2.30
   6   3   9   44.95    2.48
   7  -3   9    1.08    0.55
   7  -3   9    0.80    0.36
   7  -3   9    0.36    0.42
   7  -3   9    0.44    0.36
   7   3   9    0.49    0.52
   7   3   9    1.02    0.40
   8  -3   9   16.77    1.42
   8  -3   9   17.65    1.08
   8  -3   9   16.75    1.10
   8   3   9   14.59    1.07
   8   3   9   19.21    1.23
   8   3   9   14.15    1.31
   9  -3   9   11.25    0.92
   9  -3   9    8.92    1.07
   9  -3   9   10.41    0.83
   9   3   9   12.34    0.98
   9   3   9    9.45    1.09
  10  -3   9    2.02    0.52
  10  -3   9    2.26    0.71
  10   3   9    2.29    0.74
  10   3   9    2.63    0.63
  10  -4  -9    0.31    0.46
  10  -4  -9    0.53    0.59
  10  -4  -9    0.00    0.39
 -10   4   9    1.05    0.45
   9  -4  -9   18.99    1.18
   9  -4  -9   19.38    1.16
   9  -4  -9   18.93    1.23
  -9   4   9   15.87    1.15
  -9   4   9   18.80    1.20
   8  -4  -9    3.63    0.49
   8  -4  -9    3.02    0.54
   8  -4  -9    3.62    0.53
  -8   4   9    3.73    0.54
  -8   4   9    3.26    0.50
   7  -4  -9    4.83    0.54
   7  -4  -9    5.90    0.64
   7  -4  -9    5.28    0.57
  -7   4   9    5.24    0.56
  -7   4   9    5.25    0.59
   6  -4  -9    5.15    0.58
   6  -4  -9    4.70    0.54
   6  -4  -9    4.65    0.52
  -6   4   9    4.49    0.63
  -6   4   9    4.67    0.53
  -6   4   9    4.59    0.55
   5  -4  -9   12.95    0.88
   5  -4  -9   13.45    0.91
   5  -4  -9   12.23    0.89
  -5   4   9   13.28    0.89
  -5   4   9   12.97    0.87
  -5   4   9   13.54    0.89
   4  -4  -9    2.22    0.39
   4  -4  -9    1.95    0.37
   4  -4  -9    2.38    0.42
  -4   4   9    2.28    0.37
  -4   4   9    2.84    0.43
  -4   4   9    2.25    0.39
   3  -4  -9   31.93    1.65
   3  -4  -9   32.09    1.67
  -3  -4   9   34.82    1.64
  -3  -4   9   34.10    1.65
   3  -4  -9   32.58    1.69
  -3   4   9   34.35    1.67
  -3   4   9   32.38    1.64
  -3   4   9   33.57    1.71
  -2  -4   9    9.12    0.67
  -2  -4   9    8.46    0.66
   2  -4  -9    7.83    0.64
   2  -4  -9    7.30    0.65
  -2   4   9    8.38    0.77
  -2   4   9    8.77    0.64
  -2   4   9    8.86    0.75
  -2   4   9    9.27    0.63
  -1  -4   9    0.22    0.31
  -1  -4   9   -0.05    0.27
  -1  -4   9   -0.17    0.26
  -1   4   9   -0.18    0.32
  -1   4   9    0.31    0.22
  -1   4   9    0.04    0.22
  -1   4   9    0.06    0.34
   0  -4   9   12.33    0.83
   0  -4   9   12.80    0.85
   0  -4   9   12.87    0.89
   0   4   9   12.52    0.95
   0   4   9   12.46    0.90
   1  -4   9   27.86    1.54
   1  -4   9   26.98    1.45
   1  -4   9   28.15    1.47
   1   4   9   28.35    1.55
   1   4   9   29.41    1.58
   2  -4   9    5.08    0.52
   2  -4   9    3.58    0.55
   2  -4   9    4.76    0.53
   2   4   9    5.24    0.64
   2   4   9    5.82    0.63
   3  -4   9    7.44    0.65
   3  -4   9    7.96    0.69
   3  -4   9    9.36    0.86
   3   4   9    8.88    0.79
   3   4   9    8.63    0.81
   4  -4   9   13.88    0.96
   4  -4   9   14.42    1.11
   4  -4   9   14.67    0.99
   4   4   9   14.63    1.12
   4   4   9   13.26    1.00
   5  -4   9    5.51    0.60
   5  -4   9    4.26    0.55
   5  -4   9    4.56    0.72
   5   4   9    3.54    0.56
   5   4   9    4.17    0.71
   6  -4   9    0.96    0.42
   6  -4   9    0.66    0.57
   6  -4   9    0.77    0.42
   6   4   9    1.07    0.56
   6   4   9    0.78    0.44
   7  -4   9   14.52    1.05
   7  -4   9   15.89    1.32
   7  -4   9   15.61    1.10
   7   4   9   15.48    1.31
   7   4   9   14.87    1.12
   8  -4   9    2.93    0.55
   8  -4   9    3.19    0.56
   8  -4   9    3.79    0.78
   8   4   9    3.73    0.61
   8   4   9    3.91    0.77
   9  -4   9    1.03    0.70
   9  -4   9    0.79    0.48
   9   4   9    0.17    0.63
   8  -5  -9    7.05    0.80
   8  -5  -9    9.82    0.85
  -8   5   9    8.97    0.83
   7  -5  -9    1.06    0.47
   7  -5  -9    1.55    0.50
  -7   5   9    0.82    0.43
  -7   5   9    1.77    0.44
   6  -5  -9    0.21    0.39
   6  -5  -9   -0.23    0.36
   6  -5  -9   -0.19    0.42
  -6   5   9    0.26    0.39
  -6   5   9    0.39    0.37
   5  -5  -9    4.11    0.57
   5  -5  -9    3.15    0.50
   5  -5  -9    2.81    0.50
  -5   5   9    2.73    0.50
  -5   5   9    2.58    0.47
  -5   5   9    3.94    0.50
   4  -5  -9    4.05    0.52
   4  -5  -9    3.67    0.55
   4  -5  -9    3.21    0.48
  -4   5   9    4.69    0.52
  -4   5   9    3.09    0.46
  -4   5   9    3.81    0.54
   3  -5  -9    0.37    0.35
   3  -5  -9    0.01    0.33
   3  -5  -9    0.22    0.39
  -3   5   9   -0.15    0.36
   2  -5  -9    0.29    0.37
   2  -5  -9    0.09    0.32
   2  -5  -9    0.12    0.31
  -2   5   9    0.15    0.39
   1  -5  -9    0.64    0.33
  -1  -5   9    0.11    0.34
   1  -5  -9    0.61    0.32
  -1  -5   9    0.76    0.36
  -1   5   9    0.61    0.43
   0  -5   9    1.89    0.49
   0  -5   9    0.36    0.36
   0  -5   9    0.04    0.34
   0  -5  -9    1.00    0.31
   0  -5  -9    0.82    0.33
   0   5   9    1.12    0.47
   0   5   9    0.78    0.44
   1  -5   9    0.01    0.44
   1  -5   9    0.11    0.36
   1  -5   9   -0.44    0.35
   1   5   9    0.52    0.48
   1   5   9    0.41    0.44
   2  -5   9    0.18    0.38
   2  -5   9    0.60    0.46
   2  -5   9    0.47    0.39
   2   5   9    0.81    0.52
   2   5   9    0.42    0.44
   3  -5   9   -0.25    0.37
   3  -5   9   -0.20    0.39
   3  -5   9    0.60    0.49
   3   5   9   -0.57    0.41
   3   5   9   -0.55    0.49
   4  -5   9    0.69    0.45
   4  -5   9    0.88    0.44
   4  -5   9   -0.42    0.50
   4   5   9    0.90    0.59
   4   5   9    0.46    0.45
   5  -5   9    0.10    0.56
   5  -5   9    0.31    0.46
   5  -5   9   -0.20    0.44
   5   5   9    0.51    0.50
   5   5   9    0.24    0.56
   6  -5   9    3.35    0.75
   6  -5   9    1.49    0.54
   6   5   9    2.19    0.58
   6   5   9    3.55    0.75
   3  -6  -9    0.83    0.47
   3  -6  -9    0.93    0.44
   2  -6  -9    9.41    0.80
   2  -6  -9    9.92    0.83
   2  -6  -9    8.92    0.82
   1  -6  -9    0.03    0.36
   1  -6  -9    0.41    0.44
   1  -6  -9   -0.44    0.36
   0  -6   9    8.72    0.81
   0  -6   9    8.54    0.92
   0  -6  -9    6.47    0.73
   0  -6   9    8.31    0.76
   1  -6   9    1.48    0.60
   1  -6   9    0.72    0.48
  13   0 -10    5.35    0.64
  12   0 -10    2.41    0.46
  11   0 -10   20.11    1.15
 -11   0  10   18.57    1.18
 -10   0  10   48.02    2.25
 -10   0  10   48.23    2.23
  10   0 -10   44.24    2.24
  -9   0  10    2.69    0.38
  -9   0  10    2.63    0.38
   9   0 -10    2.51    0.38
   8   0 -10   80.72    3.63
  -8   0  10   79.41    3.63
  -8   0  10   81.40    3.65
   7   0 -10   47.24    2.19
   7   0 -10   48.00    2.14
  -7   0  10   46.80    2.23
   7   0 -10   46.29    2.14
  -7   0  10   48.35    2.23
  -6   0  10    1.36    0.32
  -6   0  10    1.53    0.30
   6   0 -10    1.21    0.25
   6   0 -10    1.08    0.20
  -6   0  10    2.95    0.37
   6   0 -10    1.09    0.21
   5   0 -10  163.62    7.12
  -5   0  10  167.21    7.18
  -5   0  10  167.43    7.19
  -5   0  10  154.76    7.19
  -4   0  10  111.65    4.91
   4   0 -10  109.77    4.84
  -4   0  10  112.28    4.96
  -4   0  10  107.47    4.92
  -3   0  10    0.78    0.27
  -3   0  10    0.92    0.31
  -3   0  10    1.09    0.18
  -3   0  10    0.71    0.27
   3   0 -10    1.14    0.21
  -2   0  10  101.91    4.73
  -2   0  10  108.38    4.69
  -2   0  10  116.56    4.82
  -2   0  10   97.94    4.73
  -1   0  10  209.82    9.62
  -1   0  10  211.93    9.61
  -1   0  10  224.35    9.62
  -1   0  10  235.92    9.71
   0   0  10   56.15    2.64
   0   0  10   55.90    2.65
   0   0  10   56.86    2.67
   0   0  10   59.67    2.73
   1   0  10  112.57    5.00
   1   0  10  111.12    5.05
   1   0  10  113.59    5.08
   1   0  10  111.35    4.98
   2   0  10  161.07    7.33
   2   0  10  168.63    7.35
   2   0  10  166.25    7.44
   2   0  10  173.35    7.44
   3   0  10    8.02    0.56
   3   0  10    6.71    0.56
   3   0  10    5.11    0.49
   3   0  10    7.55    0.69
   3   0  10    8.22    0.69
   4   0  10    2.39    0.34
   4   0  10    2.02    0.33
   4   0  10    2.00    0.46
   4   0  10    2.17    0.31
   4   0  10    1.94    0.41
   5   0  10   16.35    1.07
   5   0  10   17.61    1.17
   5   0  10   15.10    0.97
   5   0  10   18.40    0.97
   5   0  10   18.13    0.95
   6   0  10   62.51    3.01
   6   0  10   62.15    2.76
   6   0  10   57.22    2.82
   6   0  10   61.38    2.77
   6   0  10   59.61    2.89
   7   0  10   15.65    1.01
   7   0  10   13.81    0.95
   7   0  10   14.01    1.15
   8   0  10   53.79    2.74
   8   0  10   60.99    2.98
   8   0  10   58.55    2.78
   9   0  10   16.98    1.28
   9   0  10   15.44    1.09
  10   0  10    1.26    0.61
  10   0  10    0.92    0.50
  11   0  10   20.28    1.36
  11   0  10   20.59    1.56
  13  -1 -10   18.74    1.19
 -13   1  10   16.85    1.13
  12  -1 -10   18.37    1.17
 -12   1  10   17.21    1.10
 -12   1  10   17.24    1.09
  11  -1 -10   -0.28    0.36
 -11   1  10   -0.03    0.32
 -11   1  10    0.32    0.33
  10  -1 -10   16.59    1.07
 -10   1  10   18.86    1.07
 -10   1  10   17.64    1.03
   9  -1 -10   25.45    1.26
   9  -1 -10   25.55    1.36
   9  -1 -10   26.36    1.27
  -9   1  10   25.79    1.36
  -9   1  10   24.56    1.34
   9   1 -10   25.66    1.34
  -8  -1  10    1.51    0.32
   8  -1 -10    1.42    0.26
  -8  -1  10    1.80    0.33
   8  -1 -10    2.01    0.28
   8  -1 -10    1.84    0.35
  -8   1  10    1.85    0.36
   8   1 -10    2.05    0.30
  -8   1  10    1.23    0.32
  -7  -1  10   52.04    2.45
   7  -1 -10   51.51    2.44
   7  -1 -10   53.85    2.40
  -7  -1  10   51.91    2.44
   7  -1 -10   52.39    2.39
  -7   1  10   52.40    2.45
  -7   1  10   53.19    2.47
   7   1 -10   51.61    2.38
  -6  -1  10   84.87    4.20
  -6  -1  10   90.84    4.14
  -6  -1  10   94.69    4.14
   6  -1 -10   91.75    4.12
   6  -1 -10   90.50    4.09
   6  -1 -10   91.75    4.08
   6   1 -10   95.86    4.03
  -6   1  10   92.00    4.10
   6   1 -10   94.16    4.03
  -6   1  10   95.00    4.15
  -6   1  10   91.80    4.13
   6   1 -10   90.95    4.06
   5  -1 -10    0.42    0.22
   5  -1 -10    0.21    0.20
  -5  -1  10    0.55    0.25
  -5  -1  10    0.69    0.26
  -5  -1  10    0.40    0.28
  -5   1  10    0.65    0.27
  -5   1  10    0.33    0.21
  -5   1  10    0.46    0.25
   5   1 -10    0.59    0.17
  -4  -1  10   29.49    1.51
  -4  -1  10   31.81    1.53
  -4  -1  10   26.94    1.58
   4  -1 -10   31.04    1.48
  -4   1  10   30.62    1.43
  -4   1  10   30.84    1.52
  -4   1  10   31.04    1.52
  -4   1  10   32.50    1.53
   4   1 -10   30.28    1.41
  -3  -1  10   87.94    4.29
  -3  -1  10   97.58    4.23
  -3  -1  10  100.11    4.23
  -3  -1  10   93.01    4.17
  -3   1  10   90.91    4.13
  -3   1  10   93.60    4.21
  -3   1  10   94.92    4.22
  -3   1  10   92.89    4.25
   3   1 -10   95.19    4.11
  -2  -1  10  126.51    5.49
  -2  -1  10  134.02    5.50
  -2  -1  10  115.23    5.47
  -2  -1  10  125.30    5.57
  -2   1  10  119.74    5.48
  -2   1  10  120.24    5.53
  -2   1  10  124.67    5.42
  -2   1  10  122.88    5.47
  -1  -1  10    8.48    0.61
  -1  -1  10    8.48    0.61
  -1  -1  10    5.81    0.56
  -1  -1  10    6.06    0.61
  -1   1  10    6.96    0.58
  -1   1  10    7.31    0.66
  -1   1  10    7.15    0.59
  -1   1  10    9.32    0.56
   0  -1  10  110.17    5.47
   0  -1  10  135.27    5.47
   0  -1  10  132.63    5.45
   0  -1  10  125.62    5.54
   0   1  10  105.26    5.41
   0   1  10  113.28    5.42
   0   1  10  135.67    5.46
   1  -1  10   81.52    3.22
   1  -1  10   68.70    3.29
   1  -1  10   66.74    3.25
   1  -1  10   82.95    3.23
   1   1  10   63.82    3.26
   1   1  10   79.29    3.26
   1   1  10   56.48    3.13
   1   1  10   59.18    3.15
   2  -1  10    4.81    0.47
   2  -1  10    4.99    0.39
   2  -1  10    4.57    0.45
   2  -1  10    2.88    0.48
   2  -1  10    3.54    0.51
   2   1  10    4.23    0.51
   2   1  10    4.35    0.43
   2   1  10    4.24    0.54
   2   1  10    3.89    0.41
   3  -1  10   59.13    2.84
   3  -1  10   65.57    2.76
   3  -1  10   57.83    2.95
   3  -1  10   59.93    2.83
   3  -1  10   59.11    2.93
   3   1  10   59.33    2.79
   3   1  10   60.48    2.93
   3   1  10   61.99    2.78
   3   1  10   64.97    2.97
   4  -1  10   74.28    3.52
   4  -1  10   66.62    3.54
   4  -1  10   71.55    3.40
   4  -1  10   69.50    3.41
   4  -1  10   76.44    3.36
   4   1  10   75.90    3.51
   4   1  10   82.47    3.43
   4   1  10   77.28    3.59
   4   1  10   77.48    3.34
   4   1  10   73.70    3.35
   5  -1  10    1.02    0.30
   5  -1  10    1.03    0.31
   5  -1  10    0.98    0.29
   5  -1  10    1.48    0.47
   5  -1  10    0.97    0.36
   5   1  10    1.02    0.37
   5   1  10    1.22    0.29
   5   1  10    0.88    0.33
   5   1  10    0.85    0.49
   6  -1  10   30.98    1.63
   6  -1  10   27.19    1.53
   6  -1  10   31.74    1.54
   6  -1  10   31.06    1.76
   6  -1  10   29.27    1.53
   6   1  10   31.85    1.58
   6   1  10   32.28    1.81
   6   1  10   28.12    1.60
   7  -1  10   30.63    1.52
   7  -1  10   27.09    1.52
   7  -1  10   31.51    1.56
   7  -1  10   31.75    1.62
   7  -1  10   29.15    1.76
   7   1  10   30.17    1.60
   7   1  10   27.65    1.59
   7   1  10   33.11    1.85
   8  -1  10    4.31    0.56
   8  -1  10    5.38    0.59
   8  -1  10    4.72    0.49
   8  -1  10    5.72    0.76
   8   1  10    5.22    0.78
   8   1  10    3.93    0.54
   8   1  10    4.61    0.58
   9  -1  10   25.75    1.50
   9  -1  10   27.53    1.73
   9   1  10   29.01    1.78
   9   1  10   24.97    1.53
  10  -1  10   23.13    1.44
  10  -1  10   25.89    1.68
  10   1  10   23.84    1.48
  10   1  10   23.85    1.71
  11  -1  10    0.83    0.52
  11  -1  10    0.21    0.58
  11   1  10    0.50    0.53
  11   1  10    0.32    0.58
  12  -2 -10    0.23    0.46
 -12   2  10   -0.07    0.38
 -12   2  10    0.18    0.37
  11  -2 -10    3.84    0.57
 -11   2  10    3.00    0.50
 -11   2  10    3.13    0.48
  10  -2 -10    0.40    0.37
  10  -2 -10    0.01    0.25
  10  -2 -10   -0.18    0.27
 -10   2  10    0.01    0.31
 -10   2  10   -0.43    0.31
   9  -2 -10    0.23    0.25
   9  -2 -10    0.03    0.27
   9  -2 -10    0.43    0.35
  -9   2  10    0.23    0.32
  -9   2  10    0.27    0.32
   8  -2 -10    4.82    0.45
   8  -2 -10    3.13    0.46
   8  -2 -10    5.20    0.47
  -8   2  10    4.58    0.49
  -8   2  10    4.78    0.51
  -7  -2  10    4.16    0.49
   7  -2 -10    4.23    0.42
   7  -2 -10    4.25    0.47
   7  -2 -10    3.99    0.42
  -7   2  10    4.33    0.46
  -7   2  10    4.67    0.48
   6  -2 -10    1.16    0.32
  -6  -2  10    1.29    0.31
   6  -2 -10    1.63    0.29
   6  -2 -10    1.11    0.28
  -6  -2  10    1.29    0.30
  -6   2  10    0.85    0.32
  -6   2  10    1.18    0.26
  -6   2  10    1.62    0.33
   5  -2 -10   40.46    1.86
   5  -2 -10   37.74    1.86
  -5  -2  10   35.57    1.88
  -5  -2  10   37.68    1.88
   5  -2 -10   37.32    1.84
  -5   2  10   41.50    1.86
  -5   2  10   40.04    1.89
  -5   2  10   39.04    1.87
   4  -2 -10   70.72    3.29
  -4  -2  10   69.72    3.32
  -4  -2  10   69.84    3.32
  -4   2  10   72.41    3.31
  -4   2  10   75.07    3.30
  -4   2  10   75.82    3.31
  -4   2  10   73.39    3.25
  -3  -2  10   21.03    1.12
  -3  -2  10   18.37    1.11
  -3  -2  10   19.56    1.04
  -3   2  10   20.29    1.11
  -3   2  10   20.38    1.05
  -3   2  10   21.00    1.10
  -3   2  10   21.44    1.10
  -2  -2  10   43.07    2.22
  -2  -2  10   46.01    2.19
  -2  -2  10   46.65    2.22
  -2   2  10   48.19    2.19
  -2   2  10   45.91    2.21
  -2   2  10   49.01    2.21
  -2   2  10   49.78    2.25
  -1  -2  10   18.95    1.08
  -1  -2  10   19.01    1.07
  -1  -2  10   19.13    1.10
  -1   2  10   20.55    1.07
  -1   2  10   20.74    1.09
  -1   2  10   19.86    1.08
  -1   2  10   22.57    1.15
   0  -2  10   14.17    0.89
   0  -2  10   14.00    0.87
   0  -2  10   14.89    0.90
   0   2  10   15.76    0.96
   0   2  10   14.79    0.84
   0   2  10   14.34    0.90
   0   2  10   15.86    0.86
   1  -2  10   11.38    0.78
   1  -2  10   10.87    0.76
   1  -2  10   10.50    0.74
   1   2  10   11.95    0.84
   1   2  10   11.00    0.70
   1   2  10   12.33    0.81
   1   2  10   12.13    0.70
   2  -2  10   19.87    1.21
   2  -2  10   18.94    1.10
   2  -2  10   19.67    1.12
   2   2  10   21.78    1.23
   2   2  10   20.26    1.20
   2   2  10   20.37    1.02
   2   2  10   21.39    1.04
   3  -2  10    3.40    0.52
   3  -2  10    3.24    0.41
   3  -2  10    4.11    0.45
   3  -2  10    3.26    0.32
   3   2  10    2.52    0.45
   3   2  10    3.96    0.32
   3   2  10    3.79    0.54
   3   2  10    3.23    0.29
   4  -2  10    1.45    0.34
   4  -2  10    1.86    0.44
   4  -2  10    1.63    0.28
   4  -2  10    1.76    0.37
   4  -2  10    1.31    0.48
   4   2  10    1.46    0.41
   4   2  10    0.84    0.43
   5  -2  10    8.13    0.57
   5  -2  10    8.27    0.64
   5  -2  10    5.60    0.73
   5  -2  10    5.19    0.66
   5  -2  10    6.67    0.60
   5   2  10    8.09    0.71
   5   2  10    6.05    0.74
   6  -2  10    2.12    0.56
   6  -2  10    2.35    0.42
   6  -2  10    3.45    0.42
   6  -2  10    3.17    0.45
   6  -2  10    1.45    0.45
   6   2  10    2.70    0.49
   6   2  10    3.16    0.48
   6   2  10    1.09    0.54
   7  -2  10    1.66    0.45
   7  -2  10    0.96    0.36
   7  -2  10    1.25    0.39
   7  -2  10    0.89    0.53
   7  -2  10    1.26    0.38
   7   2  10    1.41    0.42
   7   2  10    1.28    0.45
   7   2  10    0.59    0.56
   8  -2  10    4.18    0.55
   8  -2  10    3.57    0.71
   8  -2  10    4.09    0.52
   8  -2  10    5.07    0.55
   8   2  10    4.39    0.57
   8   2  10    3.28    0.74
   8   2  10    5.41    0.63
   9  -2  10    0.98    0.61
   9  -2  10    1.10    0.40
   9  -2  10    0.61    0.42
   9   2  10    0.68    0.48
   9   2  10    0.18    0.63
  10  -2  10    4.69    0.64
  10  -2  10    6.91    0.92
  10   2  10    5.24    0.69
  10   2  10    4.90    0.88
  11  -2  10    3.36    0.78
  11  -2  10    3.51    0.62
  11   2  10    2.62    0.66
  11   2  10    3.45    0.85
  11  -3 -10    0.09    0.36
  11  -3 -10    0.73    0.48
 -11   3  10   -0.07    0.39
  10  -3 -10    0.36    0.32
  10  -3 -10    0.02    0.34
  10  -3 -10   -0.08    0.41
 -10   3  10    0.27    0.40
 -10   3  10    0.24    0.36
   9  -3 -10    4.34    0.52
   9  -3 -10    4.97    0.61
   9  -3 -10    3.94    0.48
  -9   3  10    4.18    0.56
  -9   3  10    4.53    0.53
   8  -3 -10    0.41    0.31
   8  -3 -10    0.72    0.38
   8  -3 -10    1.09    0.36
  -8   3  10    1.27    0.39
  -8   3  10    0.74    0.36
   7  -3 -10    0.68    0.31
   7  -3 -10    0.14    0.33
   7  -3 -10    0.82    0.33
  -7   3  10    0.70    0.33
  -7   3  10    0.74    0.36
   6  -3 -10    8.75    0.72
   6  -3 -10    9.19    0.69
   6  -3 -10    9.14    0.70
  -6   3  10    8.28    0.68
  -6   3  10    9.40    0.74
  -6   3  10    8.93    0.67
   5  -3 -10    2.54    0.38
   5  -3 -10    2.55    0.37
  -5  -3  10    3.05    0.39
   5  -3 -10    3.61    0.45
  -5   3  10    2.81    0.39
  -5   3  10    2.51    0.41
  -5   3  10    3.12    0.41
  -4  -3  10    2.20    0.35
   4  -3 -10    1.56    0.34
  -4  -3  10    1.68    0.35
   4  -3 -10    1.29    0.34
   4  -3 -10    1.74    0.33
  -4   3  10    1.38    0.35
  -4   3  10    1.75    0.34
  -4   3  10    1.55    0.33
  -3  -3  10    1.51    0.31
  -3  -3  10    1.73    0.32
  -3  -3  10    1.38    0.33
  -3   3  10    1.60    0.35
  -3   3  10    1.39    0.33
  -3   3  10    2.21    0.34
  -3   3  10    2.82    0.38
  -2  -3  10    0.55    0.27
  -2  -3  10    0.12    0.26
  -2  -3  10    0.23    0.26
  -2   3  10    0.21    0.28
  -2   3  10    0.14    0.25
  -2   3  10    0.28    0.30
  -2   3  10    0.46    0.25
  -1  -3  10    0.58    0.29
  -1  -3  10    0.57    0.28
  -1  -3  10    1.02    0.32
  -1   3  10    0.93    0.26
  -1   3  10    1.08    0.33
  -1   3  10    0.66    0.33
  -1   3  10    0.84    0.27
   0  -3  10    7.08    0.58
   0  -3  10    7.10    0.57
   0  -3  10    6.78    0.64
   0   3  10    6.48    0.61
   0   3  10    7.53    0.66
   0   3  10    6.88    0.52
   0   3  10    6.93    0.54
   1  -3  10    5.88    0.59
   1  -3  10    4.99    0.50
   1  -3  10    5.95    0.55
   1   3  10    4.89    0.40
   1   3  10    4.75    0.55
   1   3  10    6.48    0.62
   1   3  10    5.20    0.44
   2  -3  10    7.92    0.64
   2  -3  10    7.33    0.69
   2  -3  10    6.25    0.58
   2   3  10    6.11    0.65
   2   3  10    8.25    0.76
   3  -3  10    4.26    0.51
   3  -3  10    5.43    0.64
   3  -3  10    4.92    0.52
   3   3  10    5.66    0.61
   3   3  10    6.56    0.69
   4  -3  10    0.51    0.44
   4  -3  10    0.08    0.31
   4  -3  10    0.15    0.31
   4   3  10    0.39    0.43
   4   3  10    0.39    0.37
   5  -3  10    6.48    0.62
   5  -3  10    7.19    0.81
   5  -3  10    7.26    0.64
   5   3  10    6.86    0.71
   5   3  10    6.79    0.82
   6  -3  10   -0.41    0.48
   6  -3  10   -0.40    0.34
   6  -3  10   -0.76    0.31
   6  -3  10   -0.19    0.40
   6   3  10   -0.19    0.47
   6   3  10    0.24    0.39
   7  -3  10    4.91    0.57
   7  -3  10    4.90    0.59
   7  -3  10    4.95    0.68
   7  -3  10    4.67    0.77
   7   3  10    3.79    0.76
   7   3  10    4.84    0.61
   8  -3  10    1.24    0.45
   8  -3  10    2.36    0.70
   8  -3  10    0.80    0.42
   8   3  10    0.03    0.56
   8   3  10    1.40    0.47
   9  -3  10    0.63    0.62
   9  -3  10    0.53    0.47
   9  -3  10    0.13    0.42
   9   3  10   -0.12    0.62
  10  -3  10   -0.47    0.52
  10  -3  10    0.26    0.63
  10   3  10   -1.50    0.59
  10   3  10    0.00    0.56
  10  -4 -10    0.67    0.42
  10  -4 -10    0.44    0.49
 -10   4  10    0.70    0.46
   9  -4 -10    1.33    0.42
   9  -4 -10    2.33    0.53
   9  -4 -10    2.12    0.46
  -9   4  10    1.20    0.47
  -9   4  10    1.63    0.58
   8  -4 -10   21.12    1.24
   8  -4 -10   20.03    1.21
   8  -4 -10   20.84    1.28
  -8   4  10   19.31    1.25
  -8   4  10   18.55    1.22
   7  -4 -10   24.54    1.45
   7  -4 -10   27.26    1.50
   7  -4 -10   26.09    1.44
  -7   4  10   26.77    1.47
  -7   4  10   26.45    1.49
   6  -4 -10    1.79    0.44
   6  -4 -10    1.54    0.39
   6  -4 -10    1.59    0.41
  -6   4  10    1.36    0.39
  -6   4  10    1.24    0.40
   5  -4 -10   26.47    1.45
   5  -4 -10   26.57    1.42
   5  -4 -10   26.46    1.42
  -5   4  10   25.90    1.42
  -5   4  10   24.30    1.41
  -5   4  10   27.36    1.45
   4  -4 -10   23.10    1.26
   4  -4 -10   24.16    1.28
   4  -4 -10   20.36    1.21
  -4   4  10   21.56    1.24
  -4   4  10   22.76    1.24
  -4   4  10   21.08    1.26
  -3  -4  10    0.08    0.29
  -3  -4  10    0.10    0.32
   3  -4 -10    0.19    0.28
  -3  -4  10    0.12    0.30
   3  -4 -10   -0.29    0.33
   3  -4 -10    0.13    0.30
  -3   4  10    0.62    0.31
  -3   4  10   -0.04    0.33
  -3   4  10   -0.24    0.27
  -2  -4  10    9.32    0.75
  -2  -4  10    9.26    0.72
  -2  -4  10    9.80    0.74
   2  -4 -10    8.54    0.70
  -2   4  10   10.07    0.84
  -2   4  10   10.60    0.72
  -2   4  10    8.88    0.81
  -2   4  10    9.35    0.69
  -1  -4  10   31.25    1.58
  -1  -4  10   29.28    1.53
  -1  -4  10   28.95    1.51
  -1   4  10   28.16    1.58
  -1   4  10   29.19    1.46
  -1   4  10   28.51    1.59
   0  -4  10    9.08    0.74
   0  -4  10    9.10    0.81
   0  -4  10    9.41    0.75
   0   4  10    9.27    0.83
   0   4  10    8.61    0.78
   1  -4  10   17.58    1.11
   1  -4  10   19.01    1.14
   1  -4  10   19.03    1.19
   1   4  10   19.36    1.25
   1   4  10   20.65    1.23
   2  -4  10   48.40    2.40
   2  -4  10   44.96    2.28
   2  -4  10   47.14    2.30
   2   4  10   48.40    2.43
   2   4  10   46.45    2.39
   3  -4  10   20.79    1.23
   3  -4  10   21.00    1.25
   3  -4  10   20.02    1.34
   3   4  10   20.61    1.38
   3   4  10   21.69    1.32
   4  -4  10    8.37    0.88
   4  -4  10    8.80    0.73
   4  -4  10    6.91    0.70
   4   4  10    9.62    0.92
   4   4  10    9.15    0.82
   5  -4  10   36.07    1.92
   5  -4  10   37.88    2.12
   5  -4  10   36.79    1.95
   5   4  10   34.48    2.00
   5   4  10   41.26    2.20
   6  -4  10   12.24    1.00
   6  -4  10   10.68    0.89
   6  -4  10   14.28    1.23
   6   4  10   13.09    1.21
   6   4  10   11.93    1.00
   7  -4  10   -0.17    0.42
   7  -4  10    0.17    0.43
   7  -4  10   -0.21    0.60
   7   4  10    0.30    0.43
   7   4  10    0.21    0.61
   8  -4  10    8.97    0.83
   8  -4  10    9.29    1.10
   8   4  10    8.10    0.83
   8   4  10    7.69    1.04
   7  -5 -10   14.64    1.09
   7  -5 -10   13.73    1.08
  -7   5  10   13.26    1.06
   6  -5 -10   35.64    1.99
   6  -5 -10   41.21    2.06
  -6   5  10   37.32    1.99
  -6   5  10   39.39    2.02
   5  -5 -10   12.82    1.04
   5  -5 -10   12.85    0.99
   5  -5 -10   13.36    0.97
  -5   5  10   14.61    1.00
  -5   5  10   14.63    0.99
  -5   5  10   12.16    0.98
   4  -5 -10    3.91    0.52
   4  -5 -10    3.85    0.57
   4  -5 -10    3.82    0.54
  -4   5  10    3.81    0.52
  -4   5  10    4.27    0.58
   3  -5 -10   39.75    2.03
   3  -5 -10   41.29    2.01
   3  -5 -10   37.36    2.04
  -3   5  10   41.54    2.10
   2  -5 -10   14.88    1.02
  -2  -5  10   12.56    1.00
   2  -5 -10   13.66    0.93
  -2  -5  10   13.84    1.04
   2  -5 -10   12.71    0.93
  -2   5  10   13.21    1.02
   1  -5 -10    2.37    0.40
   1  -5 -10    2.52    0.43
  -1  -5  10    2.24    0.45
  -1  -5  10    1.58    0.49
  -1  -5  10    2.14    0.44
  -1   5  10    2.94    0.55
   0  -5  10   41.34    2.17
   0  -5  10   41.41    2.10
   0  -5  10   41.15    2.07
   0  -5 -10   38.03    2.00
   0   5  10   41.34    2.22
   0   5  10   44.97    2.20
   1  -5  10   14.17    1.04
   1  -5  10   14.51    1.04
   1  -5  10   15.95    1.14
   1   5  10   15.15    1.14
   1   5  10   15.19    1.19
   2  -5  10    1.36    0.53
   2  -5  10    1.67    0.48
   2  -5  10    1.69    0.47
   2   5  10    2.40    0.62
   2   5  10    1.76    0.55
   3  -5  10   23.87    1.47
   3  -5  10   24.00    1.45
   3  -5  10   26.21    1.63
   3   5  10   23.91    1.54
   3   5  10   25.04    1.64
   4  -5  10   21.82    1.42
   4  -5  10   23.17    1.58
   4  -5  10   23.03    1.41
   4   5  10   22.76    1.50
   4   5  10   26.03    1.67
   5  -5  10    0.19    0.59
   5  -5  10   -0.17    0.47
   5   5  10    0.11    0.60
   5   5  10    0.12    0.52
  13   0 -11   -0.36    0.39
  12   0 -11   -0.13    0.34
 -11   0  11    0.10    0.30
  11   0 -11   -0.06    0.33
  10   0 -11    0.06    0.30
 -10   0  11   -0.16    0.28
 -10   0  11   -0.06    0.27
   9   0 -11   -0.07    0.29
  -9   0  11   -0.06    0.28
  -9   0  11    0.39    0.28
  -8   0  11    0.49    0.29
  -8   0  11    0.18    0.28
   8   0 -11   -0.22    0.25
   7   0 -11   -0.01    0.17
  -7   0  11    0.02    0.28
  -7   0  11    0.10    0.28
   7   0 -11   -0.06    0.18
   7   0 -11   -0.17    0.22
  -6   0  11    0.26    0.26
   6   0 -11   -0.02    0.20
  -6   0  11    0.03    0.27
   6   0 -11    0.06    0.18
   6   0 -11   -0.07    0.16
  -6   0  11   -0.14    0.27
  -5   0  11    0.00    0.26
  -5   0  11   -0.22    0.25
  -5   0  11   -0.22    0.26
   5   0 -11   -0.01    0.19
  -4   0  11    0.33    0.27
  -4   0  11    0.20    0.27
   4   0 -11    0.23    0.19
  -4   0  11    0.09    0.28
  -3   0  11    0.04    0.25
  -3   0  11    0.51    0.28
  -3   0  11    0.20    0.28
  -3   0  11    0.14    0.16
  -2   0  11    0.11    0.24
  -2   0  11    0.27    0.21
  -2   0  11   -0.17    0.27
  -2   0  11    0.13    0.25
  -1   0  11    0.22    0.29
  -1   0  11    0.32    0.25
  -1   0  11    0.18    0.25
  -1   0  11   -0.05    0.22
   0   0  11    0.50    0.26
   0   0  11    0.44    0.31
   0   0  11    0.05    0.26
   0   0  11    0.17    0.24
   1   0  11    0.46    0.31
   1   0  11    0.19    0.25
   1   0  11    0.50    0.25
   1   0  11    0.20    0.30
   2   0  11    0.12    0.25
   2   0  11   -0.02    0.29
   2   0  11    0.13    0.30
   2   0  11    0.23    0.24
   3   0  11    0.00    0.23
   3   0  11    0.13    0.33
   3   0  11    0.05    0.31
   3   0  11    0.18    0.25
   4   0  11    0.35    0.37
   4   0  11    0.24    0.25
   4   0  11   -0.18    0.31
   4   0  11    0.15    0.24
   4   0  11   -0.11    0.27
   5   0  11    0.12    0.24
   5   0  11    0.04    0.35
   5   0  11   -0.47    0.36
   5   0  11    0.17    0.25
   5   0  11   -0.03    0.29
   6   0  11   -0.07    0.33
   6   0  11   -0.16    0.32
   6   0  11   -0.01    0.24
   6   0  11    0.19    0.45
   6   0  11    0.14    0.24
   7   0  11    0.23    0.36
   7   0  11    0.33    0.38
   7   0  11    0.56    0.47
   8   0  11    0.48    0.52
   8   0  11    0.50    0.41
   8   0  11    0.72    0.39
   9   0  11    0.08    0.44
   9   0  11    0.60    0.53
  10   0  11    0.06    0.55
  10   0  11   -0.41    0.46
  11   0  11    0.27    0.52
  11   0  11    0.10    0.61
  12  -1 -11   13.59    1.01
 -12   1  11   13.08    0.95
 -12   1  11   12.86    0.98
  11  -1 -11   19.14    1.21
 -11   1  11   19.98    1.19
 -11   1  11   20.87    1.20
  10  -1 -11    0.89    0.38
 -10   1  11    1.01    0.34
 -10   1  11    1.00    0.37
   9  -1 -11   17.08    1.01
  -9  -1  11   16.77    1.01
   9  -1 -11   16.75    0.92
  -9   1  11   16.57    1.03
  -9   1  11   15.95    1.01
   8  -1 -11   35.91    1.65
  -8  -1  11   33.19    1.70
  -8  -1  11   36.07    1.73
   8  -1 -11   32.93    1.63
   8  -1 -11   33.06    1.71
  -8   1  11   34.12    1.74
  -8   1  11   35.34    1.73
   7  -1 -11    7.72    0.56
  -7  -1  11    6.20    0.57
  -7  -1  11    8.34    0.65
   7  -1 -11    7.33    0.54
   7  -1 -11    7.37    0.61
  -7   1  11    7.97    0.64
  -7   1  11    8.43    0.68
   6  -1 -11    0.37    0.21
   6  -1 -11    0.03    0.25
  -6  -1  11    0.38    0.28
  -6  -1  11    0.19    0.27
  -6  -1  11    0.33    0.32
   6  -1 -11    0.55    0.23
   6   1 -11    0.13    0.15
  -6   1  11    0.10    0.28
  -6   1  11    0.59    0.28
   6   1 -11    0.34    0.20
   6   1 -11    0.55    0.21
  -6   1  11    0.48    0.24
   5  -1 -11  103.88    4.75
  -5  -1  11  106.17    4.79
  -5  -1  11  108.77    4.80
  -5  -1  11  106.79    4.89
  -5   1  11  110.58    4.80
  -5   1  11  111.20    4.80
   5   1 -11  105.11    4.70
  -5   1  11  104.34    4.80
   4  -1 -11   66.50    2.98
  -4  -1  11   66.62    3.04
  -4  -1  11   62.58    3.12
  -4  -1  11   66.45    3.02
  -4   1  11   68.40    3.06
  -4   1  11   65.67    3.04
   4   1 -11   65.56    2.91
  -4   1  11   62.93    3.02
  -3  -1  11    9.91    0.68
  -3  -1  11    9.00    0.75
  -3  -1  11    9.56    0.70
  -3  -1  11    9.21    0.76
  -3   1  11    9.53    0.57
  -3   1  11    8.48    0.68
  -3   1  11    8.49    0.68
  -3   1  11    8.81    0.71
   3   1 -11    9.34    0.52
  -2  -1  11   69.76    3.01
  -2  -1  11   70.55    3.00
  -2  -1  11   61.28    3.09
  -2  -1  11   69.48    3.00
  -2   1  11   58.82    2.99
  -2   1  11   61.06    2.99
  -2   1  11   59.90    3.06
  -2   1  11   66.74    2.94
  -1  -1  11   42.22    1.96
  -1  -1  11   46.80    1.97
  -1  -1  11   35.88    2.02
  -1  -1  11   43.24    1.94
  -1   1  11   33.43    1.99
  -1   1  11   37.08    1.93
  -1   1  11   44.07    1.92
  -1   1  11   33.25    1.90
   0  -1  11   -0.09    0.24
   0  -1  11    0.26    0.25
   0  -1  11   -0.06    0.29
   0  -1  11   -0.13    0.26
   0   1  11   -0.21    0.24
   0   1  11    0.15    0.26
   0   1  11   -0.46    0.30
   0   1  11   -0.06    0.25
   1  -1  11    4.37    0.53
   1  -1  11    4.64    0.59
   1  -1  11    5.12    0.50
   1  -1  11    4.16    0.46
   1   1  11    4.10    0.45
   1   1  11    4.91    0.60
   1   1  11    4.25    0.51
   1   1  11    4.27    0.47
   2  -1  11   60.72    2.80
   2  -1  11   58.16    2.91
   2  -1  11   57.46    2.91
   2  -1  11   59.21    2.81
   2   1  11   60.93    2.93
   2   1  11   61.12    2.78
   2   1  11   59.99    2.79
   2   1  11   62.41    2.91
   3  -1  11   24.83    1.27
   3  -1  11   24.48    1.45
   3  -1  11   23.47    1.35
   3  -1  11   22.90    1.33
   3  -1  11   23.66    1.46
   3   1  11   26.95    1.33
   3   1  11   28.21    1.32
   3   1  11   27.25    1.50
   3   1  11   27.07    1.50
   4  -1  11   25.09    1.50
   4  -1  11   22.16    1.33
   4  -1  11   23.39    1.33
   4  -1  11   25.69    1.44
   4  -1  11   26.35    1.29
   4   1  11   26.77    1.28
   4   1  11   24.92    1.47
   4   1  11   25.76    1.55
   4   1  11   25.96    1.28
   5  -1  11   34.24    1.72
   5  -1  11   32.78    1.89
   5  -1  11   33.66    1.67
   5  -1  11   32.87    1.70
   5  -1  11   35.40    1.81
   5   1  11   36.58    1.95
   5   1  11   33.37    1.73
   5   1  11   33.21    1.82
   6  -1  11    5.59    0.73
   6  -1  11    5.21    0.52
   6  -1  11    3.94    0.46
   6  -1  11    4.92    0.59
   6  -1  11    4.67    0.51
   6   1  11    4.54    0.55
   6   1  11    5.49    0.62
   6   1  11    6.69    0.81
   7  -1  11    6.08    0.58
   7  -1  11    3.58    0.44
   7  -1  11    6.17    0.77
   7  -1  11    4.69    0.58
   7  -1  11    4.58    0.49
   7   1  11    5.44    0.60
   7   1  11    6.57    0.83
   7   1  11    4.56    0.59
   8  -1  11    4.01    0.56
   8  -1  11    5.75    0.77
   8  -1  11    5.08    0.60
   8   1  11    5.84    0.65
   8   1  11    5.02    0.60
   8   1  11    5.41    0.81
   9  -1  11    3.92    0.59
   9  -1  11    5.29    0.78
   9   1  11    3.17    0.61
   9   1  11    5.29    0.82
  10  -1  11    0.07    0.54
  10  -1  11   -0.22    0.46
  10   1  11    0.51    0.52
  10   1  11    1.14    0.65
  11  -1  11    4.54    0.84
  11  -1  11    5.28    0.72
  11   1  11    5.69    0.77
  11   1  11    4.63    0.86
  12  -2 -11   16.19    1.12
 -12   2  11   13.59    1.07
  11  -2 -11    6.07    0.71
 -11   2  11    5.92    0.64
 -11   2  11    6.50    0.64
  10  -2 -11   32.09    1.58
  10  -2 -11   31.19    1.69
  10  -2 -11   29.41    1.63
 -10   2  11   30.08    1.66
 -10   2  11   32.21    1.65
   9  -2 -11   25.79    1.32
   9  -2 -11   26.80    1.42
   9  -2 -11   23.78    1.29
  -9   2  11   24.21    1.41
  -9   2  11   24.87    1.39
   8  -2 -11    1.43    0.32
   8  -2 -11    1.31    0.39
   8  -2 -11    0.94    0.30
  -8   2  11    1.57    0.38
  -8   2  11    1.06    0.35
  -7  -2  11   54.03    2.66
   7  -2 -11   55.00    2.69
   7  -2 -11   57.96    2.65
   7  -2 -11   57.50    2.66
  -7   2  11   58.77    2.71
  -7   2  11   59.80    2.70
  -6  -2  11   63.46    3.01
   6  -2 -11   66.07    3.01
   6  -2 -11   64.66    2.96
  -6  -2  11   61.84    2.99
   6  -2 -11   65.59    2.98
  -6   2  11   66.55    3.03
  -6   2  11   66.14    3.01
  -6   2  11   63.89    2.96
   5  -2 -11    4.14    0.43
  -5  -2  11    4.25    0.48
   5  -2 -11    3.22    0.42
  -5  -2  11    4.14    0.46
  -5   2  11    4.29    0.49
  -5   2  11    4.70    0.49
  -5   2  11    4.18    0.44
  -4  -2  11   69.28    3.35
   4  -2 -11   71.13    3.31
  -4  -2  11   69.58    3.34
  -4   2  11   74.61    3.34
  -4   2  11   74.97    3.35
  -4   2  11   75.93    3.34
  -3  -2  11  155.07    6.82
  -3  -2  11  142.09    6.79
  -3   2  11  159.13    6.81
  -3   2  11  156.38    6.79
  -3   2  11  156.10    6.80
  -3   2  11  152.13    6.74
  -2  -2  11   14.21    0.93
  -2  -2  11   14.52    0.95
  -2  -2  11   16.97    0.92
  -2   2  11   16.75    0.99
  -2   2  11   15.20    0.93
  -2   2  11   14.96    0.89
  -2   2  11   14.48    0.92
  -1  -2  11   62.16    2.98
  -1  -2  11   64.54    3.00
  -1  -2  11   64.26    2.98
  -1   2  11   65.21    2.97
  -1   2  11   66.11    3.05
  -1   2  11   65.05    2.97
  -1   2  11   61.49    2.95
   0  -2  11  116.53    5.43
   0  -2  11  122.81    5.47
   0  -2  11  119.61    5.45
   0   2  11  116.61    5.51
   0   2  11  120.84    5.40
   0   2  11  131.87    5.47
   0   2  11  122.85    5.41
   1  -2  11   27.56    1.51
   1  -2  11   27.72    1.47
   1  -2  11   27.30    1.46
   1   2  11   28.75    1.52
   1   2  11   27.64    1.39
   1   2  11   28.35    1.55
   1   2  11   27.69    1.41
   2  -2  11   12.13    0.84
   2  -2  11   11.84    0.91
   2  -2  11   12.68    0.93
   2  -2  11   12.20    0.83
   2   2  11   11.32    0.73
   2   2  11   11.48    0.91
   2   2  11   12.42    0.72
   2   2  11   12.11    0.94
   3  -2  11  104.54    4.66
   3  -2  11  100.76    4.75
   3  -2  11  104.77    4.65
   3  -2  11  102.15    4.78
   3   2  11  103.41    4.78
   3   2  11   97.02    4.72
   3   2  11  105.92    4.54
   4  -2  11   42.71    2.11
   4  -2  11   40.20    2.20
   4  -2  11   41.78    2.25
   4  -2  11   43.56    2.09
   4   2  11   41.24    2.25
   4   2  11   43.88    2.18
   5  -2  11    5.92    0.71
   5  -2  11    7.02    0.56
   5  -2  11    6.20    0.81
   5  -2  11    6.98    0.66
   5  -2  11    6.91    0.63
   5   2  11    7.29    0.71
   5   2  11    5.88    0.80
   6  -2  11   60.28    2.87
   6  -2  11   65.40    2.87
   6  -2  11   64.70    2.78
   6  -2  11   57.57    2.96
   6  -2  11   48.51    3.02
   6   2  11   56.46    3.07
   6   2  11   62.99    2.92
   7  -2  11   20.52    1.28
   7  -2  11   20.57    1.35
   7  -2  11   17.61    1.46
   7  -2  11   22.73    1.27
   7  -2  11   22.55    1.21
   7   2  11   21.86    1.33
   7   2  11   19.25    1.56
   7   2  11   22.68    1.33
   8  -2  11    0.12    0.38
   8  -2  11    0.08    0.33
   8  -2  11   -0.11    0.52
   8  -2  11    0.37    0.40
   8   2  11   -0.74    0.44
   8   2  11    0.56    0.42
   8   2  11   -0.60    0.57
   9  -2  11    8.74    1.04
   9  -2  11    8.53    0.77
   9   2  11    6.94    0.81
   9   2  11   10.34    1.15
  10  -2  11   27.13    1.83
  10  -2  11   26.07    1.56
  10   2  11   27.72    1.95
  10   2  11   25.55    1.63
  11  -3 -11   25.55    1.44
  11  -3 -11   27.42    1.57
 -11   3  11   25.27    1.53
  10  -3 -11    5.70    0.59
  10  -3 -11    4.27    0.63
  10  -3 -11    5.87    0.58
 -10   3  11    5.44    0.62
 -10   3  11    4.82    0.62
   9  -3 -11   34.60    1.81
   9  -3 -11   33.34    1.78
   9  -3 -11   36.11    1.89
  -9   3  11   37.37    1.89
  -9   3  11   36.24    1.86
   8  -3 -11   34.52    1.81
   8  -3 -11   36.20    1.86
   8  -3 -11   34.34    1.80
  -8   3  11   37.12    1.86
  -8   3  11   37.45    1.88
   7  -3 -11    4.60    0.55
   7  -3 -11    3.93    0.47
   7  -3 -11    4.00    0.49
  -7   3  11    3.48    0.52
  -7   3  11    4.57    0.53
   6  -3 -11   29.57    1.52
   6  -3 -11   27.68    1.53
   6  -3 -11   27.64    1.49
  -6   3  11   29.80    1.56
  -6   3  11   30.18    1.54
  -6   3  11   29.09    1.54
   5  -3 -11   67.66    3.18
  -5  -3  11   65.84    3.17
   5  -3 -11   67.68    3.13
  -5  -3  11   65.81    3.19
   5  -3 -11   69.04    3.16
  -5   3  11   69.31    3.19
  -5   3  11   69.68    3.15
  -5   3  11   69.49    3.17
   4  -3 -11   26.01    1.30
   4  -3 -11   23.22    1.31
  -4  -3  11   24.67    1.33
  -4  -3  11   23.75    1.34
  -4   3  11   23.26    1.34
  -4   3  11   24.86    1.34
  -4   3  11   25.44    1.33
  -3  -3  11   14.61    0.94
  -3  -3  11   13.96    0.91
  -3   3  11   13.89    0.92
  -3   3  11   15.13    0.95
  -3   3  11   14.82    0.92
  -3   3  11   13.46    0.90
  -2  -3  11  101.25    4.67
  -2  -3  11  104.91    4.68
  -2  -3  11  101.55    4.68
  -2   3  11  107.19    4.74
  -2   3  11  103.41    4.65
  -2   3  11  105.21    4.67
  -2   3  11  103.88    4.69
  -1  -3  11   38.82    1.94
  -1  -3  11   40.04    1.96
  -1  -3  11   37.78    1.95
  -1   3  11   39.46    2.01
  -1   3  11   39.77    1.98
  -1   3  11   39.48    1.91
  -1   3  11   41.16    1.91
   0  -3  11    0.94    0.34
   0  -3  11    0.81    0.36
   0  -3  11    1.56    0.35
   0   3  11    1.78    0.44
   0   3  11    1.05    0.38
   0   3  11    1.20    0.28
   0   3  11    0.96    0.28
   1  -3  11   84.05    3.76
   1  -3  11   76.73    3.67
   1  -3  11   82.32    3.69
   1   3  11   76.49    3.58
   1   3  11   80.97    3.76
   1   3  11   81.29    3.77
   2  -3  11   45.15    2.30
   2  -3  11   47.26    2.30
   2  -3  11   48.12    2.41
   2   3  11   48.40    2.43
   2   3  11   49.05    2.41
   3  -3  11    0.11    0.33
   3  -3  11    0.08    0.33
   3  -3  11   -0.04    0.40
   3   3  11    0.27    0.39
   3   3  11   -0.03    0.41
   4  -3  11   36.87    1.92
   4  -3  11   35.65    1.93
   4  -3  11   39.92    2.12
   4   3  11   38.12    2.03
   4   3  11   39.42    2.13
   5  -3  11   44.26    2.16
   5  -3  11   46.05    2.39
   5  -3  11   42.26    2.18
   5   3  11   44.63    2.27
   5   3  11   38.74    2.35
   6  -3  11    0.49    0.41
   6  -3  11    0.92    0.49
   6  -3  11    0.46    0.39
   6  -3  11    0.96    0.59
   6   3  11    0.88    0.47
   6   3  11    0.12    0.53
   7  -3  11    7.69    0.72
   7  -3  11    8.24    1.02
   7  -3  11    6.24    0.79
   7  -3  11    8.28    0.77
   7   3  11    6.08    0.92
   7   3  11    8.24    0.80
   8  -3  11   47.19    2.31
   8  -3  11   40.02    2.56
   8  -3  11   46.56    2.32
   8   3  11   44.40    2.33
   9  -3  11    7.29    1.05
   9  -3  11    8.03    0.79
   9  -3  11    7.62    0.75
   9   3  11    5.56    1.00
   9  -4 -11    0.95    0.43
   9  -4 -11    1.01    0.51
  -9   4  11    0.98    0.48
   8  -4 -11    0.38    0.38
   8  -4 -11    1.19    0.48
   8  -4 -11    0.39    0.38
  -8   4  11    1.22    0.46
  -8   4  11    0.69    0.42
   7  -4 -11   26.82    1.53
   7  -4 -11   27.45    1.48
   7  -4 -11   26.47    1.49
  -7   4  11   24.44    1.51
  -7   4  11   27.48    1.51
   6  -4 -11   12.06    0.91
   6  -4 -11   10.28    0.84
   6  -4 -11   11.71    0.91
  -6   4  11   11.48    0.91
  -6   4  11   11.04    0.90
   5  -4 -11    1.82    0.43
   5  -4 -11    2.22    0.47
   5  -4 -11    2.13    0.42
  -5   4  11    2.51    0.47
  -5   4  11    2.72    0.45
  -5   4  11    2.43    0.44
   4  -4 -11   11.89    0.86
   4  -4 -11   13.25    0.90
   4  -4 -11   12.88    0.92
  -4   4  11   13.04    0.90
  -4   4  11   12.57    0.89
  -4   4  11   11.87    0.91
   3  -4 -11   32.22    1.71
  -3  -4  11   35.11    1.75
  -3  -4  11   33.11    1.72
   3  -4 -11   33.00    1.76
   3  -4 -11   33.45    1.73
  -3   4  11   33.29    1.73
  -3   4  11   34.68    1.72
  -3   4  11   36.67    1.82
   2  -4 -11    2.48    0.41
  -2  -4  11    3.31    0.47
  -2  -4  11    2.65    0.43
  -2  -4  11    2.36    0.45
  -2   4  11    2.22    0.48
  -2   4  11    2.76    0.42
  -2   4  11    2.74    0.51
  -2   4  11    2.30    0.39
  -1  -4  11   13.74    0.93
  -1  -4  11   14.29    0.99
  -1  -4  11   14.43    0.97
  -1   4  11   12.77    0.99
  -1   4  11   13.46    1.01
  -1   4  11   15.42    1.03
   0  -4  11   31.29    1.65
   0  -4  11   29.60    1.60
   0  -4  11   28.98    1.57
   0   4  11   29.46    1.67
   0   4  11   29.23    1.67
   1  -4  11    4.62    0.57
   1  -4  11    4.29    0.54
   1  -4  11    5.10    0.64
   1   4  11    4.42    0.66
   1   4  11    5.33    0.64
   2  -4  11   10.98    0.95
   2  -4  11   12.53    1.06
   2  -4  11   11.61    0.94
   2   4  11   13.30    1.07
   2   4  11   14.68    1.09
   3  -4  11   10.13    0.82
   3  -4  11   10.65    1.00
   3  -4  11    9.46    0.81
   3   4  11   10.86    0.96
   3   4  11   10.27    0.98
   4  -4  11    1.79    0.48
   4  -4  11    1.28    0.58
   4  -4  11    2.24    0.49
   4   4  11    1.81    0.62
   4   4  11    1.97    0.52
   5  -4  11    3.77    0.57
   5  -4  11    3.68    0.75
   5  -4  11    3.36    0.57
   5   4  11    4.11    0.76
   5   4  11    3.27    0.63
   6  -4  11   13.16    1.20
   6  -4  11   14.45    1.04
   6  -4  11   11.38    0.93
   6   4  11   10.97    1.15
   6   4  11   11.38    1.03
   7  -4  11    1.60    0.52
   7  -4  11    0.52    0.57
   7  -4  11   -0.01    0.62
   7   4  11    0.37    0.48
   7   4  11    1.01    0.69
   6  -5 -11    0.05    0.41
   6  -5 -11    0.94    0.49
  -6   5  11    0.87    0.45
  -6   5  11    0.54    0.43
   5  -5 -11    6.27    0.91
   5  -5 -11    4.33    0.63
   5  -5 -11    4.93    0.61
  -5   5  11    4.83    0.63
  -5   5  11    5.87    0.63
  -5   5  11    5.76    0.64
   4  -5 -11    0.29    0.43
   4  -5 -11    0.29    0.39
   4  -5 -11    0.11    0.38
  -4   5  11    0.07    0.38
  -4   5  11    0.28    0.42
   3  -5 -11    4.77    0.57
   3  -5 -11    4.92    0.64
   3  -5 -11    6.24    0.64
  -3   5  11    4.18    0.62
   2  -5 -11    0.58    0.37
   2  -5 -11    0.09    0.32
   2  -5 -11   -0.05    0.41
  -2  -5  11   -0.20    0.37
  -2   5  11    0.39    0.46
  -1  -5  11   -0.32    0.39
  -1  -5  11   -0.20    0.40
   1  -5 -11   -0.13    0.32
  -1  -5  11   -0.14    0.37
   1  -5 -11    0.54    0.34
  -1   5  11    0.35    0.45
  -1   5  11   -0.36    0.48
   0  -5  11    0.53    0.47
   0  -5  11    0.58    0.43
   0  -5 -11    0.62    0.35
   0  -5  11    1.12    0.45
   0   5  11    0.78    0.55
   0   5  11    0.34    0.46
   1  -5  11    0.26    0.49
   1  -5  11    0.75    0.45
   1  -5  11    0.39    0.42
   1   5  11    0.86    0.52
   1   5  11    0.80    0.57
   2  -5  11    0.09    0.51
   2  -5  11    0.37    0.44
   2  -5  11    1.10    0.49
   2   5  11    0.20    0.55
   2   5  11    0.66    0.51
   3  -5  11    0.39    0.47
   3  -5  11    0.24    0.45
   3  -5  11    0.43    0.54
   3   5  11    0.42    0.62
   3   5  11    0.79    0.53
   4  -5  11    0.10    0.48
   4  -5  11    0.88    0.61
   4   5  11    0.99    0.65
   5  -5  11    1.35    0.70
   5   5  11    0.58    0.69
  12   0 -12   28.03    1.57
  11   0 -12    2.67    0.47
 -11   0  12    4.24    0.60
 -11   0  12    3.57    0.49
 -10   0  12   10.29    0.76
 -10   0  12    9.20    0.79
  10   0 -12    8.71    0.72
   9   0 -12   58.86    2.70
  -9   0  12   56.56    2.72
  -9   0  12   56.55    2.70
  -8   0  12  107.69    4.83
  -8   0  12  109.42    4.83
   8   0 -12  104.51    4.79
   7   0 -12   32.88    1.49
  -7   0  12   30.56    1.60
   7   0 -12   30.16    1.53
  -7   0  12   29.80    1.61
   7   0 -12   31.32    1.49
  -6   0  12  237.68   10.06
  -6   0  12  226.38   10.03
   6   0 -12  228.13    9.97
  -6   0  12  226.57   10.04
   6   0 -12  226.31    9.94
  -5   0  12   62.83    2.97
   5   0 -12   63.38    2.89
  -5   0  12   64.18    2.99
  -5   0  12   64.60    3.01
  -4   0  12    4.83    0.54
   4   0 -12    3.89    0.38
  -4   0  12    4.02    0.47
  -4   0  12    4.00    0.47
  -3   0  12   90.29    3.92
  -3   0  12   80.86    3.84
  -3   0  12   81.88    3.85
  -2   0  12  188.03    7.83
  -2   0  12  173.68    7.75
  -2   0  12  177.47    7.74
  -2   0  12  163.99    7.68
  -1   0  12   57.70    2.69
  -1   0  12   59.08    2.78
  -1   0  12   55.26    2.67
  -1   0  12   56.61    2.68
   0   0  12   43.91    2.06
   0   0  12   43.29    2.07
   0   0  12   39.73    2.07
   0   0  12   42.64    2.14
   1   0  12  212.96    9.66
   1   0  12  226.79    9.73
   1   0  12  225.04    9.76
   1   0  12  218.01    9.65
   2   0  12   65.36    3.13
   2   0  12   65.53    3.03
   2   0  12   64.45    3.04
   2   0  12   67.05    3.14
   3   0  12   54.72    2.60
   3   0  12   49.50    2.55
   3   0  12   50.18    2.45
   3   0  12   53.20    2.45
   4   0  12  183.83    8.18
   4   0  12  183.27    8.22
   4   0  12  188.62    8.05
   4   0  12  173.79    8.05
   4   0  12  187.57    8.06
   5   0  12   26.51    1.56
   5   0  12   24.17    1.37
   5   0  12   24.79    1.48
   5   0  12   25.08    1.33
   5   0  12   27.51    1.35
   6   0  12   -0.16    0.44
   6   0  12    0.06    0.32
   6   0  12    0.24    0.38
   6   0  12    0.33    0.28
   6   0  12   -0.32    0.34
   7   0  12   67.54    3.22
   7   0  12   72.92    3.36
   7   0  12   60.10    3.12
   8   0  12   96.47    4.55
   8   0  12  102.81    4.76
   8   0  12   99.32    4.61
   9   0  12   -0.15    0.56
   9   0  12    0.45    0.46
  10   0  12   22.57    1.63
  10   0  12   22.27    1.44
  12  -1 -12    0.32    0.44
 -12   1  12    0.18    0.38
 -12   1  12    0.42    0.40
  11  -1 -12   10.73    0.85
 -11   1  12   11.52    0.87
 -11   1  12    9.27    0.77
  10  -1 -12   28.19    1.54
 -10   1  12   29.20    1.53
 -10   1  12   27.96    1.54
   9  -1 -12    0.60    0.26
  -9  -1  12    0.98    0.44
  -9  -1  12    0.36    0.35
   9  -1 -12    1.27    0.37
  -9   1  12    0.80    0.38
  -9   1  12    1.10    0.36
  -8  -1  12   21.41    1.18
   8  -1 -12   20.78    1.10
  -8  -1  12   20.50    1.19
   8  -1 -12   21.18    1.09
   8  -1 -12   19.22    1.15
  -8   1  12   21.08    1.24
  -8   1  12   21.29    1.21
  -7  -1  12   73.71    3.44
   7  -1 -12   73.41    3.37
   7  -1 -12   74.98    3.43
   7  -1 -12   74.56    3.38
  -7  -1  12   77.79    3.46
  -7   1  12   72.46    3.46
  -7   1  12   76.44    3.45
  -6  -1  12   54.23    2.50
   6  -1 -12   51.54    2.42
  -6  -1  12   52.46    2.50
  -6  -1  12   57.01    2.58
   6  -1 -12   51.93    2.43
   6  -1 -12   50.49    2.45
  -6   1  12   53.26    2.47
  -6   1  12   50.78    2.49
  -6   1  12   50.95    2.51
   5  -1 -12   27.36    1.40
  -5  -1  12   26.97    1.45
  -5  -1  12   30.39    1.56
  -5  -1  12   30.00    1.47
  -5   1  12   27.35    1.47
  -5   1  12   24.66    1.43
  -5   1  12   27.40    1.45
  -4  -1  12  161.64    7.14
   4  -1 -12  163.91    6.99
  -4  -1  12  165.91    7.03
  -4  -1  12  163.43    7.04
  -4   1  12  153.87    7.03
  -4   1  12  148.35    7.03
  -4   1  12  155.11    7.06
  -3  -1  12   37.39    1.72
  -3  -1  12   35.64    1.69
  -3  -1  12   33.34    1.81
  -3   1  12   33.45    1.77
  -3   1  12   33.56    1.71
  -3   1  12   29.96    1.69
  -3   1  12   29.43    1.69
   3   1 -12   35.33    1.60
  -2  -1  12   -0.01    0.26
  -2  -1  12   -0.22    0.23
  -2  -1  12   -0.03    0.27
  -2  -1  12   -0.05    0.31
  -2   1  12    0.06    0.28
  -2   1  12    0.17    0.23
  -2   1  12   -0.71    0.30
  -2   1  12   -0.57    0.26
  -1  -1  12   70.57    3.06
  -1  -1  12   63.41    3.15
  -1  -1  12   72.27    3.08
  -1  -1  12   68.93    3.04
  -1   1  12   62.11    3.15
  -1   1  12   58.08    3.03
  -1   1  12   56.86    3.02
  -1   1  12   69.71    3.03
   0  -1  12  100.11    4.49
   0  -1  12   96.25    4.60
   0  -1  12  103.29    4.54
   0  -1  12  104.46    4.48
   0   1  12   91.61    4.48
   0   1  12   99.55    4.61
   0   1  12   95.63    4.48
   0   1  12  102.28    4.51
   1  -1  12   10.15    0.75
   1  -1  12    8.81    0.72
   1  -1  12    9.01    0.84
   1  -1  12   10.75    0.83
   1   1  12   10.30    0.75
   1   1  12   11.63    0.95
   1   1  12   11.18    0.77
   1   1  12    9.28    0.79
   2  -1  12   73.50    3.71
   2  -1  12   73.71    3.59
   2  -1  12   76.64    3.61
   2  -1  12   73.37    3.69
   2   1  12   86.75    3.62
   2   1  12   83.07    3.76
   2   1  12   78.66    3.70
   2   1  12   83.04    3.60
   3  -1  12   15.07    1.09
   3  -1  12   12.48    1.03
   3  -1  12   12.97    0.93
   3  -1  12   14.71    0.92
   3   1  12   15.43    0.92
   3   1  12   16.10    0.91
   3   1  12   15.99    1.10
   3   1  12   15.94    1.10
   4  -1  12    0.05    0.35
   4  -1  12    0.40    0.41
   4  -1  12    0.07    0.29
   4  -1  12    0.22    0.29
   4  -1  12    0.16    0.28
   4   1  12    0.29    0.45
   4   1  12    0.84    0.27
   4   1  12   -0.25    0.38
   4   1  12    0.15    0.26
   5  -1  12   28.16    1.53
   5  -1  12   25.96    1.38
   5  -1  12   25.67    1.42
   5  -1  12   22.82    1.38
   5  -1  12   28.87    1.65
   5   1  12   28.91    1.70
   5   1  12   28.58    1.59
   6  -1  12   47.44    2.34
   6  -1  12   47.57    2.36
   6  -1  12   48.50    2.47
   6  -1  12   50.35    2.36
   6  -1  12   49.00    2.58
   6   1  12   48.81    2.48
   6   1  12   55.49    2.67
   6   1  12   48.30    2.41
   7  -1  12    3.04    0.41
   7  -1  12    3.80    0.47
   7  -1  12    3.29    0.49
   7  -1  12    3.41    0.65
   7  -1  12    2.77    0.51
   7   1  12    2.76    0.53
   7   1  12    3.47    0.56
   7   1  12    4.01    0.75
   8  -1  12    7.48    0.87
   8  -1  12    5.94    0.64
   8  -1  12    5.07    0.64
   8   1  12    6.00    0.88
   8   1  12    4.13    0.61
   8   1  12    6.55    0.70
   9  -1  12   21.26    1.35
   9  -1  12   22.76    1.60
   9   1  12   25.14    1.68
   9   1  12   22.30    1.41
  10  -1  12   10.63    0.94
  10  -1  12   10.60    1.10
  10   1  12   11.62    0.97
  10   1  12   10.14    1.11
  11  -2 -12    0.36    0.44
 -11   2  12    0.60    0.42
 -11   2  12    0.29    0.39
  10  -2 -12    0.37    0.42
  10  -2 -12    0.44    0.31
 -10   2  12    0.44    0.39
 -10   2  12    0.94    0.41
   9  -2 -12    7.72    0.65
   9  -2 -12    7.50    0.70
   9  -2 -12    7.51    0.59
  -9   2  12    6.64    0.66
  -9   2  12    6.37    0.67
   8  -2 -12    2.23    0.36
   8  -2 -12    2.80    0.40
   8  -2 -12    3.04    0.47
  -8   2  12    1.73    0.42
  -8   2  12    3.12    0.49
  -7  -2  12    0.37    0.31
  -7  -2  12    0.13    0.32
   7  -2 -12    0.08    0.28
   7  -2 -12    0.70    0.28
   7  -2 -12    0.66    0.35
  -7   2  12    0.13    0.32
  -7   2  12    0.40    0.34
   6  -2 -12    5.41    0.49
  -6  -2  12    4.23    0.58
   6  -2 -12    4.50    0.51
  -6  -2  12    4.51    0.50
   6  -2 -12    4.88    0.49
  -6  -2  12    5.61    0.55
  -6   2  12    5.00    0.55
  -6   2  12    4.81    0.49
  -6   2  12    5.15    0.53
  -5  -2  12    6.07    0.58
   5  -2 -12    5.79    0.55
   5  -2 -12    7.00    0.56
  -5  -2  12    6.08    0.66
  -5  -2  12    6.87    0.60
  -5   2  12    6.07    0.59
  -5   2  12    6.33    0.61
  -5   2  12    7.05    0.61
  -4  -2  12    7.71    0.66
   4  -2 -12    7.63    0.63
  -4  -2  12    7.87    0.66
  -4  -2  12    7.69    0.73
  -4   2  12    6.83    0.62
  -4   2  12    8.25    0.67
  -4   2  12    6.55    0.63
  -3  -2  12    0.54    0.33
  -3  -2  12    0.15    0.30
  -3   2  12   -0.20    0.24
  -3   2  12    0.02    0.32
  -3   2  12    0.15    0.30
  -3   2  12    0.38    0.31
  -2  -2  12   21.84    1.26
  -2  -2  12   21.69    1.24
  -2  -2  12   19.74    1.20
  -2   2  12   22.12    1.24
  -2   2  12   23.48    1.20
  -2   2  12   20.15    1.21
  -2   2  12   24.13    1.32
  -1  -2  12    1.33    0.36
  -1  -2  12    0.77    0.34
  -1  -2  12    0.73    0.39
  -1  -2  12    0.71    0.35
  -1   2  12    0.23    0.29
  -1   2  12    0.77    0.39
  -1   2  12    0.78    0.34
  -1   2  12    1.08    0.33
   0  -2  12    0.66    0.35
   0  -2  12   -0.16    0.35
   0  -2  12    0.92    0.34
   0  -2  12    0.15    0.34
   0   2  12    0.98    0.36
   0   2  12    0.75    0.32
   0   2  12    0.45    0.30
   0   2  12    0.67    0.38
   1  -2  12    2.00    0.40
   1  -2  12    1.49    0.43
   1  -2  12    1.92    0.40
   1  -2  12    1.91    0.47
   1   2  12    1.47    0.32
   1   2  12    2.12    0.36
   1   2  12    1.64    0.45
   1   2  12    1.80    0.43
   2  -2  12    9.51    0.88
   2  -2  12    8.92    0.84
   2  -2  12   10.05    0.77
   2  -2  12    9.72    0.79
   2   2  12    8.78    0.64
   2   2  12    7.73    0.80
   2   2  12    8.50    0.66
   2   2  12    9.70    0.88
   3  -2  12    1.13    0.47
   3  -2  12    1.14    0.47
   3  -2  12    1.34    0.39
   3  -2  12    0.97    0.38
   3   2  12    1.48    0.49
   3   2  12    1.16    0.47
   4  -2  12    6.52    0.76
   4  -2  12    8.53    0.72
   4  -2  12    7.09    0.68
   4  -2  12    6.88    0.84
   4   2  12    9.01    0.84
   4   2  12    7.56    0.84
   5  -2  12    1.04    0.46
   5  -2  12    1.51    0.42
   5  -2  12    1.42    0.42
   5  -2  12    0.69    0.50
   5   2  12    1.91    0.51
   5   2  12    0.19    0.53
   6  -2  12    2.81    0.55
   6  -2  12    2.15    0.63
   6  -2  12    2.94    0.52
   6  -2  12    3.94    0.53
   6   2  12    3.43    0.57
   6   2  12    2.16    0.68
   7  -2  12   11.15    1.09
   7  -2  12   10.88    0.92
   7  -2  12   10.17    0.86
   7  -2  12   11.29    0.98
   7   2  12   10.61    0.93
   7   2  12   10.39    1.11
   8  -2  12    1.32    0.42
   8  -2  12    2.20    0.67
   8  -2  12    1.42    0.40
   8   2  12    0.21    0.43
   8   2  12    1.34    0.56
   8   2  12    0.87    0.68
   9  -2  12    0.78    0.63
   9   2  12    0.93    0.73
   9   2  12    0.26    0.55
  10  -3 -12    2.77    0.57
  10  -3 -12    2.96    0.49
  10  -3 -12    3.37    0.49
 -10   3  12    3.06    0.57
   9  -3 -12    2.94    0.47
   9  -3 -12    3.65    0.56
   9  -3 -12    3.11    0.46
  -9   3  12    2.52    0.51
  -9   3  12    2.63    0.53
   8  -3 -12    0.33    0.34
   8  -3 -12    0.74    0.41
   8  -3 -12    0.14    0.34
  -8   3  12    0.14    0.36
  -8   3  12    0.62    0.41
   7  -3 -12    9.56    0.82
   7  -3 -12   11.29    0.81
   7  -3 -12   11.70    0.83
  -7   3  12   11.81    0.88
  -7   3  12    8.93    0.81
   6  -3 -12    0.39    0.32
   6  -3 -12    0.03    0.32
   6  -3 -12    0.59    0.37
  -6   3  12    0.49    0.37
  -6   3  12    1.01    0.40
  -5  -3  12    1.64    0.40
   5  -3 -12    0.85    0.38
   5  -3 -12    0.81    0.35
   5  -3 -12    1.07    0.33
  -5  -3  12    1.12    0.38
  -5   3  12    1.13    0.36
  -5   3  12    0.98    0.38
  -5   3  12    0.54    0.37
  -4  -3  12    0.32    0.35
   4  -3 -12    0.46    0.30
   4  -3 -12    0.15    0.32
  -4  -3  12    0.13    0.32
  -4   3  12    0.64    0.35
  -4   3  12    0.08    0.32
  -4   3  12    0.25    0.33
  -3  -3  12    1.21    0.38
  -3  -3  12    0.80    0.37
  -3   3  12    1.14    0.39
  -3   3  12    1.19    0.38
  -3   3  12    1.11    0.36
  -3   3  12    1.07    0.36
  -2  -3  12    0.03    0.35
  -2  -3  12    0.06    0.33
  -2  -3  12    0.57    0.34
  -2   3  12    0.96    0.35
  -2   3  12    1.03    0.35
  -2   3  12    1.19    0.39
  -2   3  12    0.66    0.32
  -1  -3  12    4.64    0.55
  -1  -3  12    4.65    0.53
  -1  -3  12    5.84    0.59
  -1   3  12    4.00    0.54
  -1   3  12    4.44    0.50
  -1   3  12    4.64    0.48
  -1   3  12    4.79    0.59
   0  -3  12    8.13    0.77
   0  -3  12    8.14    0.71
   0  -3  12    9.20    0.75
   0   3  12    8.77    0.67
   0   3  12    7.69    0.76
   0   3  12    8.70    0.78
   0   3  12    7.96    0.64
   1  -3  12   -0.08    0.33
   1  -3  12    0.50    0.40
   1  -3  12    1.02    0.39
   1   3  12    0.46    0.32
   1   3  12    0.57    0.43
   1   3  12    0.66    0.43
   2  -3  12    6.66    0.74
   2  -3  12    5.10    0.59
   2  -3  12    6.10    0.63
   2   3  12    6.07    0.73
   2   3  12    6.98    0.76
   3  -3  12   10.57    0.98
   3  -3  12   12.27    0.92
   3  -3  12   11.08    0.90
   3   3  12   11.59    1.06
   3   3  12   10.66    0.96
   4  -3  12    0.30    0.39
   4  -3  12   -0.02    0.39
   4  -3  12    0.60    0.52
   4  -3  12    0.15    0.46
   4   3  12    0.44    0.54
   4   3  12    0.67    0.48
   5  -3  12    0.71    0.43
   5  -3  12    0.19    0.55
   5  -3  12    0.40    0.49
   5  -3  12    0.52    0.42
   5   3  12   -0.07    0.56
   5   3  12    0.67    0.48
   6  -3  12    0.71    0.61
   6  -3  12    1.50    0.47
   6  -3  12    1.82    0.58
   6  -3  12    1.98    0.51
   6   3  12    1.64    0.54
   6   3  12    1.17    0.64
   7  -3  12    2.12    0.55
   7  -3  12    1.88    0.71
   7  -3  12    1.86    0.57
   7  -3  12    1.74    0.51
   7   3  12    0.94    0.71
   7   3  12    1.53    0.54
   8  -3  12    2.89    0.78
   8  -3  12    2.33    0.57
   8  -3  12    4.12    0.61
   8   3  12    2.48    0.81
   8   3  12    3.32    0.63
  -9   4  12   12.86    1.08
   8  -4 -12   12.18    1.01
   8  -4 -12   12.29    0.97
  -8   4  12   11.82    0.98
   7  -4 -12    3.77    0.52
   7  -4 -12    4.12    0.54
   7  -4 -12    2.89    0.57
  -7   4  12    3.12    0.55
  -7   4  12    3.19    0.56
   6  -4 -12   10.94    0.90
   6  -4 -12   13.06    0.97
   6  -4 -12   12.16    0.97
  -6   4  12   13.01    0.98
  -6   4  12   11.83    0.97
   5  -4 -12   36.45    1.84
   5  -4 -12   34.49    1.79
   5  -4 -12   32.64    1.76
  -5   4  12   32.32    1.81
  -5   4  12   34.89    1.81
  -5   4  12   34.18    1.81
   4  -4 -12    0.35    0.32
   4  -4 -12    0.17    0.34
   4  -4 -12   -0.14    0.39
  -4   4  12    0.13    0.39
  -4   4  12    0.11    0.34
  -4   4  12    0.04    0.37
  -3  -4  12   15.95    1.02
   3  -4 -12   13.56    0.99
   3  -4 -12   14.84    0.97
  -3  -4  12   13.34    1.02
   3  -4 -12   13.03    0.94
  -3   4  12   13.72    0.97
  -3   4  12   14.96    1.04
  -3   4  12   14.00    0.98
  -3   4  12   16.91    1.06
  -2  -4  12   40.12    2.03
  -2  -4  12   41.69    2.07
  -2   4  12   39.96    2.00
  -2   4  12   40.32    1.98
  -2   4  12   39.66    2.08
  -2   4  12   39.84    2.12
  -1  -4  12    2.18    0.46
  -1  -4  12    2.36    0.49
  -1  -4  12    3.00    0.51
  -1   4  12    2.59    0.53
  -1   4  12    1.87    0.50
   0  -4  12   18.91    1.16
   0  -4  12   17.09    1.19
   0  -4  12   17.16    1.16
   0   4  12   17.86    1.25
   0   4  12   17.47    1.23
   1  -4  12   36.14    1.91
   1  -4  12   36.67    1.98
   1  -4  12   35.36    1.92
   1   4  12   35.69    2.03
   1   4  12   39.28    2.04
   2  -4  12    7.54    0.76
   2  -4  12    8.67    0.87
   2  -4  12    7.61    0.73
   2   4  12    8.21    0.85
   2   4  12    8.38    0.90
   3  -4  12    3.15    0.57
   3  -4  12    3.86    0.57
   3  -4  12    3.28    0.66
   3   4  12    3.77    0.65
   3   4  12    2.53    0.66
   4  -4  12    9.80    0.86
   4  -4  12    7.76    0.94
   4  -4  12   10.41    0.86
   4   4  12    8.46    0.90
   4   4  12   10.94    1.07
   5  -4  12   13.39    1.24
   5  -4  12   13.21    1.10
   5  -4  12   12.37    0.99
   5   4  12   13.51    1.27
   5   4  12   12.48    1.12
   6  -4  12    0.21    0.62
   6  -4  12   -0.18    0.53
   6  -4  12   -0.24    0.47
   6   4  12   -0.09    0.48
   6   4  12   -1.00    0.57
   7  -4  12    7.87    1.09
   7   4  12    5.70    1.00
   5  -5 -12    6.29    0.71
   5  -5 -12    7.51    0.78
  -5   5  12    9.86    0.99
  -5   5  12    7.76    0.76
   4  -5 -12   21.29    1.33
   4  -5 -12   21.77    1.39
  -4   5  12   21.55    1.36
   3  -5 -12    8.56    0.83
   3  -5 -12    8.63    0.75
   3  -5 -12    7.90    0.75
  -3   5  12    8.19    0.83
  -2  -5  12    0.35    0.43
   2  -5 -12    0.54    0.45
  -2  -5  12    0.02    0.48
   2  -5 -12    0.77    0.41
   2  -5 -12    0.84    0.37
  -2   5  12    0.47    0.50
  -1  -5  12   31.70    1.80
   1  -5 -12   30.63    1.66
   1  -5 -12   29.28    1.62
  -1  -5  12   30.50    1.72
  -1  -5  12   29.13    1.68
  -1   5  12   31.81    1.84
  -1   5  12   32.66    1.83
   0  -5  12   27.92    1.68
   0  -5  12   29.20    1.72
   0  -5 -12   29.88    1.61
   0  -5  12   30.69    1.78
   0   5  12   32.32    1.83
   0   5  12   32.00    1.84
   1  -5  12    0.93    0.48
   1  -5  12    1.29    0.56
   1  -5  12    1.31    0.50
   1   5  12    1.90    0.64
   1   5  12    1.06    0.56
   2  -5  12   27.79    1.66
   2  -5  12   27.44    1.77
   2  -5  12   26.79    2.04
   2   5  12   29.09    2.26
   2   5  12   29.29    1.83
   3  -5  12   29.62    1.90
   3  -5  12   29.51    1.78
   3   5  12   32.44    2.03
 -11   0  13    0.20    0.38
 -11   0  13    0.38    0.37
  10   0 -13    0.00    0.33
 -10   0  13   -0.05    0.35
 -10   0  13   -0.16    0.31
   9   0 -13   -0.14    0.29
  -9   0  13    0.33    0.34
  -9   0  13    0.11    0.32
   8   0 -13   -0.20    0.27
  -8   0  13    0.02    0.32
  -8   0  13    0.53    0.35
   7   0 -13   -0.24    0.25
   7   0 -13   -0.19    0.20
   7   0 -13   -0.22    0.20
  -7   0  13   -0.15    0.32
  -7   0  13    0.63    0.35
  -6   0  13    0.43    0.36
  -6   0  13    0.23    0.34
   6   0 -13   -0.10    0.23
  -6   0  13   -0.39    0.30
   6   0 -13    0.12    0.21
  -5   0  13   -0.24    0.31
  -5   0  13    0.11    0.33
  -5   0  13    0.30    0.33
   5   0 -13    0.34    0.25
  -4   0  13   -0.36    0.29
  -4   0  13   -0.21    0.31
   4   0 -13   -0.03    0.22
  -4   0  13   -0.17    0.33
  -3   0  13    0.01    0.31
  -3   0  13    0.04    0.34
  -3   0  13   -0.22    0.28
  -2   0  13    0.34    0.30
  -2   0  13   -0.04    0.29
  -2   0  13    0.52    0.27
  -2   0  13    0.26    0.35
  -1   0  13   -0.01    0.33
  -1   0  13   -0.12    0.29
  -1   0  13    0.08    0.28
  -1   0  13    0.52    0.30
   0   0  13    0.16    0.31
   0   0  13   -0.34    0.33
   0   0  13    0.28    0.30
   0   0  13    0.26    0.29
   1   0  13    0.50    0.36
   1   0  13    0.40    0.29
   1   0  13    0.46    0.31
   1   0  13    0.97    0.38
   2   0  13    0.15    0.29
   2   0  13    0.03    0.28
   2   0  13    0.06    0.34
   2   0  13   -0.37    0.34
   3   0  13   -0.19    0.36
   3   0  13   -0.06    0.38
   3   0  13    0.45    0.30
   3   0  13    0.12    0.28
   4   0  13   -0.11    0.43
   4   0  13    0.31    0.30
   4   0  13   -0.13    0.39
   4   0  13    0.23    0.29
   5   0  13    0.33    0.45
   5   0  13   -0.08    0.29
   5   0  13    0.19    0.40
   5   0  13    0.35    0.29
   5   0  13   -0.06    0.37
   6   0  13   -0.10    0.39
   6   0  13    0.36    0.48
   6   0  13    0.22    0.41
   6   0  13   -0.07    0.28
   7   0  13   -0.32    0.48
   7   0  13   -0.14    0.40
   7   0  13   -0.63    0.38
   8   0  13    0.21    0.44
   8   0  13    0.18    0.44
   8   0  13   -0.26    0.56
   9   0  13   -0.81    0.55
   9   0  13    0.12    0.48
  10   0  13   -0.50    0.61
  10   0  13    0.24    0.53
  12  -1 -13    4.94    0.66
 -12   1  13    5.07    0.64
  11  -1 -13    3.23    0.53
 -11   1  13    2.54    0.47
 -11   1  13    1.66    0.45
  10  -1 -13    9.50    0.78
 -10   1  13    9.12    0.74
 -10   1  13    7.71    0.74
   9  -1 -13    8.68    0.70
  -9  -1  13    7.65    0.70
  -9  -1  13    8.35    0.71
   9  -1 -13    8.24    0.71
  -9   1  13    7.41    0.69
  -9   1  13    8.06    0.73
   8  -1 -13    0.37    0.26
  -8  -1  13    0.23    0.34
   8  -1 -13   -0.10    0.31
  -8  -1  13    0.31    0.35
   8  -1 -13    0.26    0.26
  -8   1  13   -0.23    0.33
  -8   1  13    0.27    0.38
  -7  -1  13    0.54    0.34
  -7  -1  13    0.81    0.36
   7  -1 -13    1.16    0.35
   7  -1 -13    1.05    0.29
   7  -1 -13    1.08    0.28
  -7   1  13    1.06    0.39
  -7   1  13    0.82    0.35
  -6  -1  13    9.89    0.81
  -6  -1  13   12.35    0.86
  -6  -1  13   11.15    0.86
   6  -1 -13   12.73    0.74
   6  -1 -13    9.98    0.76
  -6   1  13   11.04    0.84
  -6   1  13   10.20    0.85
  -6   1  13   10.28    0.78
   5  -1 -13    7.38    0.61
  -5  -1  13    6.90    0.62
  -5  -1  13    7.75    0.72
  -5  -1  13    6.21    0.61
  -5   1  13    6.81    0.63
  -5   1  13    7.35    0.67
  -5   1  13    5.84    0.60
  -4  -1  13    0.58    0.33
   4  -1 -13    0.67    0.27
  -4  -1  13    1.72    0.43
  -4  -1  13    0.38    0.31
  -4   1  13    0.21    0.34
  -4   1  13    0.03    0.33
  -4   1  13    0.63    0.34
  -3  -1  13   46.81    2.17
  -3  -1  13   43.44    2.04
  -3  -1  13   43.82    2.03
  -3   1  13   36.02    2.09
  -3   1  13   38.30    2.03
  -3   1  13   38.39    2.04
  -2  -1  13   22.59    1.15
  -2  -1  13   21.22    1.17
  -2  -1  13   20.47    1.26
  -2   1  13   18.86    1.16
  -2   1  13   18.78    1.25
  -2   1  13   17.07    1.16
  -2   1  13   19.64    1.08
  -1  -1  13    7.22    0.61
  -1  -1  13    7.97    0.67
  -1  -1  13    6.86    0.73
  -1  -1  13    7.46    0.63
  -1   1  13    7.12    0.75
  -1   1  13    7.12    0.63
  -1   1  13    6.73    0.63
  -1   1  13    6.62    0.63
   0  -1  13   19.96    1.29
   0  -1  13   21.07    1.19
   0  -1  13   22.00    1.21
   0  -1  13   19.28    1.21
   0   1  13   21.23    1.35
   0   1  13   21.43    1.22
   0   1  13   20.97    1.20
   0   1  13   21.08    1.22
   1  -1  13   13.01    1.00
   1  -1  13   15.81    1.00
   1  -1  13   11.97    0.88
   1  -1  13   13.36    0.89
   1   1  13   15.09    0.92
   1   1  13   11.52    0.96
   1   1  13   13.58    0.92
   1   1  13   14.24    1.11
   2  -1  13    0.72    0.32
   2  -1  13    0.19    0.34
   2  -1  13    0.10    0.36
   2  -1  13   -0.08    0.29
   2   1  13    0.43    0.42
   2   1  13    0.56    0.31
   2   1  13    0.86    0.33
   2   1  13    0.48    0.41
   3  -1  13    4.37    0.51
   3  -1  13    5.39    0.66
   3  -1  13    3.45    0.57
   3  -1  13    4.04    0.48
   3   1  13    4.43    0.49
   3   1  13    5.46    0.50
   3   1  13    4.90    0.66
   3   1  13    4.33    0.65
   4  -1  13   31.59    1.85
   4  -1  13   31.30    1.69
   4  -1  13   32.01    1.80
   4  -1  13   31.22    1.70
   4  -1  13   33.80    1.66
   4   1  13   32.41    1.65
   4   1  13   34.88    1.89
   4   1  13   36.73    1.68
   4   1  13   36.03    1.95
   5  -1  13    5.59    0.55
   5  -1  13    5.74    0.56
   5  -1  13    5.44    0.58
   5  -1  13    6.79    0.81
   5  -1  13    6.50    0.69
   5   1  13    7.00    0.84
   5   1  13    5.85    0.73
   6  -1  13   22.05    1.28
   6  -1  13   23.82    1.40
   6  -1  13   21.21    1.28
   6  -1  13   22.58    1.54
   6  -1  13   22.28    1.26
   6   1  13   26.46    1.62
   6   1  13   23.99    1.46
   7  -1  13   10.55    0.93
   7  -1  13   10.15    0.78
   7  -1  13   10.15    1.01
   7  -1  13   10.91    0.84
   7  -1  13    8.75    0.86
   7   1  13   10.16    0.90
   7   1  13    9.99    1.06
   7   1  13   10.26    0.89
   8  -1  13    1.09    0.46
   8  -1  13    1.22    0.60
   8  -1  13    1.07    0.45
   8   1  13    1.22    0.65
   8   1  13    0.92    0.47
   8   1  13    1.14    0.53
   9  -1  13    0.33    0.47
   9  -1  13    1.24    0.63
   9   1  13    0.22    0.51
   9   1  13    0.76    0.63
  11  -2 -13   24.57    1.44
 -11   2  13   22.17    1.42
  10  -2 -13   21.80    1.36
  10  -2 -13   21.27    1.26
 -10   2  13   23.57    1.41
 -10   2  13   24.70    1.39
   9  -2 -13    2.63    0.42
   9  -2 -13    3.30    0.45
   9  -2 -13    2.77    0.51
  -9   2  13    4.21    0.57
  -9   2  13    3.18    0.52
   8  -2 -13   34.59    1.83
   8  -2 -13   34.73    1.75
   8  -2 -13   37.24    1.78
  -8   2  13   34.12    1.85
  -8   2  13   35.38    1.85
  -7  -2  13   39.09    2.00
   7  -2 -13   38.38    1.99
   7  -2 -13   39.95    1.96
   7  -2 -13   38.73    1.94
  -7  -2  13   38.62    1.98
  -7   2  13   42.90    2.04
  -7   2  13   41.03    2.05
   6  -2 -13    2.84    0.45
   6  -2 -13    2.85    0.41
  -6  -2  13    3.25    0.47
  -6  -2  13    1.83    0.40
   6  -2 -13    3.02    0.40
  -6  -2  13    3.06    0.54
  -6   2  13    2.27    0.44
  -6   2  13    2.23    0.61
  -6   2  13    2.70    0.50
   5  -2 -13   28.53    1.55
  -5  -2  13   31.25    1.62
  -5  -2  13   31.99    1.60
  -5  -2  13   27.91    1.68
   5  -2 -13   29.16    1.53
  -5   2  13   30.16    1.63
  -5   2  13   31.80    1.59
  -5   2  13   28.73    1.60
   4  -2 -13   89.79    4.12
  -4  -2  13   89.61    4.15
  -4  -2  13   87.64    4.26
  -4  -2  13   90.57    4.17
  -4   2  13   95.72    4.19
  -4   2  13   91.35    4.19
  -4   2  13   90.85    4.17
  -3  -2  13   14.44    1.00
  -3  -2  13   15.45    1.09
  -3  -2  13   15.09    1.03
  -3   2  13   18.69    1.09
  -3   2  13   12.69    0.97
  -3   2  13   15.20    1.02
  -2  -2  13   42.97    2.07
  -2  -2  13   42.48    2.17
  -2  -2  13   40.89    2.08
  -2   2  13   37.34    2.03
  -2   2  13   35.06    2.04
  -2   2  13   41.64    2.15
  -2   2  13   46.20    2.03
  -1  -2  13   50.61    2.50
  -1  -2  13   57.46    2.66
  -1  -2  13   48.49    2.52
  -1  -2  13   56.70    2.54
  -1   2  13   43.65    2.46
  -1   2  13   44.88    2.45
  -1   2  13   52.72    2.62
  -1   2  13   58.75    2.51
   0  -2  13   10.40    0.91
   0  -2  13   10.13    0.81
   0  -2  13    9.94    0.82
   0  -2  13    9.32    0.82
   0   2  13    7.37    0.81
   0   2  13    8.38    0.70
   0   2  13   11.16    0.84
   0   2  13    8.79    0.76
   1  -2  13    1.10    0.40
   1  -2  13    1.70    0.42
   1  -2  13    1.53    0.50
   1  -2  13    1.56    0.45
   1   2  13    0.75    0.46
   1   2  13    1.77    0.36
   1   2  13    2.69    0.51
   1   2  13    1.40    0.37
   2  -2  13   49.55    2.35
   2  -2  13   44.05    2.46
   2  -2  13   48.38    2.36
   2  -2  13   43.61    2.43
   2   2  13   50.63    2.26
   2   2  13   48.14    2.23
   2   2  13   52.64    2.46
   2   2  13   38.51    2.40
   3  -2  13   26.22    1.77
   3  -2  13   33.73    1.72
   3  -2  13   32.50    1.70
   3  -2  13   30.75    1.84
   3   2  13   29.40    1.79
   3   2  13   35.39    1.86
   4  -2  13    1.15    0.52
   4  -2  13    1.67    0.45
   4  -2  13    1.63    0.50
   4  -2  13    1.69    0.45
   4   2  13    0.94    0.51
   4   2  13    0.85    0.57
   5  -2  13   29.48    1.72
   5  -2  13   27.75    1.79
   5  -2  13   27.76    1.59
   5  -2  13   26.92    1.60
   5   2  13   32.03    1.90
   5   2  13   28.60    1.72
   6  -2  13   18.57    1.29
   6  -2  13   18.56    1.17
   6  -2  13   17.88    1.44
   6  -2  13   15.71    1.16
   6   2  13   16.92    1.27
   6   2  13   19.94    1.54
   7  -2  13    0.69    0.39
   7  -2  13    0.53    0.41
   7  -2  13    1.40    0.62
   7  -2  13    0.03    0.43
   7   2  13   -0.59    0.61
   7   2  13    0.28    0.46
   8  -2  13    9.94    1.09
   8  -2  13    7.96    0.76
   8  -2  13    7.25    0.95
   8   2  13    9.97    1.14
   8   2  13    8.88    0.87
   9  -2  13   11.30    1.21
   9   2  13   12.96    1.33
  10  -3 -13    8.61    0.78
  10  -3 -13    7.50    0.70
  10  -3 -13    7.64    0.81
 -10   3  13    7.12    0.79
   9  -3 -13   40.05    2.04
   9  -3 -13   41.27    2.06
   9  -3 -13   38.54    2.12
  -9   3  13   40.84    2.16
  -9   3  13   45.47    2.61
   8  -3 -13   13.18    0.91
   8  -3 -13   13.53    1.01
   8  -3 -13   12.70    0.94
  -8   3  13   14.45    1.06
  -8   3  13   12.24    1.01
   7  -3 -13   17.45    1.12
   7  -3 -13   16.24    1.05
   7  -3 -13   17.15    1.07
  -7   3  13   16.70    1.17
  -7   3  13   15.70    1.11
   6  -3 -13   57.64    2.73
   6  -3 -13   56.47    2.74
   6  -3 -13   55.98    2.77
  -6   3  13   56.97    2.81
  -6   3  13   60.26    2.80
   5  -3 -13   40.63    1.94
   5  -3 -13   37.76    1.99
   5  -3 -13   39.47    1.96
  -5  -3  13   38.65    2.03
  -5  -3  13   36.57    1.99
  -5   3  13   38.51    1.98
  -5   3  13   38.86    2.01
  -5   3  13   41.59    2.04
  -4  -3  13    4.55    0.59
   4  -3 -13    5.30    0.54
  -4  -3  13    4.59    0.58
   4  -3 -13    5.18    0.58
  -4   3  13    4.87    0.57
  -4   3  13    4.33    0.58
  -4   3  13    4.36    0.57
  -3  -3  13   39.95    2.17
  -3  -3  13   39.95    2.19
  -3   3  13   42.10    2.18
  -3   3  13   45.45    2.17
  -3   3  13   48.45    2.23
  -2  -3  13   49.56    2.44
  -2  -3  13   47.53    2.42
  -2   3  13   44.74    2.38
  -2   3  13   47.00    2.37
  -2   3  13   51.00    2.41
  -2   3  13   53.92    2.51
  -1  -3  13    2.74    0.51
  -1  -3  13    2.88    0.51
  -1  -3  13    3.78    0.54
  -1   3  13    3.36    0.46
  -1   3  13    3.01    0.52
  -1   3  13    2.87    0.57
  -1   3  13    2.80    0.46
   0  -3  13   49.82    2.61
   0  -3  13   55.33    2.66
   0  -3  13   58.62    2.70
   0   3  13   51.65    2.54
   0   3  13   54.71    2.74
   0   3  13   48.32    2.51
   0   3  13   59.27    2.70
   1  -3  13   46.02    2.47
   1  -3  13   55.18    2.59
   1  -3  13   46.88    2.46
   1   3  13   55.24    2.58
   1   3  13   45.99    2.56
   2  -3  13    4.60    0.60
   2  -3  13    3.07    0.63
   2  -3  13    4.02    0.56
   2   3  13    2.80    0.61
   2   3  13    2.55    0.61
   3  -3  13   25.96    1.52
   3  -3  13   24.39    1.67
   3  -3  13   25.80    1.51
   3  -3  13   28.52    1.67
   3   3  13   23.54    1.60
   3   3  13   27.05    1.67
   4  -3  13   46.13    2.51
   4  -3  13   50.96    2.39
   4  -3  13   45.90    2.38
   4  -3  13   49.20    2.59
   4   3  13   42.26    2.53
   4   3  13   44.51    2.47
   5  -3  13    2.38    0.53
   5  -3  13    2.42    0.56
   5  -3  13    3.34    0.75
   5  -3  13    2.22    0.62
   5   3  13    2.40    0.61
   5   3  13    1.73    0.68
   6  -3  13   11.62    0.97
   6  -3  13   10.67    1.07
   6  -3  13   11.90    1.25
   6  -3  13   11.75    0.96
   6   3  13   12.18    1.06
   6   3  13    8.61    1.13
   7  -3  13   11.55    1.09
   7  -3  13    8.66    1.13
   7  -3  13   11.40    0.98
   7  -3  13   10.22    0.91
   7   3  13    9.85    1.20
   7   3  13   10.88    1.00
   8  -3  13    1.47    0.54
   8  -3  13    1.87    0.76
   8   3  13    1.48    0.59
   8   3  13    1.69    0.83
   8  -4 -13   15.27    1.12
   8  -4 -13   15.80    1.17
  -8   4  13   16.17    1.21
   7  -4 -13   12.73    1.02
   7  -4 -13   13.00    1.04
  -7   4  13   13.18    1.08
  -7   4  13   14.41    1.45
   6  -4 -13    0.55    0.41
   6  -4 -13    0.22    0.37
   6  -4 -13    0.16    0.42
  -6   4  13   -0.30    0.42
  -6   4  13    0.57    0.42
   5  -4 -13   17.01    1.11
   5  -4 -13   14.36    1.05
  -5   4  13   14.69    1.07
  -5   4  13   15.18    1.12
  -5   4  13   15.32    1.09
   4  -4 -13   21.15    1.28
  -4  -4  13   21.00    1.45
   4  -4 -13   21.71    1.32
  -4   4  13   20.74    1.32
  -4   4  13   20.72    1.29
  -4   4  13   22.09    1.35
  -3  -4  13    0.20    0.39
  -3  -4  13    0.82    0.44
   3  -4 -13    0.09    0.32
   3  -4 -13    0.03    0.41
  -3   4  13    0.16    0.36
  -3   4  13    0.63    0.44
  -3   4  13    0.59    0.40
  -2  -4  13   11.29    0.93
  -2  -4  13   11.62    0.95
  -2   4  13   10.65    0.86
  -2   4  13   11.95    1.01
  -2   4  13   11.26    0.97
  -1  -4  13   19.82    1.48
  -1  -4  13   16.94    1.24
  -1  -4  13   18.22    1.22
  -1   4  13   18.06    1.26
  -1   4  13   20.42    1.35
   0  -4  13    0.81    0.48
   0  -4  13    0.16    0.42
   0  -4  13    0.06    0.42
   0   4  13    0.41    0.48
   0   4  13    1.01    0.51
   1  -4  13    5.27    0.72
   1  -4  13    4.73    0.63
   1  -4  13    4.96    0.66
   1   4  13    6.07    0.79
   1   4  13    5.07    0.73
   2  -4  13   20.10    1.40
   2  -4  13   19.43    1.32
   2  -4  13   19.70    1.29
   2   4  13   21.14    1.49
   2   4  13   19.15    1.40
   3  -4  13    5.49    0.71
   3  -4  13    5.39    0.81
   3  -4  13    6.78    0.73
   3   4  13    5.20    0.78
   3   4  13    4.42    0.81
   4  -4  13    6.71    0.93
   4  -4  13    7.54    0.80
   4  -4  13    8.43    0.81
   4   4  13    5.91    0.92
   4   4  13    7.70    0.90
   5  -4  13    6.27    0.88
   5  -4  13    7.37    0.98
   5  -4  13    6.60    0.78
   5   4  13    5.61    0.97
   5   4  13    5.07    0.82
   6  -4  13    8.72    1.48
   6  -4  13   10.04    1.20
   6  -4  13    9.82    0.94
   6   4  13    9.52    1.19
   4  -5 -13    0.15    0.41
   4  -5 -13   -0.14    0.47
  -4   5  13    0.21    0.47
   3  -5 -13   -0.18    0.47
   3  -5 -13    0.28    0.41
  -3   5  13   -0.12    0.47
   2  -5 -13    0.44    0.47
   2  -5 -13    0.72    0.42
  -2  -5  13   -0.41    0.44
  -2  -5  13   -0.03    0.47
  -2   5  13    0.02    0.50
  -1  -5  13    0.49    0.46
  -1  -5  13   -0.92    0.44
   1  -5 -13    0.21    0.37
  -1   5  13   -0.25    0.61
  -1   5  13    0.35    0.55
   0  -5  13    2.91    0.63
   0  -5  13    2.90    0.60
   0  -5  13    2.44    0.61
   0  -5 -13    2.74    0.50
   0   5  13    2.90    0.67
   1  -5  13   -0.37    0.47
   1  -5  13    0.52    0.53
   1   5  13    0.93    0.61
   2  -5  13    5.92    0.75
   2  -5  13    4.92    0.81
   2   5  13    6.11    0.89
 -11   0  14    1.28    0.47
 -11   0  14    1.31    0.43
 -10   0  14   30.79    1.67
 -10   0  14   29.82    1.63
  -9   0  14   45.65    2.19
  -9   0  14   40.69    2.14
  -8   0  14   15.36    1.02
  -8   0  14   13.67    1.01
   8   0 -14   14.52    0.91
   7   0 -14   20.08    1.12
  -7   0  14   19.84    1.24
  -7   0  14   20.92    1.24
   7   0 -14   19.74    1.07
   7   0 -14   20.37    1.06
   6   0 -14  209.74    9.50
  -6   0  14  218.69    9.64
  -6   0  14  219.37    9.63
   6   0 -14  215.34    9.53
  -6   0  14  228.32    9.65
  -5   0  14   14.44    1.01
  -5   0  14   13.39    0.98
  -5   0  14   13.68    0.96
   5   0 -14   13.00    0.81
  -4   0  14   40.92    2.15
   4   0 -14   41.72    2.03
  -4   0  14   42.33    2.14
  -4   0  14   47.67    2.24
  -3   0  14   49.32    2.43
  -3   0  14   53.01    2.51
  -3   0  14   46.79    2.40
  -2   0  14   59.38    2.87
  -2   0  14   59.24    2.86
  -2   0  14   62.21    2.96
  -1   0  14   12.35    0.91
  -1   0  14   12.29    0.88
  -1   0  14   13.16    0.99
  -1   0  14   13.91    0.91
   0   0  14  134.39    6.07
   0   0  14  132.61    6.06
   0   0  14  139.97    6.11
   0   0  14  135.71    6.17
   1   0  14   47.08    2.35
   1   0  14   45.59    2.26
   1   0  14   46.73    2.38
   1   0  14   47.17    2.29
   2   0  14   23.26    1.36
   2   0  14   21.76    1.23
   2   0  14   21.00    1.23
   2   0  14   20.86    1.35
   3   0  14  101.60    4.65
   3   0  14   99.17    4.63
   3   0  14  100.43    4.51
   3   0  14   96.31    4.49
   4   0  14   30.68    1.60
   4   0  14   30.10    1.61
   4   0  14   33.02    1.81
   4   0  14   31.07    1.76
   5   0  14    0.06    0.49
   5   0  14    0.04    0.31
   5   0  14    0.29    0.30
   5   0  14    0.30    0.44
   6   0  14   23.64    1.41
   6   0  14   25.01    1.64
   6   0  14   25.26    1.54
   7   0  14   21.95    1.47
   7   0  14   23.37    1.59
   7   0  14   23.26    1.40
   8   0  14    5.70    0.69
   8   0  14    4.60    0.83
   8   0  14    6.17    0.72
   9   0  14    4.61    0.82
   9   0  14    3.99    0.64
  11  -1 -14   14.89    1.10
 -11   1  14   14.12    1.10
 -11   1  14   15.87    1.13
  10  -1 -14    9.28    0.80
 -10   1  14    8.65    0.79
 -10   1  14    9.78    0.83
  -9  -1  14   11.58    0.92
  -9  -1  14   12.16    0.94
   9  -1 -14   11.51    0.88
  -9   1  14   10.93    0.91
  -9   1  14   10.42    0.88
   8  -1 -14   84.50    3.88
  -8  -1  14   87.15    3.98
   8  -1 -14   85.36    3.96
  -8  -1  14   86.71    4.00
   8  -1 -14   85.76    3.90
  -8   1  14   86.13    4.02
  -8   1  14   87.85    4.00
   7  -1 -14   15.80    0.94
  -7  -1  14   16.70    1.05
   7  -1 -14   15.13    0.92
   7  -1 -14   15.81    0.99
  -7  -1  14   15.98    1.07
  -7   1  14   14.06    1.07
  -7   1  14   15.73    1.04
  -6  -1  14    6.74    0.64
   6  -1 -14    7.90    0.60
  -6  -1  14    9.10    0.77
   6  -1 -14    5.49    0.58
  -6  -1  14    7.00    0.66
  -6   1  14    7.25    0.73
  -6   1  14    6.41    0.67
  -6   1  14    7.62    0.73
  -5  -1  14   39.43    1.97
   5  -1 -14   38.88    1.89
  -5  -1  14   42.88    2.05
  -5  -1  14   38.98    1.95
  -5   1  14   36.47    1.95
  -5   1  14   35.93    1.97
  -5   1  14   37.10    1.98
  -4  -1  14   41.77    2.06
  -4  -1  14   45.02    2.10
   4  -1 -14   40.83    2.00
  -4  -1  14   41.21    2.15
  -4   1  14   39.62    2.13
  -4   1  14   40.34    2.09
  -4   1  14   40.32    2.08
  -3  -1  14    0.40    0.35
  -3  -1  14    0.07    0.31
  -3  -1  14   -0.21    0.35
  -3   1  14   -0.43    0.31
  -3   1  14   -0.18    0.37
  -3   1  14    0.46    0.35
  -2  -1  14   40.59    1.94
  -2  -1  14   40.40    1.93
  -2  -1  14   40.78    2.04
  -2   1  14   39.90    2.06
  -2   1  14   34.60    1.93
  -2   1  14   32.82    1.93
  -1  -1  14   32.50    1.63
  -1  -1  14   34.06    1.67
  -1  -1  14   31.79    1.75
  -1  -1  14   31.01    1.64
  -1   1  14   30.06    1.65
  -1   1  14   31.28    1.81
  -1   1  14   28.84    1.65
  -1   1  14   30.94    1.63
   0  -1  14    2.95    0.52
   0  -1  14    3.19    0.45
   0  -1  14    3.04    0.48
   0  -1  14    3.54    0.50
   0   1  14    3.91    0.50
   0   1  14    4.24    0.66
   0   1  14    4.13    0.52
   0   1  14    3.07    0.50
   1  -1  14   33.87    1.91
   1  -1  14   33.84    1.81
   1  -1  14   37.03    1.89
   1  -1  14   33.97    1.79
   1   1  14   38.07    2.00
   1   1  14   38.11    1.84
   1   1  14   36.36    1.82
   1   1  14   32.80    1.87
   2  -1  14   85.54    4.34
   2  -1  14   90.60    4.34
   2  -1  14   91.55    4.45
   2  -1  14   96.84    4.46
   2   1  14   99.69    4.35
   2   1  14  100.59    4.37
   2   1  14  101.62    4.54
   2   1  14   98.96    4.49
   3  -1  14    3.62    0.57
   3  -1  14    4.14    0.62
   3  -1  14    3.90    0.50
   3  -1  14    3.78    0.50
   3   1  14    4.43    0.68
   3   1  14    3.84    0.66
   3   1  14    5.22    0.53
   3   1  14    5.22    0.51
   4  -1  14   18.25    1.32
   4  -1  14   18.89    1.18
   4  -1  14   17.32    1.25
   4  -1  14   17.69    1.13
   4   1  14   23.10    1.14
   4   1  14   20.79    1.38
   4   1  14   21.97    1.41
   5  -1  14   46.48    2.25
   5  -1  14   47.53    2.49
   5  -1  14   42.23    2.26
   5  -1  14   45.79    2.25
   5  -1  14   44.77    2.39
   5   1  14   47.39    2.44
   5   1  14   52.56    2.56
   6  -1  14   26.31    1.68
   6  -1  14   26.66    1.59
   6  -1  14   26.01    1.42
   6  -1  14   27.44    1.47
   6  -1  14   25.65    1.44
   6   1  14   28.66    1.63
   6   1  14   25.83    1.73
   7  -1  14    2.33    0.45
   7  -1  14    1.71    0.46
   7  -1  14    1.55    0.51
   7  -1  14    2.04    0.65
   7   1  14    1.05    0.50
   7   1  14    3.02    0.71
   8  -1  14   24.10    1.46
   8  -1  14   27.51    1.77
   8  -1  14   24.60    1.54
   8   1  14   23.25    1.56
   8   1  14   28.32    1.80
   8   1  14   25.86    1.56
   9  -1  14    8.47    1.03
   9  -1  14    7.78    0.79
   9   1  14    8.36    0.87
   9   1  14    9.16    1.06
  10  -2 -14   10.80    0.92
 -10   2  14   12.90    1.07
   9  -2 -14   -0.01    0.40
   9  -2 -14   -0.18    0.31
   9  -2 -14    0.43    0.32
  -9   2  14    0.52    0.43
  -9   2  14    0.15    0.41
   8  -2 -14    0.28    0.31
   8  -2 -14    0.38    0.33
   8  -2 -14    0.40    0.39
  -8   2  14    0.22    0.40
  -8   2  14   -0.20    0.40
   7  -2 -14    5.88    0.61
   7  -2 -14    3.98    0.50
   7  -2 -14    5.25    0.53
  -7  -2  14    5.24    0.59
  -7  -2  14    4.54    0.55
  -7   2  14    4.68    0.60
  -7   2  14    5.36    0.65
  -6  -2  14    8.20    0.83
   6  -2 -14    7.15    0.69
  -6  -2  14    9.58    0.75
   6  -2 -14    7.42    0.64
   6  -2 -14    8.60    0.67
  -6  -2  14    8.22    0.70
  -6   2  14    8.21    0.75
  -6   2  14    6.78    0.73
   5  -2 -14    0.91    0.36
   5  -2 -14    1.19    0.33
  -5  -2  14    0.64    0.34
  -5  -2  14    1.13    0.39
  -5  -2  14    0.86    0.45
  -5   2  14    0.00    0.39
  -5   2  14    1.27    0.43
  -5   2  14    1.51    0.40
   4  -2 -14    2.56    0.44
  -4  -2  14    2.61    0.57
  -4  -2  14    2.88    0.50
  -4  -2  14    3.24    0.49
  -4   2  14    2.35    0.48
  -4   2  14    3.12    0.54
  -4   2  14    2.93    0.51
  -3  -2  14   11.71    0.89
  -3  -2  14   11.22    0.84
  -3  -2  14    9.94    0.95
  -3   2  14    9.58    0.83
  -3   2  14   10.20    0.86
  -3   2  14   10.59    0.93
  -2  -2  14    1.70    0.41
  -2  -2  14    0.71    0.40
  -2  -2  14    1.49    0.50
  -2   2  14    0.36    0.36
  -2   2  14    0.97    0.42
  -2   2  14    1.78    0.41
  -2   2  14    0.94    0.45
  -1  -2  14    8.64    0.76
  -1  -2  14    7.87    0.84
  -1  -2  14   11.26    0.82
  -1  -2  14    8.93    0.80
  -1   2  14    6.61    0.80
  -1   2  14    6.14    0.70
  -1   2  14   10.67    0.79
  -1   2  14    6.30    0.66
   0  -2  14   31.94    1.52
   0  -2  14   28.77    1.47
   0  -2  14   25.75    1.50
   0  -2  14   29.72    1.63
   0   2  14   22.66    1.40
   0   2  14   21.57    1.37
   0   2  14   20.07    1.52
   1  -2  14    1.81    0.53
   1  -2  14    2.10    0.48
   1  -2  14    1.33    0.46
   1  -2  14    1.47    0.42
   1   2  14    1.92    0.42
   1   2  14    2.19    0.53
   1   2  14    1.99    0.39
   1   2  14    0.47    0.49
   2  -2  14    9.69    0.83
   2  -2  14    8.61    0.89
   2  -2  14    7.55    0.86
   2  -2  14    8.96    0.77
   2   2  14   10.41    0.73
   2   2  14    8.91    0.88
   2   2  14    8.62    0.91
   2   2  14    8.90    0.73
   3  -2  14    3.55    0.68
   3  -2  14    5.04    0.61
   3  -2  14    3.37    0.53
   3  -2  14    4.65    0.70
   3   2  14    5.11    0.75
   3   2  14    3.86    0.70
   4  -2  14    8.68    0.90
   4  -2  14    5.79    0.82
   4  -2  14    7.39    0.71
   4  -2  14    6.61    0.72
   4   2  14    8.97    0.95
   4   2  14    7.11    0.84
   5  -2  14    0.45    0.41
   5  -2  14    0.76    0.49
   5  -2  14    0.20    0.39
   5  -2  14    0.08    0.54
   5   2  14   -0.35    0.56
   5   2  14   -0.28    0.48
   6  -2  14    2.43    0.49
   6  -2  14    1.87    0.50
   6  -2  14    2.46    0.58
   6  -2  14    2.89    0.72
   6   2  14    2.12    0.76
   6   2  14    1.76    0.59
   7  -2  14    5.00    0.70
   7  -2  14    5.18    0.86
   7  -2  14    4.23    0.58
   7  -2  14    3.58    0.54
   7   2  14    3.70    0.67
   7   2  14    4.70    0.91
   8  -2  14    0.29    0.41
   8  -2  14    0.72    0.67
   8   2  14   -0.65    0.48
   8   2  14    0.67    0.71
   9  -3 -14    0.27    0.38
   9  -3 -14   -0.15    0.44
  -9   3  14    0.49    0.50
   8  -3 -14    0.57    0.45
   8  -3 -14    0.56    0.36
   8  -3 -14    0.40    0.37
  -8   3  14   -0.36    0.44
  -8   3  14    0.86    0.47
   7  -3 -14    5.41    0.61
   7  -3 -14    6.74    0.70
   7  -3 -14    5.36    0.57
  -7   3  14    5.16    0.66
  -7   3  14    5.61    0.70
  -6  -3  14   -0.42    0.44
   6  -3 -14   -0.37    0.37
   6  -3 -14   -0.40    0.31
   6  -3 -14    0.17    0.36
  -6   3  14   -0.25    0.43
  -6   3  14   -0.03    0.41
   5  -3 -14   13.90    0.93
  -5  -3  14   12.46    0.99
  -5  -3  14   13.22    1.03
   5  -3 -14   14.57    0.97
   5  -3 -14   12.33    0.96
  -5   3  14   14.44    1.04
  -5   3  14   13.41    1.07
  -5   3  14   13.36    0.99
   4  -3 -14    2.37    0.49
   4  -3 -14    2.60    0.42
  -4  -3  14    2.64    0.49
  -4  -3  14    0.63    0.44
  -4   3  14    2.20    0.51
  -4   3  14    2.90    0.52
  -4   3  14    2.10    0.49
  -3  -3  14    0.64    0.40
  -3  -3  14    1.62    0.47
  -3   3  14    0.32    0.42
  -3   3  14    1.05    0.46
  -3   3  14    0.34    0.38
  -2  -3  14    5.96    0.67
  -2  -3  14    5.51    0.65
  -2   3  14    5.41    0.61
  -2   3  14    4.99    0.61
  -2   3  14    6.13    0.73
  -2   3  14    4.55    0.58
  -1  -3  14   28.72    1.57
  -1  -3  14   26.73    1.55
  -1   3  14   22.97    1.45
  -1   3  14   28.96    1.55
  -1   3  14   29.18    1.65
  -1   3  14   23.03    1.43
   0  -3  14    1.63    0.51
   0  -3  14    2.66    0.56
   0  -3  14    2.93    0.54
   0   3  14    2.63    0.62
   0   3  14    1.83    0.50
   0   3  14    2.35    0.47
   0   3  14    2.12    0.43
   1  -3  14    3.63    0.64
   1  -3  14    2.83    0.55
   1  -3  14    3.18    0.67
   1  -3  14    4.31    0.60
   1   3  14    4.37    0.67
   1   3  14    4.73    0.72
   2  -3  14    7.39    0.88
   2  -3  14    8.48    0.79
   2  -3  14    6.16    0.82
   2  -3  14    7.43    0.76
   2   3  14    5.97    0.81
   2   3  14    4.97    0.79
   3  -3  14    1.13    0.48
   3  -3  14    2.07    0.55
   3  -3  14    1.53    0.63
   3  -3  14    1.42    0.59
   3   3  14    0.64    0.54
   3   3  14    0.78    0.61
   4  -3  14    0.40    0.44
   4  -3  14   -0.19    0.45
   4  -3  14    0.03    0.50
   4  -3  14    0.41    0.58
   4   3  14   -0.37    0.49
   4   3  14   -0.78    0.54
   5  -3  14    1.35    0.52
   5  -3  14    1.06    0.53
   5  -3  14    0.62    0.49
   5  -3  14    0.54    0.62
   5   3  14   -0.17    0.63
   5   3  14   -0.46    0.50
   6  -3  14    2.56    0.66
   6  -3  14    2.34    0.58
   6  -3  14    1.98    0.73
   6  -3  14    1.61    0.56
   6   3  14    1.43    0.59
   6   3  14    1.10    0.74
   7  -3  14   -0.58    0.46
   7  -3  14    0.25    0.66
   7  -3  14    0.66    0.50
   7   3  14    0.11    0.64
   7   3  14   -1.39    0.68
   7  -4 -14   18.06    1.22
   7  -4 -14   16.87    1.24
  -7   4  14   19.08    1.33
   6  -4 -14    9.71    0.89
   6  -4 -14    9.04    0.82
  -6   4  14    8.58    0.87
  -6   4  14   10.94    1.00
   5  -4 -14    1.06    0.44
   5  -4 -14    1.28    0.50
   5  -4 -14    0.64    0.40
  -5   4  14    0.33    0.45
  -5   4  14    0.34    0.46
  -5   4  14    0.37    0.45
   4  -4 -14    9.01    0.76
   4  -4 -14    9.76    0.80
  -4  -4  14    9.09    0.85
   4  -4 -14   11.15    0.91
  -4   4  14    8.34    0.81
  -4   4  14   10.65    0.91
  -4   4  14    7.01    0.79
  -3  -4  14   30.24    1.78
  -3  -4  14   31.28    1.81
   3  -4 -14   29.62    1.68
   3  -4 -14   32.28    1.76
  -3   4  14   31.35    1.72
  -3   4  14   36.36    1.86
  -3   4  14   31.25    1.74
  -2  -4  14    8.72    0.87
  -2  -4  14   11.00    0.91
  -2   4  14    7.77    0.90
  -2   4  14   10.87    0.96
  -2   4  14    8.51    0.85
  -1  -4  14    1.34    0.52
  -1  -4  14    0.88    0.48
  -1   4  14    0.94    0.49
  -1   4  14    0.52    0.52
   0  -4  14   40.79    2.23
   0  -4  14   42.11    2.27
   0  -4  14   42.69    2.31
   0   4  14   43.85    2.37
   0   4  14   44.10    2.33
   1  -4  14   21.75    1.42
   1  -4  14   21.46    1.45
   1  -4  14   23.17    1.51
   1   4  14   20.02    1.50
   1   4  14   21.26    1.55
   2  -4  14    0.76    0.51
   2  -4  14    1.24    0.60
   2  -4  14   -0.19    0.48
   2   4  14   -0.26    0.50
   2   4  14    0.84    0.61
   3  -4  14    7.05    0.85
   3  -4  14   10.03    1.06
   3  -4  14    9.77    1.23
   3   4  14    9.73    1.02
   3   4  14    8.37    1.03
   4  -4  14   16.54    1.67
   4  -4  14   16.68    1.27
   4  -4  14   15.59    1.40
   4   4  14   12.30    1.29
 -11   0  15   -0.27    0.44
 -11   0  15   -0.17    0.40
 -10   0  15    0.38    0.44
 -10   0  15   -0.18    0.36
  -9   0  15    0.06    0.38
  -9   0  15    0.34    0.40
  -8   0  15    0.57    0.40
  -8   0  15   -0.09    0.38
  -7   0  15   -0.19    0.36
   7   0 -15   -0.02    0.30
   7   0 -15   -0.21    0.24
  -7   0  15   -0.15    0.39
  -6   0  15    0.30    0.39
  -6   0  15   -0.28    0.41
  -6   0  15    0.33    0.41
   6   0 -15   -0.19    0.31
  -5   0  15   -0.04    0.36
  -5   0  15   -0.05    0.36
   5   0 -15   -0.15    0.26
  -5   0  15    0.00    0.38
  -4   0  15   -0.28    0.40
  -4   0  15   -0.34    0.34
   4   0 -15   -0.04    0.26
  -4   0  15    0.10    0.36
  -3   0  15   -0.09    0.36
  -3   0  15   -0.33    0.37
   3   0 -15   -0.17    0.24
  -3   0  15    0.37    0.36
  -2   0  15   -0.23    0.40
  -2   0  15   -0.03    0.34
  -2   0  15    0.10    0.35
  -1   0  15    0.29    0.42
  -1   0  15    0.37    0.34
  -1   0  15    0.16    0.35
  -1   0  15    0.46    0.57
   0   0  15    0.85    0.42
   0   0  15    0.17    0.38
   0   0  15    0.89    0.35
   0   0  15    0.78    0.38
   1   0  15   -0.09    0.40
   1   0  15    0.30    0.35
   1   0  15    0.55    0.34
   1   0  15    0.80    0.42
   2   0  15   -0.47    0.39
   2   0  15    0.63    0.34
   2   0  15    0.27    0.43
   2   0  15   -0.03    0.34
   3   0  15    0.25    0.47
   3   0  15    0.10    0.32
   3   0  15    0.08    0.35
   3   0  15    0.38    0.44
   4   0  15    0.06    0.32
   4   0  15    0.21    0.48
   4   0  15    0.28    0.32
   4   0  15   -0.21    0.43
   5   0  15   -0.53    0.46
   5   0  15   -0.03    0.30
   5   0  15   -0.14    0.45
   5   0  15    0.57    0.33
   6   0  15   -0.34    0.52
   6   0  15    0.26    0.48
   7   0  15   -0.88    0.43
   7   0  15   -0.53    0.57
   8   0  15    0.18    0.49
   8   0  15   -0.68    0.58
   8   0  15   -0.15    0.51
  10  -1 -15   19.70    1.29
 -10   1  15   21.36    1.36
 -10   1  15   21.78    1.35
   9  -1 -15    9.07    0.77
  -9  -1  15    8.53    0.78
  -9  -1  15    7.77    0.76
  -9   1  15    9.23    0.83
  -9   1  15    8.38    0.80
   8  -1 -15   14.12    0.89
  -8  -1  15   14.44    1.07
  -8  -1  15   15.81    1.06
   8  -1 -15   14.54    0.92
   8  -1 -15   14.38    0.99
  -8   1  15   15.11    1.13
  -8   1  15   14.04    1.08
   7  -1 -15   22.92    1.21
  -7  -1  15   22.48    1.35
  -7  -1  15   24.75    1.36
   7  -1 -15   19.99    1.21
   7  -1 -15   21.98    1.27
  -7   1  15   22.75    1.35
  -7   1  15   21.48    1.37
  -6  -1  15    8.04    0.71
   6  -1 -15    8.52    0.67
  -6  -1  15    5.68    0.69
   6  -1 -15    6.78    0.58
  -6  -1  15    7.13    0.70
  -6   1  15    7.19    0.72
  -6   1  15    5.60    0.64
  -5  -1  15    0.37    0.40
   5  -1 -15    1.10    0.35
  -5  -1  15    0.64    0.39
  -5  -1  15    0.63    0.39
  -5   1  15    0.93    0.41
  -5   1  15    0.73    0.41
  -5   1  15    0.32    0.40
  -4  -1  15   34.43    1.81
  -4  -1  15   35.24    1.79
   4  -1 -15   33.32    1.70
  -4  -1  15   38.83    1.90
  -4   1  15   32.02    1.85
  -4   1  15   30.76    1.79
  -4   1  15   33.41    1.81
  -3  -1  15   33.16    1.64
  -3  -1  15   29.45    1.63
  -3  -1  15   30.47    1.71
  -3   1  15   29.59    1.63
  -3   1  15   30.11    1.74
  -3   1  15   27.39    1.63
  -2  -1  15    0.68    0.36
  -2  -1  15    1.37    0.40
  -2  -1  15    0.66    0.42
  -2   1  15   -0.12    0.41
  -2   1  15    0.32    0.37
  -2   1  15    0.61    0.38
  -1  -1  15   35.05    1.84
  -1  -1  15   30.61    1.71
  -1  -1  15   32.50    1.70
  -1   1  15   31.60    1.74
  -1   1  15   33.99    1.88
  -1   1  15   34.58    1.75
  -1   1  15   31.10    1.71
   0  -1  15   28.52    1.58
   0  -1  15   30.71    1.62
   0  -1  15   27.70    1.69
   0  -1  15   29.50    1.63
   0   1  15   32.19    1.65
   0   1  15   32.60    1.64
   0   1  15   28.95    1.65
   0   1  15   30.49    1.79
   1  -1  15    0.50    0.35
   1  -1  15    0.58    0.40
   1  -1  15    0.62    0.36
   1  -1  15    1.06    0.43
   1   1  15    1.16    0.38
   1   1  15    0.80    0.51
   1   1  15   -0.21    0.40
   1   1  15    1.27    0.40
   2  -1  15    5.39    0.61
   2  -1  15    6.22    0.59
   2  -1  15    5.21    0.67
   2  -1  15    5.47    0.69
   2   1  15    5.85    0.73
   2   1  15    6.80    0.63
   2   1  15    6.66    0.61
   2   1  15    6.95    0.80
   3  -1  15   22.17    1.39
   3  -1  15   21.89    1.27
   3  -1  15   18.97    1.37
   3  -1  15   19.94    1.23
   3   1  15   20.86    1.45
   3   1  15   23.45    1.25
   3   1  15   22.33    1.24
   3   1  15   22.04    1.47
   4  -1  15    3.35    0.63
   4  -1  15    2.72    0.48
   4  -1  15    3.70    0.48
   4  -1  15    3.83    0.61
   4   1  15    3.32    0.69
   4   1  15    2.93    0.65
   5  -1  15    0.24    0.51
   5  -1  15    0.32    0.43
   5  -1  15    0.06    0.34
   5  -1  15    0.43    0.34
   5   1  15    0.35    0.48
   5   1  15    0.70    0.55
   6  -1  15   11.96    0.90
   6  -1  15   11.53    1.09
   6  -1  15   11.17    0.85
   6  -1  15   11.53    1.01
   6   1  15   12.13    1.07
   6   1  15   11.08    1.11
   7  -1  15    6.85    0.77
   7  -1  15    6.72    0.88
   7  -1  15    5.63    0.97
   7   1  15    6.14    0.77
   7   1  15    6.52    0.91
   8  -1  15    1.95    0.70
   8  -1  15    0.91    0.73
   8  -1  15    1.63    0.59
   8   1  15    2.40    0.61
   8   1  15    2.38    0.75
  10  -2 -15    1.08    0.49
 -10   2  15   -0.29    0.47
   9  -2 -15   26.57    1.48
   9  -2 -15   28.22    1.57
   9  -2 -15   28.27    1.47
  -9   2  15   25.72    1.61
   8  -2 -15   27.13    1.46
   8  -2 -15   26.99    1.47
   8  -2 -15   26.69    1.53
  -8   2  15   25.12    1.57
  -8   2  15   29.09    1.62
   7  -2 -15    0.86    0.41
  -7  -2  15    0.78    0.42
   7  -2 -15    0.82    0.35
   7  -2 -15    0.28    0.33
  -7  -2  15    0.98    0.40
  -7   2  15    0.75    0.47
  -7   2  15    0.78    0.44
  -6  -2  15   16.63    1.29
  -6  -2  15   19.33    1.21
   6  -2 -15   21.04    1.16
  -6  -2  15   20.44    1.23
   6  -2 -15   18.06    1.12
   6  -2 -15   19.10    1.17
  -6   2  15   18.43    1.24
  -6   2  15   18.01    1.28
  -5  -2  15   48.46    2.32
  -5  -2  15   41.85    2.42
  -5  -2  15   49.26    2.30
   5  -2 -15   49.69    2.28
  -5   2  15   44.67    2.34
  -5   2  15   45.33    2.32
  -5   2  15   41.26    2.33
  -4  -2  15    7.58    0.70
  -4  -2  15    7.56    0.69
  -4  -2  15    6.08    0.77
   4  -2 -15    6.83    0.64
  -4   2  15    6.09    0.69
  -4   2  15    6.63    0.72
  -4   2  15    4.90    0.66
  -3  -2  15   15.74    1.21
  -3  -2  15   17.24    1.09
  -3  -2  15   18.04    1.07
  -3   2  15   13.68    1.13
  -3   2  15   11.62    1.02
  -3   2  15   12.34    1.05
  -2  -2  15   70.04    2.99
  -2  -2  15   68.29    2.97
  -2  -2  15   62.63    3.13
  -2   2  15   52.85    2.95
  -2   2  15   62.50    3.08
  -2   2  15   52.45    2.92
  -1  -2  15   16.71    1.10
  -1  -2  15   17.34    1.08
  -1  -2  15   13.68    1.20
  -1   2  15   11.55    1.13
  -1   2  15   19.76    1.11
  -1   2  15   11.95    1.04
  -1   2  15   13.44    1.02
   0  -2  15   22.40    1.36
   0  -2  15   19.23    1.48
   0  -2  15   23.46    1.35
   0  -2  15   24.52    1.41
   0   2  15   21.55    1.32
   0   2  15   24.17    1.39
   0   2  15   17.68    1.43
   0   2  15   22.09    1.29
   1  -2  15   42.15    2.18
   1  -2  15   43.54    2.27
   1  -2  15   38.01    2.32
   1  -2  15   43.74    2.18
   1   2  15   43.83    2.11
   1   2  15   43.87    2.27
   1   2  15   39.09    2.31
   1   2  15   42.71    2.13
   2  -2  15   23.41    1.58
   2  -2  15   24.45    1.53
   2  -2  15   23.51    1.42
   2  -2  15   22.22    1.42
   2   2  15   21.83    1.57
   2   2  15   24.35    1.33
   2   2  15   26.06    1.59
   3  -2  15    0.12    0.47
   3  -2  15   -0.12    0.39
   3  -2  15    0.14    0.47
   3  -2  15    0.31    0.40
   3   2  15   -0.14    0.51
   3   2  15   -0.29    0.52
   4  -2  15   55.72    2.79
   4  -2  15   56.58    2.97
   4  -2  15   53.01    2.76
   4  -2  15   57.47    2.93
   4   2  15   57.00    2.98
   4   2  15   60.55    2.99
   5  -2  15   33.18    2.07
   5  -2  15   34.25    1.97
   5  -2  15   32.39    1.80
   5  -2  15   31.98    1.82
   5   2  15   37.20    2.16
   5   2  15   32.55    1.97
   6  -2  15    1.45    0.56
   6  -2  15    1.68    0.68
   6  -2  15    2.01    0.46
   6  -2  15    1.06    0.44
   6   2  15    1.67    0.61
   6   2  15    1.69    0.75
   7  -2  15   14.65    1.15
   7  -2  15   12.48    0.97
   7  -2  15   10.91    1.17
   7  -2  15   12.89    1.02
   7   2  15   11.78    1.25
   7   2  15   12.79    1.11
   8  -3 -15    2.45    0.50
   8  -3 -15    1.47    0.51
  -8   3  15    2.26    0.58
   7  -3 -15   24.63    1.40
   7  -3 -15   24.62    1.47
  -7   3  15   24.33    1.56
  -7   3  15   24.42    1.60
   6  -3 -15   22.46    1.28
   6  -3 -15   21.37    1.29
  -6  -3  15   22.21    1.48
   6  -3 -15   22.95    1.34
  -6  -3  15   19.61    1.46
  -6   3  15   21.10    1.42
  -6   3  15   20.33    1.39
   5  -3 -15    0.40    0.41
  -5  -3  15    1.38    0.56
   5  -3 -15    0.91    0.41
  -5  -3  15    0.82    0.39
  -5  -3  15    0.69    0.44
   5  -3 -15    0.89    0.38
  -5   3  15    0.33    0.45
  -5   3  15    0.12    0.46
  -5   3  15    0.18    0.43
  -4  -3  15   42.92    2.22
   4  -3 -15   44.83    2.20
  -4  -3  15   44.56    2.25
  -4  -3  15   45.79    2.39
  -4   3  15   44.73    2.27
  -4   3  15   37.30    2.22
  -4   3  15   40.19    2.22
  -3  -3  15   37.89    2.00
  -3  -3  15   33.96    1.84
  -3  -3  15   35.15    1.81
  -3   3  15   24.86    1.73
  -3   3  15   28.13    1.74
  -3   3  15   36.14    1.90
  -2  -3  15    9.24    0.84
  -2  -3  15   10.23    0.89
  -2  -3  15    9.48    0.97
  -2   3  15    7.33    0.77
  -2   3  15    9.55    0.93
  -2   3  15    7.02    0.75
  -1  -3  15   23.36    1.55
  -1  -3  15   25.05    1.45
  -1  -3  15   22.23    1.43
  -1   3  15   19.84    1.31
  -1   3  15   22.74    1.39
  -1   3  15   19.01    1.28
  -1   3  15   23.41    1.52
   0  -3  15   16.48    1.26
   0  -3  15   19.61    1.30
   0  -3  15   17.56    1.53
   0  -3  15   19.46    1.44
   0   3  15   18.91    1.28
   0   3  15   15.97    1.14
   0   3  15   16.99    1.36
   1  -3  15    5.32    0.68
   1  -3  15    4.97    0.74
   1  -3  15    6.25    0.84
   1  -3  15    4.22    0.66
   1   3  15    3.66    0.76
   1   3  15    5.83    0.78
   2  -3  15   29.61    1.83
   2  -3  15   26.58    1.78
   2  -3  15   30.76    1.71
   2  -3  15   28.20    1.67
   2   3  15   30.80    1.81
   2   3  15   20.63    1.69
   3  -3  15   35.59    1.95
   3  -3  15   34.04    2.12
   3  -3  15   39.00    1.99
   3  -3  15   30.59    2.08
   3   3  15   39.09    2.13
   3   3  15   28.44    2.04
   4  -3  15    3.36    0.78
   4  -3  15    4.82    0.67
   4  -3  15    3.06    0.64
   4  -3  15    3.48    0.73
   4   3  15    2.92    0.80
   4   3  15    3.29    0.76
   5  -3  15    6.22    0.88
   5  -3  15    5.89    0.95
   5  -3  15    6.39    0.78
   5   3  15    5.79    0.87
   5   3  15    4.23    0.89
   6  -3  15   21.34    1.51
   6  -3  15   23.24    1.77
   6   3  15   26.02    1.92
   5  -4 -15    9.25    0.86
   5  -4 -15    7.97    0.78
  -5   4  15    6.38    0.80
  -5   4  15    6.58    0.86
  -4  -4  15    0.89    0.53
   4  -4 -15    0.51    0.48
   4  -4 -15    0.52    0.43
  -4  -4  15    1.40    0.53
  -4   4  15   -0.10    0.43
  -4   4  15    1.60    0.53
  -4   4  15    0.50    0.47
   3  -4 -15    0.20    0.44
  -3  -4  15    0.53    0.47
   3  -4 -15   -0.32    0.39
  -3  -4  15    0.47    0.49
  -3   4  15   -0.18    0.42
  -3   4  15    0.10    0.50
  -2  -4  15   14.37    1.15
  -2  -4  15   13.11    1.10
  -2   4  15   12.28    1.13
  -1  -4  15   10.21    0.94
  -1  -4  15    8.71    0.90
  -1   4  15    9.85    0.96
  -1   4  15   11.17    1.07
   0  -4  15    1.55    0.57
   0  -4  15    2.48    0.59
   0   4  15    2.81    0.68
   0   4  15    1.98    0.62
   1  -4  15   12.31    1.46
   1  -4  15   11.77    1.14
   1  -4  15   11.10    1.05
   1   4  15   14.17    1.27
   1   4  15   14.89    1.28
   2  -4  15    5.21    0.75
   2  -4  15    3.65    0.78
   2   4  15    4.69    0.82
   3  -4  15    1.21    0.67
   3  -4  15    0.24    0.55
   3   4  15    0.95    0.67
 -10   0  16   23.81    1.53
 -10   0  16   28.32    2.01
  -9   0  16    1.44    0.49
  -9   0  16    1.21    0.46
  -8   0  16   18.97    1.27
  -8   0  16   20.85    1.31
  -7   0  16   36.05    2.05
  -7   0  16   42.00    2.10
   7   0 -16   39.94    1.92
  -6   0  16    3.31    0.56
  -6   0  16    2.96    0.54
  -5   0  16   17.82    1.28
  -5   0  16   19.69    1.30
  -5   0  16   20.81    1.28
  -4   0  16   79.23    3.75
  -4   0  16   83.39    3.83
  -4   0  16   76.92    3.76
  -3   0  16    2.52    0.52
  -3   0  16    2.37    0.48
  -3   0  16    2.82    0.55
   3   0 -16    2.42    0.42
  -2   0  16   26.24    1.52
  -2   0  16   25.17    1.50
  -2   0  16   28.44    1.61
  -1   0  16   42.78    2.16
  -1   0  16   40.62    2.23
  -1   0  16   42.94    2.13
   0   0  16   50.54    2.62
   0   0  16   51.98    2.61
   0   0  16   56.20    2.74
   0   0  16   55.21    2.60
   1   0  16    1.73    0.50
   1   0  16    1.56    0.44
   1   0  16    1.27    0.51
   1   0  16    1.17    0.41
   2   0  16   50.24    2.53
   2   0  16   55.16    2.70
   2   0  16   51.68    2.67
   2   0  16   52.87    2.56
   3   0  16   68.25    3.35
   3   0  16   67.48    3.19
   3   0  16   63.96    3.16
   3   0  16   71.43    3.37
   4   0  16    5.72    0.77
   4   0  16    5.41    0.56
   4   0  16    5.30    0.59
   4   0  16    4.30    0.69
   5   0  16   22.02    1.30
   5   0  16   23.51    1.56
   5   0  16   22.57    1.49
   6   0  16   24.95    1.62
   6   0  16   24.20    1.70
   7   0  16    5.77    0.78
   7   0  16    6.93    0.95
   9  -1 -16    7.97    0.73
  -9  -1  16    8.32    0.78
  -9  -1  16    8.04    0.78
  -9   1  16    6.46    0.78
  -9   1  16    6.46    0.83
  -8  -1  16   23.65    1.47
   8  -1 -16   24.39    1.39
   8  -1 -16   22.65    1.30
  -8  -1  16   26.97    1.47
   8  -1 -16   24.04    1.38
  -8   1  16   21.70    1.45
  -8   1  16   23.97    1.51
   7  -1 -16    0.83    0.34
   7  -1 -16    0.27    0.31
   7  -1 -16    0.03    0.36
  -7  -1  16    1.26    0.45
  -7  -1  16    0.32    0.41
  -7   1  16   -0.15    0.44
  -7   1  16    0.91    0.44
   6  -1 -16   29.90    1.59
  -6  -1  16   33.74    1.71
  -6  -1  16   29.54    1.69
   6  -1 -16   30.01    1.57
  -6   1  16   29.90    1.70
  -6   1  16   28.38    1.72
  -5  -1  16   19.05    1.15
  -5  -1  16   17.03    1.15
  -5  -1  16   17.25    1.18
   5  -1 -16   16.21    1.04
  -5   1  16   16.02    1.16
  -5   1  16   16.49    1.15
  -5   1  16   15.01    1.16
  -4  -1  16    0.05    0.38
  -4  -1  16    0.61    0.40
   4  -1 -16   -0.52    0.29
  -4  -1  16   -0.03    0.41
  -4   1  16    0.63    0.41
  -4   1  16   -0.22    0.43
  -4   1  16   -0.09    0.38
  -3  -1  16   22.65    1.33
  -3  -1  16   21.24    1.30
  -3  -1  16   22.35    1.40
  -3   1  16   18.99    1.31
  -3   1  16   21.62    1.43
  -3   1  16   21.97    1.33
  -2  -1  16   41.45    2.25
  -2  -1  16   43.18    2.19
  -2  -1  16   44.68    2.17
  -2   1  16   41.74    2.17
  -2   1  16   42.60    2.29
  -2   1  16   42.02    2.20
  -1  -1  16    1.64    0.44
  -1  -1  16    1.96    0.52
  -1  -1  16    0.87    0.42
  -1   1  16    1.78    0.56
  -1   1  16    1.98    0.46
  -1   1  16    1.99    0.47
   0  -1  16   38.88    2.01
   0  -1  16   36.58    2.10
   0  -1  16   40.55    2.05
   0  -1  16   44.62    2.31
   0   1  16   40.60    2.23
   0   1  16   37.27    2.02
   0   1  16   39.40    2.04
   0   1  16   39.05    2.07
   1  -1  16   60.04    2.87
   1  -1  16   54.99    2.77
   1  -1  16   53.15    2.78
   1  -1  16   57.67    2.91
   1   1  16   60.68    2.81
   1   1  16   52.82    2.77
   1   1  16   59.50    2.90
   1   1  16   66.61    3.02
   2  -1  16    3.30    0.52
   2  -1  16    2.53    0.56
   2  -1  16    3.87    0.60
   2  -1  16    3.43    0.49
   2   1  16    2.73    0.63
   2   1  16    3.32    0.49
   2   1  16    3.40    0.50
   2   1  16    2.70    0.61
   3  -1  16   13.78    1.11
   3  -1  16   15.25    1.16
   3  -1  16   14.12    0.98
   3  -1  16   13.01    1.00
   3   1  16   15.55    0.98
   3   1  16   11.39    1.13
   3   1  16   15.12    0.96
   3   1  16   14.00    1.18
   4  -1  16   16.60    1.12
   4  -1  16   16.74    1.08
   4  -1  16   15.67    1.29
   4  -1  16   16.16    1.22
   4   1  16   19.03    1.36
   4   1  16   17.73    1.37
   5  -1  16    3.77    0.55
   5  -1  16    4.94    0.70
   5  -1  16    4.56    0.53
   5  -1  16    3.68    0.73
   5   1  16    5.13    0.81
   5   1  16    4.36    0.71
   6  -1  16    0.28    0.37
   6  -1  16   -0.09    0.55
   6  -1  16   -0.77    0.45
   6   1  16   -0.30    0.57
   6   1  16    0.25    0.53
   7  -1  16    7.42    0.81
   7  -1  16    4.74    0.84
   7   1  16    6.97    0.95
   7   1  16    5.67    0.79
   9  -2 -16    2.08    0.53
   9  -2 -16    1.97    0.46
   9  -2 -16    1.70    0.44
  -9   2  16    2.28    0.57
   8  -2 -16   10.23    0.80
   8  -2 -16    9.71    0.78
   8  -2 -16   10.22    0.87
  -8   2  16    7.43    0.86
   7  -2 -16    1.68    0.41
   7  -2 -16    0.78    0.43
   7  -2 -16    1.16    0.38
  -7  -2  16    1.25    0.45
  -7  -2  16    0.51    0.42
  -7   2  16    0.99    0.52
  -7   2  16    1.63    0.52
  -6  -2  16    0.51    0.43
   6  -2 -16    0.18    0.34
   6  -2 -16    1.10    0.39
  -6  -2  16   -0.66    0.62
  -6  -2  16    0.15    0.41
   6  -2 -16    1.14    0.43
  -6   2  16    0.11    0.44
  -6   2  16   -0.31    0.43
  -5  -2  16    1.85    0.57
   5  -2 -16    1.13    0.42
  -5  -2  16    2.35    0.51
  -5  -2  16    1.67    0.47
  -5   2  16    0.71    0.49
  -5   2  16    1.12    0.47
  -5   2  16    1.11    0.48
   4  -2 -16    1.23    0.41
  -4  -2  16    0.76    0.42
  -4  -2  16    1.65    0.46
  -4  -2  16    0.13    0.47
  -4   2  16    0.98    0.47
  -4   2  16    0.57    0.44
  -4   2  16    1.53    0.52
  -3  -2  16    0.06    0.46
  -3  -2  16   -0.32    0.35
  -3  -2  16   -0.41    0.38
  -3   2  16   -0.20    0.41
  -3   2  16    0.20    0.41
  -3   2  16    0.04    0.48
  -2  -2  16    0.11    0.50
  -2  -2  16    0.66    0.43
  -2  -2  16    1.20    0.44
  -2   2  16    0.04    0.38
  -2   2  16    0.22    0.50
  -2   2  16    0.47    0.45
  -1  -2  16    5.63    0.67
  -1  -2  16    5.51    0.79
  -1  -2  16    4.53    0.62
  -1   2  16    5.78    0.82
  -1   2  16    6.87    0.71
  -1   2  16    5.72    0.65
   0  -2  16    1.15    0.44
   0  -2  16    1.75    0.61
   0  -2  16    0.79    0.44
   0   2  16    2.01    0.48
   0   2  16    0.93    0.59
   0   2  16    1.65    0.53
   0   2  16    1.40    0.42
   1  -2  16    0.06    0.39
   1  -2  16    0.09    0.49
   1  -2  16   -0.05    0.41
   1  -2  16    0.57    0.46
   1   2  16    0.28    0.35
   1   2  16   -0.13    0.48
   1   2  16    0.84    0.40
   1   2  16    0.22    0.56
   2  -2  16    6.97    0.71
   2  -2  16    6.80    0.86
   2  -2  16    8.04    0.86
   2  -2  16    6.37    0.71
   2   2  16    8.23    0.89
   2   2  16    5.95    0.88
   3  -2  16    1.13    0.47
   3  -2  16    2.21    0.62
   3  -2  16    1.69    0.60
   3  -2  16    1.44    0.45
   3   2  16    2.07    0.66
   3   2  16    2.90    0.70
   4  -2  16   -0.50    0.51
   4  -2  16    0.27    0.40
   4  -2  16   -0.60    0.47
   4  -2  16   -0.35    0.38
   4   2  16    0.00    0.58
   4   2  16   -0.85    0.51
   5  -2  16   -0.02    0.47
   5  -2  16    0.54    0.44
   5  -2  16    1.37    0.63
   5  -2  16    0.38    0.42
   5   2  16    0.70    0.68
   5   2  16   -0.18    0.57
   6  -2  16    2.01    0.60
   6  -2  16    2.65    0.54
   6  -2  16    2.61    0.74
   6  -2  16    2.04    0.54
   6   2  16    2.60    0.80
   6   2  16    2.62    0.75
   7  -3 -16    0.02    0.40
   7  -3 -16    0.49    0.47
  -7   3  16    0.92    0.54
   6  -3 -16    1.55    0.45
  -6  -3  16    2.73    0.50
   6  -3 -16    1.88    0.53
  -6   3  16    1.84    0.59
  -5  -3  16    1.32    0.47
  -5  -3  16    1.90    0.51
   5  -3 -16    1.85    0.44
   5  -3 -16    1.45    0.45
  -5  -3  16    1.81    0.60
   5  -3 -16    1.53    0.50
  -5   3  16    1.78    0.54
  -5   3  16    0.72    0.51
  -5   3  16    1.27    0.54
  -4  -3  16    0.54    0.55
  -4  -3  16    0.47    0.46
   4  -3 -16   -0.02    0.41
  -4  -3  16    0.62    0.44
  -4   3  16    0.02    0.46
  -4   3  16    0.34    0.45
  -4   3  16   -0.03    0.49
  -3  -3  16    0.31    0.42
  -3  -3  16   -0.03    0.43
  -3  -3  16    0.07    0.52
   3  -3 -16    0.05    0.40
  -3   3  16    0.15    0.41
  -3   3  16    0.80    0.54
  -3   3  16   -0.66    0.41
  -2  -3  16   -0.41    0.44
  -2  -3  16    0.28    0.44
  -2  -3  16    0.12    0.54
  -2   3  16   -0.34    0.38
  -2   3  16   -0.61    0.38
  -2   3  16   -0.38    0.52
  -1  -3  16    4.12    0.67
  -1  -3  16    4.55    0.66
  -1  -3  16    3.70    0.75
  -1   3  16    4.14    0.57
  -1   3  16    4.19    0.59
  -1   3  16    5.41    0.83
   0  -3  16    2.23    0.59
   0  -3  16    1.60    0.53
   0  -3  16    1.02    0.62
   0   3  16    0.53    0.63
   0   3  16    1.66    0.56
   1  -3  16    0.66    0.49
   1  -3  16    0.20    0.49
   1  -3  16    1.14    0.53
   1  -3  16    0.80    0.59
   1   3  16   -1.02    0.51
   1   3  16    0.46    0.55
   2  -3  16   -0.01    0.49
   2  -3  16    0.31    0.50
   2  -3  16    0.61    0.58
   2  -3  16    0.06    0.47
   2   3  16   -0.50    0.56
   2   3  16   -0.67    0.59
   3  -3  16    0.32    0.56
   3  -3  16    0.43    0.58
   3  -3  16    0.34    0.51
   3   3  16   -0.48    0.63
   3   3  16   -0.67    0.55
   4  -3  16   -0.27    0.55
   4  -3  16    0.74    0.51
   4   3  16   -0.71    0.60
  -3  -4  16   11.15    1.23
   3  -4 -16   12.65    1.02
  -3  -4  16   10.92    1.00
  -3   4  16    7.49    0.89
  -3   4  16   12.33    1.09
  -2  -4  16    0.43    0.52
  -2   4  16    0.51    0.63
  -1  -4  16   15.18    1.28
   0  -4  16    8.22    0.93
   0   4  16    9.37    0.99
   1  -4  16   -0.02    0.54
   1   4  16   -0.13    0.62
  -9   0  17    0.09    0.45
  -8   0  17    0.63    0.45
  -8   0  17   -0.16    0.43
  -7   0  17   -0.41    0.44
  -7   0  17    0.49    0.44
  -6   0  17    0.08    0.44
  -6   0  17   -0.21    0.43
  -5   0  17    0.36    0.47
  -5   0  17   -0.14    0.43
  -5   0  17   -0.18    0.46
  -4   0  17    0.67    0.43
  -4   0  17   -0.03    0.43
  -4   0  17   -0.56    0.44
  -3   0  17    0.34    0.41
  -3   0  17    0.41    0.44
  -3   0  17   -0.13    0.44
  -2   0  17    1.01    0.51
  -2   0  17    0.02    0.37
  -2   0  17    0.18    0.41
  -1   0  17    0.71    0.40
  -1   0  17    0.67    0.43
  -1   0  17    0.24    0.48
   0   0  17    0.48    0.41
   0   0  17    0.64    0.40
   0   0  17    0.68    0.50
   1   0  17   -0.22    0.43
   1   0  17    0.33    0.39
   1   0  17   -0.09    0.35
   1   0  17   -0.27    0.45
   2   0  17    0.22    0.36
   2   0  17    0.15    0.48
   2   0  17    0.41    0.49
   2   0  17    0.46    0.40
   3   0  17    0.37    0.53
   3   0  17   -0.23    0.48
   3   0  17    0.38    0.39
   3   0  17    0.21    0.36
   4   0  17    0.23    0.35
   4   0  17   -0.49    0.51
   4   0  17    0.21    0.37
   4   0  17    0.40    0.52
   5   0  17   -0.58    0.50
   5   0  17   -0.37    0.57
   6   0  17   -0.31    0.53
   6   0  17    0.07    0.57
  -9  -1  17    0.73    0.47
  -9   1  17    0.00    0.50
   8  -1 -17    8.29    0.76
  -8  -1  17    9.02    0.86
   8  -1 -17    7.41    0.67
  -8  -1  17    7.24    0.78
  -8   1  17    7.83    0.84
   7  -1 -17   12.14    0.86
   7  -1 -17   12.67    0.88
   7  -1 -17   10.17    0.88
  -7  -1  17   14.06    1.08
  -7  -1  17   13.70    1.04
  -7   1  17   10.66    0.94
  -7   1  17   10.83    0.97
  -6  -1  17    1.14    0.46
   6  -1 -17    0.96    0.41
   6  -1 -17    1.28    0.37
  -6  -1  17    1.02    0.48
  -6   1  17    0.98    0.51
  -6   1  17    0.91    0.47
  -5  -1  17    7.61    0.81
  -5  -1  17    7.72    0.77
   5  -1 -17    8.90    0.73
  -5  -1  17    8.32    0.77
  -5   1  17    8.49    0.81
  -5   1  17    8.59    0.86
  -5   1  17    7.02    0.80
  -4  -1  17    7.17    0.73
   4  -1 -17    8.36    0.69
  -4  -1  17    7.06    0.79
  -4  -1  17    8.76    0.81
  -4   1  17    7.04    0.74
  -4   1  17    7.34    0.82
  -4   1  17    6.97    0.76
  -3  -1  17    4.40    0.60
  -3  -1  17    4.30    0.66
  -3  -1  17    4.41    0.60
  -3   1  17    3.83    0.57
  -3   1  17    2.85    0.56
  -3   1  17    3.42    0.66
  -2  -1  17   18.49    1.18
  -2  -1  17   17.46    1.25
  -2  -1  17   16.54    1.19
  -2   1  17   19.39    1.24
  -2   1  17   17.58    1.18
  -2   1  17   16.32    1.32
  -1  -1  17   20.29    1.40
  -1  -1  17   20.01    1.31
  -1  -1  17   22.74    1.36
  -1   1  17   21.96    1.51
  -1   1  17   21.48    1.34
  -1   1  17   22.25    1.33
   0  -1  17    2.61    0.49
   0  -1  17    2.46    0.53
   0  -1  17    2.95    0.61
   0   1  17    2.99    0.68
   0   1  17    3.20    0.53
   0   1  17    2.91    0.51
   1  -1  17    5.65    0.64
   1  -1  17    6.04    0.73
   1  -1  17    6.68    0.70
   1  -1  17    6.91    0.80
   1   1  17    9.33    0.93
   1   1  17    6.57    0.68
   1   1  17    6.46    0.77
   1   1  17    7.47    0.69
   2  -1  17   24.66    1.53
   2  -1  17   21.89    1.37
   2  -1  17   22.74    1.48
   2  -1  17   21.83    1.39
   2   1  17   22.55    1.37
   2   1  17   25.64    1.60
   2   1  17   25.18    1.37
   2   1  17   25.73    1.54
   3  -1  17    5.52    0.62
   3  -1  17    5.12    0.72
   3  -1  17    4.08    0.55
   3  -1  17    4.99    0.73
   3   1  17    4.72    0.55
   3   1  17    5.06    0.76
   3   1  17    4.36    0.72
   4  -1  17    3.29    0.64
   4  -1  17    2.41    0.47
   4  -1  17    2.51    0.65
   4  -1  17    2.29    0.49
   4   1  17    2.46    0.65
   4   1  17    2.07    0.66
   5  -1  17   14.15    1.29
   5  -1  17   18.17    1.12
   5  -1  17   17.84    1.14
   5  -1  17   16.20    1.37
   5   1  17   18.00    1.44
   5   1  17   16.30    1.36
   6  -1  17    3.09    0.75
   6  -1  17    2.87    0.58
   6   1  17    2.20    0.70
   8  -2 -17    1.75    0.52
   8  -2 -17    1.79    0.46
  -8  -2  17    1.58    0.53
  -8   2  17    1.37    0.58
   7  -2 -17    6.56    0.65
  -7  -2  17    6.49    0.74
   7  -2 -17    6.49    0.71
   7  -2 -17    6.74    0.72
  -7  -2  17    6.27    0.70
  -7   2  17    5.97    0.77
   6  -2 -17   35.56    1.83
  -6  -2  17   37.19    1.94
  -6  -2  17   36.96    1.90
   6  -2 -17   34.52    1.87
   6  -2 -17   34.28    1.84
  -6   2  17   32.81    1.97
  -6   2  17   31.93    1.94
  -5  -2  17   25.52    1.50
  -5  -2  17   25.01    1.57
  -5  -2  17   24.85    1.46
   5  -2 -17   25.40    1.43
  -5   2  17   19.88    1.49
  -5   2  17   22.72    1.49
  -5   2  17   21.85    1.48
  -4  -2  17    8.79    0.92
   4  -2 -17    7.12    0.71
  -4  -2  17    8.78    0.82
  -4  -2  17    7.46    0.74
  -4   2  17    6.22    0.74
  -4   2  17    5.99    0.80
  -4   2  17    5.33    0.75
  -3  -2  17   72.59    3.17
  -3  -2  17   70.30    3.19
  -3  -2  17   66.76    3.33
  -3   2  17   59.96    3.19
  -3   2  17   60.03    3.17
  -3   2  17   62.50    3.27
  -2  -2  17   19.41    1.28
  -2  -2  17   19.06    1.42
  -2  -2  17   20.42    1.33
  -2   2  17   17.81    1.46
  -2   2  17   21.49    1.32
  -2   2  17   21.78    1.38
  -1  -2  17    0.96    0.49
  -1  -2  17    1.58    0.47
  -1  -2  17    1.84    0.59
  -1   2  17    1.65    0.47
  -1   2  17    1.40    0.49
  -1   2  17    0.96    0.62
   0  -2  17   30.41    1.99
   0  -2  17   36.47    1.88
   0  -2  17   32.94    1.89
   0   2  17   38.28    1.86
   0   2  17   32.45    2.08
   0   2  17   34.44    1.87
   1  -2  17   37.88    2.06
   1  -2  17   37.99    2.22
   1  -2  17   38.42    2.09
   1   2  17   43.45    2.06
   1   2  17   39.75    2.29
   1   2  17   37.51    2.16
   2  -2  17   -0.21    0.43
   2  -2  17    0.25    0.43
   2  -2  17    0.37    0.53
   2  -2  17    0.36    0.53
   2   2  17   -0.62    0.51
   2   2  17    0.47    0.62
   3  -2  17   10.91    1.08
   3  -2  17   11.07    0.94
   3  -2  17   13.56    1.18
   3  -2  17   10.49    0.96
   3   2  17   15.11    1.26
   3   2  17   13.37    1.18
   4  -2  17   27.89    1.81
   4  -2  17   25.72    1.62
   4  -2  17   25.85    1.75
   4   2  17   27.36    1.86
   4   2  17   30.02    1.90
   5  -2  17    7.67    0.95
   5  -2  17    5.58    0.70
   5   2  17    5.11    0.92
  -6  -3  17    0.45    0.44
  -6  -3  17    0.60    0.51
  -6   3  17   -0.21    0.54
  -5  -3  17   16.09    1.19
  -5  -3  17   13.47    1.27
   5  -3 -17   14.48    1.12
  -5  -3  17   16.56    1.13
  -5   3  17   11.64    1.11
  -4  -3  17   31.06    1.68
  -4  -3  17   31.44    1.63
   4  -3 -17   30.06    1.57
  -4  -3  17   23.83    1.75
  -4   3  17   19.40    1.54
  -4   3  17   19.99    1.57
  -4   3  17   29.08    1.72
  -3  -3  17    2.22    0.53
  -3  -3  17    1.26    0.62
   3  -3 -17    2.74    0.56
  -3  -3  17    2.39    0.56
  -3   3  17    2.11    0.66
  -3   3  17    1.33    0.54
  -3   3  17    0.81    0.47
  -2  -3  17   26.99    1.50
  -2  -3  17   21.63    1.67
  -2  -3  17   25.19    1.50
  -2   3  17   21.39    1.62
  -2   3  17   21.32    1.43
  -2   3  17   19.73    1.39
  -1  -3  17   41.77    2.27
  -1  -3  17   41.13    2.47
  -1  -3  17   47.65    2.32
  -1   3  17   43.41    2.23
  -1   3  17   37.94    2.43
   0  -3  17    0.95    0.62
   0  -3  17    0.44    0.61
   0  -3  17    0.27    0.50
   0   3  17   -1.30    0.59
   1  -3  17    2.00    0.77
   1  -3  17    1.73    0.59
   1   3  17    0.73    0.73
   1   3  17    2.15    0.68
   2  -3  17   15.85    1.28
   2  -3  17   14.94    1.35
   2   3  17   14.28    1.28
   3  -3  17   26.80    1.72
   3  -3  17   27.96    1.90
   3   3  17   28.28    1.93
  -8   0  18   18.23    1.30
  -7   0  18    5.91    0.75
  -6   0  18    6.73    0.77
  -6   0  18    6.25    0.74
  -5   0  18   56.20    2.77
  -5   0  18   52.52    2.79
  -5   0  18   54.33    2.73
  -4   0  18   15.92    1.20
  -4   0  18   16.74    1.25
  -4   0  18   16.44    1.28
  -3   0  18    5.03    0.74
  -3   0  18    4.92    0.69
  -3   0  18    4.53    0.62
  -2   0  18   62.13    3.20
  -2   0  18   70.41    3.36
  -2   0  18   68.60    3.25
  -1   0  18   47.48    2.38
  -1   0  18   48.84    2.51
  -1   0  18   43.13    2.33
   0   0  18    1.25    0.56
   0   0  18    1.35    0.44
   0   0  18    0.89    0.45
   1   0  18   46.81    2.41
   1   0  18   42.82    2.23
   1   0  18   43.15    2.25
   2   0  18   21.15    1.51
   2   0  18   24.34    1.39
   2   0  18   23.42    1.59
   2   0  18   25.48    1.43
   3   0  18    1.49    0.62
   3   0  18    1.66    0.59
   3   0  18    1.96    0.48
   3   0  18    2.14    0.45
   4   0  18    5.98    0.89
   4   0  18    6.46    0.67
   4   0  18    7.85    0.90
   5   0  18   14.86    1.34
   7  -1 -18   19.70    1.21
  -7  -1  18   22.62    1.42
   7  -1 -18   20.69    1.23
  -7   1  18   19.25    1.41
   6  -1 -18   15.99    1.08
  -6  -1  18   19.98    1.27
  -6  -1  18   17.08    1.25
   6  -1 -18   16.44    1.12
  -6   1  18   17.16    1.29
  -5  -1  18    4.33    0.64
  -5  -1  18    4.00    0.60
   5  -1 -18    4.27    0.56
  -5  -1  18    3.56    0.65
  -5   1  18    3.20    0.66
  -5   1  18    3.18    0.62
  -5   1  18    2.64    0.57
  -4  -1  18   35.01    1.95
  -4  -1  18   35.96    1.91
   4  -1 -18   31.78    1.79
  -4  -1  18   36.55    1.93
  -4   1  18   34.32    1.93
  -4   1  18   35.49    1.91
  -4   1  18   34.26    2.00
  -3  -1  18   24.37    1.54
   3  -1 -18   21.28    1.33
  -3  -1  18   25.33    1.48
  -3  -1  18   23.36    1.50
  -3   1  18   24.38    1.48
  -3   1  18   25.45    1.47
  -3   1  18   23.85    1.60
  -2  -1  18    1.72    0.51
  -2  -1  18    0.70    0.44
  -2  -1  18    0.89    0.51
  -2   1  18    0.73    0.43
  -2   1  18    0.71    0.46
  -2   1  18    0.98    0.57
  -1  -1  18   14.50    1.25
  -1  -1  18   16.40    1.18
  -1  -1  18   16.85    1.15
  -1   1  18   18.89    1.16
  -1   1  18   17.14    1.31
  -1   1  18   15.77    1.18
   0  -1  18   28.42    1.74
   0  -1  18   27.75    1.63
   0  -1  18   28.24    1.66
   0   1  18   29.52    1.63
   0   1  18   31.13    1.67
   0   1  18   29.47    1.84
   1  -1  18   10.76    1.01
   1  -1  18    7.96    0.78
   1  -1  18    9.66    0.84
   1   1  18    9.20    0.80
   1   1  18    9.66    1.03
   1   1  18   11.34    0.92
   2  -1  18    1.00    0.45
   2  -1  18    1.71    0.59
   2  -1  18    2.00    0.49
   2  -1  18    1.01    0.54
   2   1  18    2.04    0.62
   2   1  18    1.62    0.62
   2   1  18    1.78    0.43
   2   1  18    1.71    0.44
   3  -1  18   21.40    1.36
   3  -1  18   22.50    1.51
   3  -1  18   21.54    1.34
   3  -1  18   22.45    1.54
   3   1  18   22.11    1.56
   3   1  18   23.35    1.56
   4  -1  18    5.88    0.82
   4  -1  18    5.90    0.66
   4  -1  18    6.45    0.66
   4   1  18    6.09    0.87
   6  -2 -18    4.48    0.64
  -6  -2  18    6.14    1.10
  -6  -2  18    3.82    0.63
   6  -2 -18    4.69    0.60
  -6   2  18    3.66    0.68
  -5  -2  18    3.79    0.62
  -5  -2  18    2.51    0.56
   5  -2 -18    2.70    0.54
  -5  -2  18    1.95    0.59
  -5   2  18    2.90    0.63
  -4  -2  18    0.66    0.53
  -4  -2  18    1.73    0.51
   4  -2 -18    1.65    0.49
  -4  -2  18    2.62    0.58
  -4   2  18    1.27    0.59
  -4   2  18    1.36    0.53
  -4   2  18    2.21    0.58
  -3  -2  18    3.40    0.60
  -3  -2  18    3.29    0.58
  -3  -2  18    4.36    0.73
   3  -2 -18    4.30    0.60
  -3   2  18    2.85    0.59
  -3   2  18    3.70    0.62
  -3   2  18    1.86    0.67
  -2  -2  18    5.17    0.81
  -2  -2  18    6.12    0.72
  -2  -2  18    5.84    0.69
  -2   2  18    5.24    0.84
  -2   2  18    5.61    0.72
  -2   2  18    6.94    0.74
  -1  -2  18    7.49    0.92
  -1  -2  18    8.90    0.82
  -1  -2  18    9.03    0.84
  -1   2  18    9.41    0.82
  -1   2  18    8.12    0.80
  -1   2  18    6.94    0.97
   0  -2  18    0.50    0.57
   0  -2  18    1.60    0.49
   0  -2  18    1.14    0.49
   0   2  18    1.34    0.48
   0   2  18   -0.05    0.61
   0   2  18    1.62    0.47
   1  -2  18   14.22    1.27
   1  -2  18   13.43    1.14
   1   2  18   16.82    1.40
   1   2  18   13.13    1.36
   1   2  18   15.58    1.41
   2  -2  18    4.34    0.95
   2  -2  18    4.01    0.63
   2   2  18    4.20    0.80
   3  -2  18    0.78    0.59
   3  -2  18    0.32    0.46
   3   2  18   -0.31    0.59
  -3  -3  18    1.23    0.54
   3  -3 -18    1.23    0.51
  -3   3  18    0.45    0.75
  -3   3  18    1.37    0.53
  -2  -3  18    0.53    0.51
  -2   3  18    0.99    0.53
  -2   3  18    1.00    0.50
  -1  -3  18    1.99    0.56
   0  -3  18    4.20    0.69
  -6   0  19    0.52    0.51
  -5   0  19    0.46    0.49
  -5   0  19    0.43    0.56
  -4   0  19    0.66    0.52
  -4   0  19   -0.13    0.51
  -3   0  19    0.72    0.51
  -3   0  19   -0.04    0.51
  -3   0  19    0.11    0.46
  -2   0  19   -0.11    0.54
  -2   0  19    0.88    0.49
  -2   0  19    0.37    0.44
  -1   0  19    0.48    0.56
  -1   0  19    1.32    0.46
  -1   0  19    0.77    0.46
   0   0  19   -0.05    0.44
   0   0  19    0.05    0.41
   0   0  19   -0.82    0.48
   1   0  19    0.45    0.44
   1   0  19    0.36    0.56
   1   0  19    0.28    0.39
   2   0  19    0.54    0.40
   2   0  19   -0.51    0.39
   3   0  19    0.03    0.41
   3   0  19    0.03    0.38
   3   0  19    0.44    0.54
  -6  -1  19    3.68    0.65
  -6   1  19    4.46    0.72
  -5  -1  19   20.57    1.44
  -5  -1  19   21.33    1.41
  -5   1  19   18.74    1.89
  -5   1  19   21.24    1.45
  -4  -1  19    0.78    0.51
  -4  -1  19    0.14    0.52
  -4   1  19    1.00    0.51
  -4   1  19    0.64    0.55
  -3  -1  19    4.76    0.75
   3  -1 -19    4.44    0.59
  -3  -1  19    7.49    0.78
  -3   1  19    4.95    0.78
  -3   1  19    4.82    0.68
  -3   1  19    5.90    0.85
  -2  -1  19    8.47    1.14
  -2  -1  19    7.25    0.87
  -2  -1  19    6.90    0.78
  -2   1  19    7.34    0.90
  -2   1  19    8.04    0.79
  -2   1  19    7.34    0.76
  -1  -1  19   10.22    1.21
  -1  -1  19    8.28    0.81
  -1  -1  19    7.82    0.90
  -1   1  19    7.11    0.74
  -1   1  19    8.82    0.98
  -1   1  19    7.45    0.77
   0  -1  19    0.82    0.55
   0  -1  19    0.16    0.46
   0   1  19    1.06    0.45
   0   1  19   -0.06    0.54
   0   1  19    0.93    0.42
   1  -1  19    5.45    0.67
   1  -1  19    4.72    1.12
   1   1  19    4.40    1.15
   1   1  19    4.43    0.60
   1   1  19    4.72    0.58
   2  -1  19    7.27    0.75
   2   1  19    8.11    1.11
   2   1  19    7.38    0.71
  -4  -2  19   19.10    1.38
   4  -2 -19   16.90    1.19
  -4  -2  19   18.70    1.31
  -4   2  19   16.48    1.31
  -4   2  19   14.11    1.34
   3  -2 -19   22.02    1.40
  -3  -2  19   21.84    1.59
  -3  -2  19   24.13    1.50
  -3   2  19   22.95    1.51
  -3   2  19   21.51    1.59
  -2  -2  19    0.94    0.54
  -2   2  19    1.11    0.50
  -2   2  19    0.00    0.62
  -1  -2  19   20.90    1.52
  -1   2  19   25.44    1.51
  -1   2  19   24.89    1.48
   0  -2  19    7.40    0.84
   0   2  19   10.65    0.88
  -3   0  20   50.01    2.84
  -3   0  20   51.93    2.65
  -2   0  20   32.50    1.89
  -1   0  20    0.80    0.51
   0   0  20   20.78    1.40
   0   0   0    0.00    0.00
;
_shelx_hkl_checksum              72754
_shelx_res_file
;
    AX1174_multiscan_m.res created by SHELXL-2014/7
TITL AX1174_multiscan_m in P2(1)/c
CELL 0.71073 10.2436 4.7669 14.1543 90.000 96.6007  90.000
ZERR 4.00 0.0008 0.0004 0.0011 0.000 0.0016 0.000
LATT 1
SYMM -x, y+1/2, -z+1/2
SFAC C  H  N  Se
UNIT 28 24 8 4
L.S. 14
OMIT -4 56
ACTA
BOND $H
FMAP 2
PLAN -10
CONF
HTAB
SIZE 0.084 0.129 0.526
TEMP -123.160
WGHT    0.042300    0.380700
FVAR       0.21238
C1    1    0.654869    0.412811    0.915555    11.00000    0.01854    0.01604 =
         0.01817   -0.00144    0.00362    0.00255
C2    1    0.628883    0.531230    0.822582    11.00000    0.01981    0.02198 =
         0.01807   -0.00123   -0.00001   -0.00010
AFIX  43
H2    2    0.553257    0.476423    0.781533    11.00000   -1.20000
AFIX   0
C3    1    0.714007    0.723634    0.793675    11.00000    0.02384    0.01981 =
         0.01768   -0.00009    0.00207    0.00254
AFIX  43
H3    2    0.695666    0.803266    0.732052    11.00000   -1.20000
AFIX   0
C4    1    0.830907    0.811615    0.852736    11.00000    0.01869    0.01526 =
         0.02094   -0.00275    0.00518    0.00205
C5    1    0.858955    0.701595    0.941599    11.00000    0.01953    0.01872 =
         0.02036   -0.00257    0.00098   -0.00080
AFIX  43
H5    2    0.936286    0.757610    0.980561    11.00000   -1.20000
AFIX   0
C6    1    0.771707    0.501517    0.976122    11.00000    0.01998    0.01679 =
         0.01687   -0.00153    0.00228    0.00204
C7    1    0.918928    1.024661    0.813704    11.00000    0.02555    0.01712 =
         0.02507   -0.00067    0.00677   -0.00122
AFIX 137
H7A   2    0.881983    1.212696    0.819465    11.00000   -1.50000
H7B   2    0.925618    0.983762    0.746578    11.00000   -1.50000
H7C   2    1.006511    1.016280    0.849648    11.00000   -1.50000
AFIX   0
N1    3    0.578624    0.225446    0.952426    11.00000    0.01987    0.02161 =
         0.02063   -0.00058    0.00427    0.00062
N2    3    0.790095    0.386114    1.062277    11.00000    0.02487    0.02358 =
         0.01970    0.00176    0.00092   -0.00092
SE1   4    0.655064    0.152126    1.070102    11.00000    0.02535    0.02166 =
         0.01885    0.00329    0.00588    0.00117
HKLF 4 1 1 0 0 0 1 0 0 0 1
REM  AX1174_multiscan_m in P2(1)/c
REM R1 =  0.0235 for    1551 Fo > 4sig(Fo)  and  0.0258 for all    1666 data
REM     92 parameters refined using      0 restraints
END
WGHT      0.0423      0.3808
REM No hydrogen bonds found for HTAB generation
REM Highest difference peak  0.448,  deepest hole -0.544,  1-sigma level  0.089
Q1    1   0.6532  0.5531  1.0681  11.00000  0.05    0.45
Q2    1   0.6461 -0.0500  1.0751  11.00000  0.05    0.44
Q3    1   0.7128  0.4530  0.9458  11.00000  0.05    0.40
Q4    1   0.6383  0.1344  1.0243  11.00000  0.05    0.40
Q5    1   0.6452  0.4782  0.8610  11.00000  0.05    0.38
Q6    1   0.7026  0.7938  0.6777  11.00000  0.05    0.37
Q7    1   0.7611  0.7739  0.8276  11.00000  0.05    0.35
Q8    1   0.6906  0.5918  0.7978  11.00000  0.05    0.34
Q9    1   0.6469  0.3418  1.0752  11.00000  0.05    0.33
Q10   1   1.0382  1.1568  0.7864  11.00000  0.05    0.32
;
_shelx_res_checksum              69211
loop_
_space_group_symop_operation_xyz
'x, y, z'
'-x, y+1/2, -z+1/2'
'-x, -y, -z'
'x, -y-1/2, z-1/2'
loop_
_atom_site_type_symbol
_atom_site_label
_atom_site_fract_x
_atom_site_fract_y
_atom_site_fract_z
_atom_site_U_iso_or_equiv
_atom_site_adp_type
_atom_site_calc_flag
_atom_site_occupancy
C C1 0.65487(18) 0.4128(4) 0.91555(13) 0.0175(3) Uani d 1
C C2 0.62888(18) 0.5312(4) 0.82258(13) 0.0201(4) Uani d 1
H H2 0.5533 0.4764 0.7815 0.024 Uiso calc 1
C C3 0.71401(19) 0.7236(4) 0.79367(13) 0.0205(4) Uani d 1
H H3 0.6957 0.8033 0.7321 0.025 Uiso calc 1
C C4 0.83091(18) 0.8116(4) 0.85274(14) 0.0181(4) Uani d 1
C C5 0.85896(18) 0.7016(4) 0.94160(14) 0.0196(4) Uani d 1
H H5 0.9363 0.7576 0.9806 0.024 Uiso calc 1
C C6 0.77171(18) 0.5015(4) 0.97612(13) 0.0179(4) Uani d 1
C C7 0.91893(19) 1.0247(4) 0.81370(14) 0.0223(4) Uani d 1
H H7A 0.8820 1.2127 0.8195 0.033 Uiso calc 1
H H7B 0.9256 0.9838 0.7466 0.033 Uiso calc 1
H H7C 1.0065 1.0163 0.8496 0.033 Uiso calc 1
N N1 0.57862(16) 0.2254(4) 0.95243(12) 0.0206(3) Uani d 1
N N2 0.79010(18) 0.3861(4) 1.06228(12) 0.0228(3) Uani d 1
Se Se1 0.65506(2) 0.15213(4) 1.07010(2) 0.02169(9) Uani d 1
loop_
_atom_site_aniso_label
_atom_site_aniso_U_11
_atom_site_aniso_U_22
_atom_site_aniso_U_33
_atom_site_aniso_U_12
_atom_site_aniso_U_13
_atom_site_aniso_U_23
C1 0.0185(8) 0.0160(8) 0.0182(8) 0.0025(7) 0.0036(7) -0.0014(7)
C2 0.0198(9) 0.0220(9) 0.0181(8) -0.0001(7) 0.0000(7) -0.0012(7)
C3 0.0238(9) 0.0198(9) 0.0177(8) 0.0025(7) 0.0021(7) -0.0001(7)
C4 0.0187(9) 0.0153(8) 0.0209(9) 0.0020(6) 0.0052(7) -0.0028(7)
C5 0.0195(9) 0.0187(9) 0.0204(9) -0.0008(7) 0.0010(7) -0.0026(7)
C6 0.0200(8) 0.0168(9) 0.0169(8) 0.0020(6) 0.0023(6) -0.0015(6)
C7 0.0256(9) 0.0171(9) 0.0251(9) -0.0012(7) 0.0068(7) -0.0007(7)
N1 0.0199(8) 0.0216(8) 0.0206(8) 0.0006(6) 0.0043(6) -0.0006(6)
N2 0.0249(9) 0.0236(8) 0.0197(8) -0.0009(6) 0.0009(6) 0.0018(6)
Se1 0.02535(14) 0.02166(14) 0.01885(13) 0.00117(6) 0.00588(8) 0.00329(6)
loop_
_atom_type_symbol
_atom_type_description
_atom_type_scat_dispersion_real
_atom_type_scat_dispersion_imag
_atom_type_scat_source
C C 0.0033 0.0016 'International Tables Vol C Tables 4.2.6.8 and 6.1.1.4'
H H 0.0000 0.0000 'International Tables Vol C Tables 4.2.6.8 and 6.1.1.4'
N N 0.0061 0.0033 'International Tables Vol C Tables 4.2.6.8 and 6.1.1.4'
Se Se -0.0929 2.2259 'International Tables Vol C Tables 4.2.6.8 and 6.1.1.4'
loop_
_geom_angle_atom_site_label_1
_geom_angle_atom_site_label_2
_geom_angle_atom_site_label_3
_geom_angle
N1 C1 C2 124.78(18)
N1 C1 C6 116.39(17)
C2 C1 C6 118.83(17)
C3 C2 C1 119.04(18)
C3 C2 H2 120.5
C1 C2 H2 120.5
C2 C3 C4 122.69(18)
C2 C3 H3 118.7
C4 C3 H3 118.7
C5 C4 C3 119.75(18)
C5 C4 C7 121.81(18)
C3 C4 C7 118.44(17)
C4 C5 C6 119.87(18)
C4 C5 H5 120.1
C6 C5 H5 120.1
N2 C6 C5 124.06(17)
N2 C6 C1 116.14(17)
C5 C6 C1 119.80(17)
C4 C7 H7A 109.5
C4 C7 H7B 109.5
H7A C7 H7B 109.5
C4 C7 H7C 109.5
H7A C7 H7C 109.5
H7B C7 H7C 109.5
C1 N1 Se1 106.37(13)
C6 N2 Se1 106.57(13)
N2 Se1 N1 94.54(8)
loop_
_geom_bond_atom_site_label_1
_geom_bond_atom_site_label_2
_geom_bond_distance
C1 N1 1.332(3)
C1 C2 1.429(3)
C1 C6 1.453(3)
C2 C3 1.361(3)
C2 H2 0.9500
C3 C4 1.442(3)
C3 H3 0.9500
C4 C5 1.363(3)
C4 C7 1.505(3)
C5 C6 1.431(3)
C5 H5 0.9500
C6 N2 1.331(2)
C7 H7A 0.9800
C7 H7B 0.9800
C7 H7C 0.9800
N1 Se1 1.7916(17)
N2 Se1 1.7902(18)
loop_
_geom_torsion_atom_site_label_1
_geom_torsion_atom_site_label_2
_geom_torsion_atom_site_label_3
_geom_torsion_atom_site_label_4
_geom_torsion
N1 C1 C2 C3 179.25(18)
C6 C1 C2 C3 -0.1(3)
C1 C2 C3 C4 0.7(3)
C2 C3 C4 C5 -0.4(3)
C2 C3 C4 C7 179.66(18)
C3 C4 C5 C6 -0.6(3)
C7 C4 C5 C6 179.39(17)
C4 C5 C6 N2 -179.01(18)
C4 C5 C6 C1 1.1(3)
N1 C1 C6 N2 -0.1(3)
C2 C1 C6 N2 179.36(17)
N1 C1 C6 C5 179.78(17)
C2 C1 C6 C5 -0.8(3)
C2 C1 N1 Se1 -179.30(15)
C6 C1 N1 Se1 0.1(2)
C5 C6 N2 Se1 -179.85(15)
C1 C6 N2 Se1 0.0(2)
C6 N2 Se1 N1 0.04(14)
C1 N1 Se1 N2 -0.09(14)

_cod_database_fobs_code 1545508
