#------------------------------------------------------------------------------
#$Date: 2017-01-14 04:45:05 +0200 (Sat, 14 Jan 2017) $
#$Revision: 190490 $
#$URL: file:///home/coder/svn-repositories/cod/cif/1/54/50/1545034.cif $
#------------------------------------------------------------------------------
#
# This file is available in the Crystallography Open Database (COD),
# http://www.crystallography.net/. The original data for this entry
# were provided by IUCr Journals, http://journals.iucr.org/.
#
# The file may be used within the scientific community so long as
# proper attribution is given to the journal article from which the
# data were obtained.
#
data_1545034
loop_
_publ_author_name
'Essaghouani, Abdelhanine'
'Boulhaoua, Mohammed'
'El Ouasif, Latifa'
'Sebbar, Nada Kheira'
'Essassi, El Mokhtar'
'Mague, Joel T.'
_publ_section_title
;
 3-Phenylisoxazolin-5-one: a redetermination
;
_journal_coeditor_code           HB4110
_journal_issue                   1
_journal_name_full               IUCrData
_journal_page_first              x170032
_journal_paper_doi               10.1107/S2414314617000323
_journal_volume                  2
_journal_year                    2017
_chemical_formula_iupac          'C9 H7 N O2'
_chemical_formula_moiety         'C9 H7 N O2'
_chemical_formula_sum            'C9 H7 N O2'
_chemical_formula_weight         161.16
_chemical_name_systematic
;
3-Phenylisoxazolin-5-one
;
_space_group_crystal_system      monoclinic
_space_group_IT_number           14
_space_group_name_Hall           '-P 2yn'
_space_group_name_H-M_alt        'P 1 21/n 1'
_symmetry_space_group_name_Hall  '-P 2yn'
_symmetry_space_group_name_H-M   'P 1 21/n 1'
_atom_sites_solution_hydrogens   difmap
_atom_sites_solution_primary     direct
_atom_sites_solution_secondary   difmap
_audit_creation_method           SHELXL-2014/7
_cell_angle_alpha                90
_cell_angle_beta                 93.106(2)
_cell_angle_gamma                90
_cell_formula_units_Z            4
_cell_length_a                   9.9869(6)
_cell_length_b                   5.3008(3)
_cell_length_c                   13.9874(9)
_cell_measurement_reflns_used    4379
_cell_measurement_temperature    150(2)
_cell_measurement_theta_max      72.06
_cell_measurement_theta_min      5.59
_cell_volume                     739.39(8)
_computing_cell_refinement
;
<i>SAINT</i> (Bruker, 2016)
;
_computing_data_collection
;
<i>APEX3</i> (Bruker, 2016)
;
_computing_data_reduction
;
<i>SAINT</i>  (Bruker, 2016)
;
_computing_molecular_graphics
;
<i>DIAMOND</i> (Brandenburg & Putz, 2012)
;
_computing_publication_material
;
<i>SHELXTL</i> (Sheldrick, 2008)
;
_computing_structure_refinement
;
<i>SHELXL2014</i> (Sheldrick, 2015<i>b</i>)
;
_computing_structure_solution
;
<i>SHELXT</i> (Sheldrick, 2015<i>a</i>)
;
_diffrn_ambient_temperature      150(2)
_diffrn_detector_area_resol_mean 10.4167
_diffrn_measured_fraction_theta_full 0.990
_diffrn_measured_fraction_theta_max 0.983
_diffrn_measurement_device_type  'Bruker D8 VENTURE PHOTON 100 CMOS'
_diffrn_measurement_method       '\w scans'
_diffrn_radiation_monochromator  mirror
_diffrn_radiation_type           CuK\a
_diffrn_radiation_wavelength     1.54178
_diffrn_reflns_av_R_equivalents  0.0287
_diffrn_reflns_limit_h_max       12
_diffrn_reflns_limit_h_min       -12
_diffrn_reflns_limit_k_max       5
_diffrn_reflns_limit_k_min       -6
_diffrn_reflns_limit_l_max       17
_diffrn_reflns_limit_l_min       -17
_diffrn_reflns_number            5465
_diffrn_reflns_theta_full        68.000
_diffrn_reflns_theta_max         72.056
_diffrn_reflns_theta_min         5.309
_exptl_absorpt_coefficient_mu    0.863
_exptl_absorpt_correction_T_max  0.95
_exptl_absorpt_correction_T_min  0.83
_exptl_absorpt_correction_type   multi-scan
_exptl_absorpt_process_details
;
(<i>SADABS</i>; Bruker, 2016)
;
_exptl_crystal_colour            orange
_exptl_crystal_density_diffrn    1.448
_exptl_crystal_density_method    'not measured'
_exptl_crystal_description       plate
_exptl_crystal_F_000             336
_exptl_crystal_size_max          0.189
_exptl_crystal_size_mid          0.124
_exptl_crystal_size_min          0.056
_refine_diff_density_max         0.255
_refine_diff_density_min         -0.139
_refine_ls_extinction_coef       0.0097(11)
_refine_ls_extinction_expression Fc^*^=kFc[1+0.001xFc^2^\l^3^/sin(2\q)]^-1/4^
_refine_ls_extinction_method
;
<i>SHELXL2014</i> (Sheldrick, 2015<i>b</i>)
;
_refine_ls_goodness_of_fit_ref   1.099
_refine_ls_hydrogen_treatment    refall
_refine_ls_matrix_type           full
_refine_ls_number_parameters     138
_refine_ls_number_reflns         1433
_refine_ls_number_restraints     0
_refine_ls_restrained_S_all      1.099
_refine_ls_R_factor_all          0.0382
_refine_ls_R_factor_gt           0.0338
_refine_ls_shift/su_max          0.000
_refine_ls_shift/su_mean         0.000
_refine_ls_structure_factor_coef Fsqd
_refine_ls_weighting_details
'w=1/[\s^2^(Fo^2^)+(0.0441P)^2^+0.1913P] where P=(Fo^2^+2Fc^2^)/3'
_refine_ls_weighting_scheme      calc
_refine_ls_wR_factor_gt          0.0849
_refine_ls_wR_factor_ref         0.0886
_reflns_number_gt                1282
_reflns_number_total             1433
_reflns_threshold_expression     'I > 2\s(I)'
_cod_data_source_file            hb4110sup1.cif
_cod_data_source_block           I
_cod_database_code               1545034
_shelx_space_group_comment
;
The symmetry employed for this shelxl refinement is uniquely defined
by the following loop, which should always be used as a source of
symmetry information in preference to the above space-group names.
They are only intended as comments.
;
_shelx_estimated_absorpt_t_min   0.854
_shelx_estimated_absorpt_t_max   0.953
_shelx_hkl_file
;
  -1   0   0    0.00    0.01
   1   0   0    0.00    0.01
   2   0   0  265.88    7.71
  -2   0   0  238.25    7.69
  -3   0   0    0.00    0.02
   3   0   0   -0.03    0.02
   4   0   0   38.92    1.18
  -4   0   0   37.17    1.18
  -5   0   0   -0.06    0.05
   5   0   0   -0.04    0.05
  -6   0   0    0.65    0.14
  -6   0   0    0.50    0.12
   7   0   0    0.19    0.14
  -7   0   0   -0.08    0.10
  -8   0   0    0.06    0.09
  -8   0   0   -0.04    0.14
   8   0   0    0.16    0.13
   9   0   0   -0.01    0.11
  -9   0   0    0.06    0.13
  -9   0   0    0.04    0.08
 -10   0   0    4.06    0.23
  10   0   0    4.14    0.28
  11   0   0    0.12    0.10
 -11   0   0    0.16    0.07
   0   1   0    0.07    0.02
   1  -1   0   43.33    1.36
   1   1   0   45.67    1.36
  -1   1   0   44.21    1.36
   2  -1   0   77.51    2.28
   2   1   0   73.02    2.28
  -2   1   0   73.40    2.28
  -3  -1   0    1.58    0.09
  -3   1   0    1.71    0.08
   3   1   0    1.77    0.09
  -4  -1   0   16.19    0.59
   4  -1   0   16.86    0.54
   4   1   0   16.42    0.54
  -4   1   0   16.74    0.54
  -5  -1   0   33.92    1.15
  -5  -1   0   36.08    1.10
   5  -1   0   32.76    1.10
  -5   1   0   35.46    1.09
  -6  -1   0    5.50    0.29
  -6  -1   0    5.45    0.28
  -6  -1   0    5.59    0.29
   6  -1   0    5.52    0.32
  -6   1   0    5.30    0.27
   7  -1   0   20.98    0.78
   7  -1   0   21.75    0.80
   7  -1   0   22.20    0.80
  -7  -1   0   23.02    0.77
  -7  -1   0   22.28    0.78
   7   1   0   21.83    0.82
   8  -1   0    2.99    0.25
  -8  -1   0    2.67    0.25
  -8  -1   0    2.48    0.20
  -8   1   0    2.50    0.21
   8   1   0    1.96    0.30
  -9  -1   0   34.67    1.12
   9   1   0   32.44    1.14
  -9   1   0   32.87    1.12
 -10  -1   0    1.09    0.14
  10  -1   0    1.08    0.18
 -10   1   0    0.96    0.14
 -11  -1   0    4.27    0.21
  11  -1   0    4.52    0.24
 -11   1   0    4.79    0.22
  12  -1   0    1.07    0.14
 -12   1   0    0.82    0.09
   0   2   0   42.93    1.33
   1  -2   0   16.51    0.54
   1   2   0   17.45    0.55
  -1   2   0   16.03    0.54
   1   2   0   17.22    0.55
  -2  -2   0   -0.04    0.10
   2  -2   0    0.01    0.03
   2   2   0   -0.09    0.04
   2   2   0    0.00    0.05
  -2   2   0    0.02    0.04
  -3  -2   0  121.33    3.73
   3  -2   0  119.18    3.68
   3   2   0  120.65    3.69
  -3   2   0  119.15    3.68
  -4  -2   0   31.92    1.07
   4  -2   0   31.45    1.02
  -4   2   0   31.70    1.01
  -5  -2   0    9.54    0.39
   5  -2   0    9.32    0.43
   5  -2   0    8.78    0.40
  -5  -2   0   10.18    0.42
   5  -2   0    9.87    0.40
   5  -2   0    9.73    0.42
  -5   2   0    9.37    0.37
   6  -2   0    2.36    0.22
  -6  -2   0    2.58    0.19
  -6  -2   0    2.14    0.25
  -6  -2   0    2.29    0.21
   6  -2   0    2.49    0.23
   6  -2   0    2.69    0.24
   7  -2   0    7.37    0.39
   7  -2   0    7.13    0.38
  -7  -2   0    8.58    0.38
  -7  -2   0    8.69    0.36
   7  -2   0    9.13    0.40
  -8  -2   0   23.55    0.83
   8  -2   0   24.42    0.86
   8  -2   0   24.75    0.87
  -8  -2   0   24.00    0.84
   8  -2   0   23.63    0.84
   9  -2   0    0.98    0.22
  -9  -2   0    1.47    0.16
   9  -2   0    1.42    0.19
  -9   2   0    1.40    0.16
 -10  -2   0    5.48    0.25
  10  -2   0    5.40    0.28
 -10   2   0    5.49    0.26
 -11  -2   0    2.95    0.16
  11  -2   0    3.15    0.18
 -11   2   0    3.15    0.16
   0   3   0    0.12    0.08
  -1  -3   0    0.16    0.13
   1   3   0   -0.03    0.08
  -1   3   0    0.02    0.09
   2  -3   0   37.90    1.33
  -2  -3   0   44.48    1.36
  -2  -3   0   37.85    1.32
  -2   3   0   43.78    1.32
   3  -3   0    0.92    0.19
   3  -3   0    1.19    0.19
  -3  -3   0    0.70    0.17
   3  -3   0    1.11    0.20
  -3  -3   0    1.08    0.18
  -3  -3   0    1.14    0.16
  -3   3   0    1.35    0.20
  -4  -3   0    3.62    0.25
   4  -3   0    3.83    0.24
  -4  -3   0    3.58    0.25
   4  -3   0    3.27    0.31
   4  -3   0    3.62    0.25
   4  -3   0    3.83    0.24
  -4  -3   0    3.70    0.23
   5  -3   0    7.14    0.36
   5  -3   0    6.96    0.37
  -5  -3   0    6.75    0.32
   5  -3   0    7.38    0.34
  -5  -3   0    7.42    0.34
   5  -3   0    7.37    0.35
  -5  -3   0    7.50    0.38
  -6  -3   0   33.34    1.09
   6  -3   0   33.91    1.13
   6  -3   0   31.84    1.11
  -6  -3   0   31.98    1.09
   6  -3   0   33.18    1.10
   6  -3   0   32.47    1.11
   7  -3   0    0.17    0.11
   7  -3   0    0.17    0.11
  -7  -3   0    0.32    0.10
   7  -3   0    0.24    0.11
  -7  -3   0    0.16    0.12
   8  -3   0    0.14    0.10
   8  -3   0    0.08    0.11
  -8  -3   0   -0.17    0.11
   8  -3   0    0.00    0.10
  -8  -3   0    0.00    0.08
   9  -3   0    2.25    0.19
  -9  -3   0    1.80    0.15
   9  -3   0    2.01    0.18
   9   3   0    2.26    0.24
  -9   3   0    1.94    0.16
  10  -3   0    0.68    0.12
 -10  -3   0    0.47    0.09
  10  -3   0    0.23    0.10
 -10   3   0    0.56    0.10
  10   3   0    0.15    0.20
   0  -4   0   48.97    1.58
   0  -4   0   49.36    1.59
   1  -4   0    1.01    0.17
   1  -4   0    1.10    0.18
  -1  -4   0    1.45    0.17
  -1  -4   0    1.07    0.18
   1  -4   0    1.59    0.26
  -2  -4   0    6.80    0.32
   2  -4   0    6.81    0.33
   2  -4   0    7.00    0.33
   2  -4   0    7.07    0.35
  -2  -4   0    7.84    0.33
   3  -4   0    9.53    0.41
  -3  -4   0    9.79    0.41
   3  -4   0    9.90    0.43
   3  -4   0    9.84    0.42
  -3  -4   0   10.06    0.40
   4  -4   0    1.97    0.20
   4  -4   0    1.86    0.21
  -4  -4   0    1.98    0.20
   4  -4   0    1.99    0.19
  -4  -4   0    1.90    0.18
   5  -4   0    0.34    0.11
  -5  -4   0    0.44    0.14
   5  -4   0    0.45    0.12
  -5  -4   0    0.68    0.18
   5  -4   0    0.21    0.11
  -6  -4   0    2.64    0.19
   6  -4   0    2.86    0.22
  -6  -4   0    2.94    0.22
   6  -4   0    2.65    0.20
   6  -4   0    2.81    0.22
   6  -4   0    2.57    0.27
   7  -4   0    0.69    0.15
   7  -4   0    0.76    0.14
   7  -4   0    0.74    0.19
  -7  -4   0    0.65    0.12
  -7  -4   0    0.82    0.18
   8  -4   0    0.23    0.09
  -8  -4   0    0.17    0.06
   8  -4   0    0.07    0.07
   8  -4   0    0.22    0.08
   8   4   0    0.35    0.15
   9  -4   0    0.30    0.07
  -9  -4   0    0.36    0.08
   9  -4   0    0.25    0.09
   9   4   0    0.20    0.17
   0  -5   0    0.05    0.09
   0  -5   0    0.11    0.08
  -1  -5   0   10.06    0.41
   1  -5   0    9.99    0.42
   1  -5   0   10.11    0.42
  -1  -5   0   10.21    0.42
   2  -5   0    0.76    0.24
  -2  -5   0    0.90    0.15
   2  -5   0    0.91    0.17
  -2  -5   0    1.41    0.17
   2  -5   0    0.99    0.15
  -3  -5   0    9.13    0.38
   3  -5   0    8.78    0.37
   3  -5   0    8.78    0.39
  -3  -5   0    8.95    0.38
   3  -5   0    9.26    0.40
   3   5   0    8.50    0.46
  -4  -5   0   15.04    0.54
   4  -5   0   15.07    0.54
   4  -5   0   14.72    0.55
   4  -5   0   15.37    0.55
  -4  -5   0   14.04    0.53
   4   5   0   13.52    0.60
  -5  -5   0    7.27    0.31
   5  -5   0    7.11    0.32
   5  -5   0    7.12    0.31
  -5  -5   0    7.03    0.30
   5  -5   0    7.30    0.30
   5   5   0    6.83    0.38
  -6  -5   0   -0.06    0.10
   6  -5   0    0.09    0.07
   6  -5   0    0.05    0.07
  -6  -5   0    0.00    0.06
   6   5   0    0.16    0.15
   7  -5   0    0.14    0.07
  -7  -5   0    0.36    0.08
   7  -5   0    0.02    0.06
   7   5   0   -0.09    0.15
   0  -6   0    0.16    0.07
   0  -6   0    0.10    0.06
  -1  -6   0    4.63    0.22
  -1  -6   0    4.79    0.21
   1  -6   0    4.67    0.21
   1  -6   0    4.83    0.22
  -2  -6   0    0.93    0.10
   2  -6   0    0.73    0.11
   2  -6   0    0.81    0.10
  -2  -6   0    0.76    0.12
   3  -6   0   10.47    0.38
  -3  -6   0   10.02    0.37
   3  -6   0   10.20    0.37
  -3  -6   0   10.32    0.37
   4  -6   0    3.52    0.16
  -4  -6   0    3.50    0.16
  -4  -6   0    3.35    0.20
   4  -6   0    3.77    0.17
 -12   0   1   -0.02    0.05
 -11   0   1   10.91    0.41
  11   0  -1   10.78    0.44
 -10   0   1    0.06    0.08
  10   0  -1    0.00    0.12
 -10   0   1   -0.22    0.10
   9   0  -1   29.16    1.01
  -9   0   1   28.62    0.98
  -9   0   1   28.95    0.99
   8   0  -1    0.10    0.12
  -8   0   1   -0.09    0.09
  -7   0   1   37.77    1.24
   7   0  -1   38.26    1.27
  -6   0   1   -0.07    0.09
  -6   0   1    0.04    0.13
   6   0  -1    0.00    0.14
  -5   0   1  118.47    3.65
   5   0  -1  120.36    3.65
  -4   0   1    0.01    0.03
   4   0  -1    0.03    0.03
   3   0  -1    0.26    0.03
  -3   0   1    0.23    0.03
  -2   0   1    0.01    0.01
   2   0  -1    0.00    0.01
  -1   0   1  155.61    4.76
   1   0  -1  157.33    4.75
   0   0   1    0.00    0.00
   0   0  -1    0.00    0.00
   1   0   1   15.19    0.47
  -2   0  -1   -0.01    0.01
   2   0   1    0.02    0.02
  -3   0  -1    2.18    0.09
   3   0   1    1.55    0.08
  -4   0  -1   -0.01    0.03
   4   0   1    0.04    0.04
   5   0   1   27.58    0.89
  -6   0  -1    0.14    0.09
  -6   0  -1   -0.16    0.10
  -6   0  -1   -0.24    0.19
   7   0   1   22.38    0.81
  -7   0  -1   23.02    0.79
   8   0   1   -0.07    0.12
  -8   0  -1   -0.08    0.08
   9   0   1   47.32    1.54
  -9   0  -1   45.66    1.51
  10   0   1   -0.03    0.11
 -10   0  -1    0.09    0.08
  11   0   1    0.11    0.10
 -11   0  -1    0.11    0.07
 -12   0  -1    0.01    0.05
 -12  -1   1    0.28    0.08
  12  -1  -1    0.44    0.13
 -12   1   1    0.28    0.08
  11  -1  -1    1.57    0.17
 -11  -1   1    1.62    0.13
 -11   1   1    1.69    0.29
 -11   1   1    1.94    0.14
 -10  -1   1    1.05    0.19
 -10  -1   1    0.72    0.14
  10  -1  -1    1.07    0.18
 -10   1   1    0.87    0.18
 -10   1   1    1.21    0.14
   9  -1  -1    8.47    0.40
  -9  -1   1    8.03    0.37
  -9  -1   1    8.14    0.36
  -9   1   1    8.06    0.36
   8  -1  -1    2.93    0.24
  -8  -1   1    3.11    0.24
  -8  -1   1    3.06    0.22
  -8   1   1    3.01    0.22
  -7  -1   1   60.54    1.93
   7  -1  -1   59.73    1.94
  -7  -1   1   61.45    1.94
   7  -1  -1   60.52    1.95
   7  -1  -1   62.34    1.97
  -6  -1   1    3.97    0.24
   6  -1  -1    3.92    0.27
   6  -1  -1    3.25    0.28
  -6   1   1    3.75    0.22
   5  -1  -1   13.10    0.45
  -5  -1   1   12.70    0.50
   5   1  -1   12.52    0.45
  -5   1   1   13.45    0.44
   4  -1  -1   52.17    1.57
  -4  -1   1   48.35    1.62
   4   1  -1   51.26    1.58
  -4   1   1   51.24    1.56
   3  -1  -1   18.62    0.58
  -3   1   1   18.26    0.58
   3   1  -1   18.61    0.59
   2  -1  -1    5.32    0.18
   2   1  -1    5.55    0.19
  -2   1   1    5.16    0.18
   1  -1  -1  105.82    3.30
   1   1  -1  109.40    3.32
  -1   1   1  108.43    3.31
   0  -1   1  361.73   10.64
   0   1  -1  342.87   10.64
   0   1   1  340.45   10.62
   1  -1   1   18.05    0.54
  -1   1  -1   16.50    0.54
   1   1   1   17.48    0.55
   2  -1   1   28.11    0.86
  -2  -1  -1   26.62    0.86
  -2   1  -1   27.25    0.86
   2   1   1   28.14    0.86
   3  -1   1   85.05    2.57
  -3  -1  -1   79.14    2.56
  -3   1  -1   81.72    2.56
   3   1   1   88.88    2.57
  -4  -1  -1    5.32    0.26
  -4  -1  -1    5.74    0.22
   4  -1   1    5.61    0.22
   4   1   1    5.47    0.22
  -5  -1  -1  107.36    3.31
  -5  -1  -1  109.20    3.36
  -5   1  -1  105.92    3.30
   6  -1   1   14.67    0.57
  -6  -1  -1   15.06    0.58
  -6  -1  -1   15.26    0.55
  -6   1  -1   14.52    0.55
   7  -1   1    0.66    0.17
  -7  -1  -1    0.78    0.19
   7  -1   1    1.07    0.20
  -7  -1  -1    1.00    0.16
   7  -1   1    0.71    0.18
   7   1   1    1.05    0.28
   8  -1   1   32.32    1.11
  -8  -1  -1   32.23    1.08
  -8   1  -1   32.42    1.08
   8   1   1   31.23    1.10
  -9  -1  -1    0.86    0.15
   9  -1   1    1.21    0.21
   9   1   1    0.80    0.26
  -9   1  -1    0.82    0.16
 -10  -1  -1    1.94    0.16
  10  -1   1    1.65    0.20
 -10   1  -1    1.79    0.16
  10   1   1    1.11    0.27
 -11  -1  -1    0.77    0.11
  11  -1   1    0.87    0.14
 -11   1  -1    0.57    0.10
  12  -1   1    0.15    0.08
 -12  -1  -1    0.29    0.08
 -12   1  -1    0.15    0.05
  11  -2  -1    0.10    0.07
 -11  -2   1    0.13    0.06
 -11   2   1    0.12    0.06
 -10  -2   1    0.09    0.07
  10  -2  -1    0.00    0.08
 -10   2   1   -0.05    0.07
  -9  -2   1    0.24    0.08
   9  -2  -1    0.21    0.14
  -9  -2   1    0.65    0.20
   9  -2  -1    0.40    0.11
  -9   2   1    0.41    0.10
   9   2  -1    0.33    0.19
   8  -2  -1   45.23    1.51
  -8  -2   1   46.23    1.51
  -8  -2   1   45.17    1.49
   8  -2  -1   46.75    1.54
   8  -2  -1   47.78    1.52
  -7  -2   1    1.89    0.22
   7  -2  -1    2.68    0.25
   7  -2  -1    2.39    0.23
  -7  -2   1    2.63    0.20
   7  -2  -1    2.19    0.23
   6  -2  -1   33.89    1.14
  -6  -2   1   34.49    1.13
   6  -2  -1   34.14    1.15
   6  -2  -1   34.18    1.14
  -6  -2   1   33.26    1.12
   5  -2  -1   39.67    1.30
   5  -2  -1   39.90    1.31
   5  -2  -1   41.15    1.31
  -5  -2   1   42.28    1.34
  -5  -2   1   36.45    1.29
  -5  -2   1   39.27    1.29
   5  -2  -1   41.42    1.32
  -5   2   1   38.56    1.27
  -4  -2   1    7.88    0.35
   4  -2  -1    7.47    0.30
  -4   2   1    7.56    0.29
   4   2  -1    7.88    0.30
  -3  -2   1    0.51    0.13
   3  -2  -1    0.45    0.08
   3   2  -1    0.31    0.07
  -3   2   1    0.24    0.07
   3   2  -1    0.32    0.08
   2  -2  -1   31.96    0.99
  -2  -2   1   30.48    1.04
   2   2  -1   32.40    1.01
  -2   2   1   32.18    1.00
   2   2  -1   31.54    1.00
   1   2  -1   49.05    1.54
  -1   2   1   49.97    1.53
   0   2   1   45.25    1.35
   0   2  -1   41.33    1.35
   1  -2   1   34.02    1.06
   1   2   1   34.58    1.06
  -1   2  -1   33.72    1.06
   1   2   1   32.60    1.06
  -2  -2  -1   49.59    1.61
   2  -2   1   51.13    1.57
  -2   2  -1   49.91    1.57
   2   2   1   51.10    1.57
   3  -2   1   24.51    0.79
  -3  -2  -1   24.96    0.84
  -3   2  -1   24.87    0.79
   3   2   1   23.53    0.80
  -4  -2  -1    5.58    0.29
  -4   2  -1    5.30    0.23
   5  -2   1    0.49    0.15
   5  -2   1    0.35    0.11
  -5  -2  -1    0.32    0.11
   5  -2   1    0.58    0.14
  -5  -2  -1    0.52    0.14
   5  -2   1    0.42    0.13
  -5   2  -1    0.70    0.17
   6  -2   1    5.32    0.33
   6  -2   1    5.34    0.31
  -6  -2  -1    5.34    0.31
   6  -2   1    5.39    0.30
  -6  -2  -1    5.42    0.27
  -7  -2  -1    0.24    0.10
   7  -2   1    0.11    0.11
   7  -2   1    0.35    0.13
   7  -2   1    0.08    0.15
  -7  -2  -1    0.34    0.15
   8  -2   1    1.13    0.20
   8  -2   1    1.58    0.23
  -8  -2  -1    1.18    0.15
   8  -2   1    1.32    0.21
   9  -2   1   -0.13    0.13
   9  -2   1    0.02    0.10
  -9  -2  -1    0.01    0.08
  -9   2  -1    0.04    0.08
  10  -2   1    0.79    0.14
 -10  -2  -1    0.71    0.12
 -10   2  -1    0.68    0.12
  11  -2   1    2.12    0.15
 -11  -2  -1    1.87    0.13
 -11   2  -1    2.10    0.13
  10  -3  -1    0.30    0.10
  10  -3  -1    0.25    0.08
 -10  -3   1    0.40    0.09
  10   3  -1    0.43    0.22
 -10   3   1    0.49    0.10
  -9  -3   1    3.08    0.18
   9  -3  -1    3.28    0.21
  -9  -3   1    2.98    0.20
   9  -3  -1    3.29    0.21
   9   3  -1    3.26    0.27
  -9   3   1    3.06    0.19
   8  -3  -1   15.29    0.58
   8  -3  -1   15.03    0.57
  -8  -3   1   15.31    0.56
   8  -3  -1   15.33    0.59
  -8  -3   1   14.74    0.56
   7  -3  -1    5.32    0.30
   7  -3  -1    5.08    0.30
  -7  -3   1    5.14    0.27
   7  -3  -1    5.37    0.29
  -7  -3   1    4.98    0.28
   6  -3  -1   16.25    0.63
  -6  -3   1   16.64    0.61
  -6  -3   1   16.81    0.61
   6  -3  -1   16.51    0.61
   6  -3  -1   16.49    0.64
   6  -3  -1   16.56    0.62
  -5  -3   1    0.69    0.16
   5  -3  -1    0.95    0.18
   5  -3  -1    0.65    0.17
   5  -3  -1    0.42    0.13
   5  -3  -1    0.52    0.13
  -5  -3   1    0.65    0.18
   4  -3  -1   13.92    0.54
   4  -3  -1   14.16    0.55
   4  -3  -1   14.08    0.58
   4  -3  -1   14.90    0.54
  -4  -3   1   14.06    0.53
  -4  -3   1   14.57    0.53
  -3  -3   1   47.00    1.53
   3  -3  -1   47.33    1.53
   3  -3  -1   47.83    1.54
   3  -3  -1   49.48    1.55
  -3  -3   1   48.34    1.53
  -3   3   1   46.41    1.53
  -2  -3   1    1.24    0.17
   2  -3  -1    1.32    0.19
  -2   3   1    1.54    0.17
   1   3  -1    0.09    0.09
  -1   3   1    0.03    0.08
   0  -3  -1    9.83    0.46
   0   3   1   11.16    0.40
   0   3  -1   11.16    0.41
  -1  -3  -1    0.85    0.18
   1   3   1    0.73    0.14
  -1   3  -1    0.81    0.15
   2  -3   1    4.54    0.27
  -2  -3  -1    5.42    0.27
   2  -3   1    4.86    0.28
  -2  -3  -1    4.51    0.25
  -2   3  -1    4.69    0.26
  -3  -3  -1    7.42    0.34
  -3  -3  -1    6.75    0.31
   3  -3   1    6.77    0.32
  -3  -3  -1    6.73    0.32
   3  -3   1    6.84    0.33
   3  -3   1    6.94    0.34
  -4  -3  -1   30.14    1.04
   4  -3   1   31.05    1.04
  -4  -3  -1   31.95    1.04
   4  -3   1   30.03    1.04
   4  -3   1   30.80    1.07
   4  -3   1   32.52    1.04
  -4  -3  -1   31.63    1.09
   5  -3   1    0.57    0.17
  -5  -3  -1    0.45    0.16
   5  -3   1    0.50    0.12
   5  -3   1    0.30    0.13
  -5  -3  -1    0.35    0.10
  -5  -3  -1    0.52    0.14
   5  -3   1    0.87    0.23
   6  -3   1   54.45    1.73
   6  -3   1   53.64    1.75
   6  -3   1   54.34    1.75
   6  -3   1   53.47    1.74
  -6  -3  -1   54.34    1.73
  -6  -3  -1   53.86    1.80
  -6  -3  -1   52.38    1.72
  -7  -3  -1   75.43    2.32
   7  -3   1   74.03    2.34
   7  -3   1   71.15    2.32
   7  -3   1   72.06    2.34
   8  -3   1   57.51    1.91
   8  -3   1   60.52    1.94
  -8  -3  -1   60.76    1.91
   8  -3   1   61.02    1.93
   9  -3   1    0.03    0.09
   9  -3   1    0.04    0.08
  -9  -3  -1   -0.01    0.06
  -9   3  -1    0.03    0.07
  10  -3   1    0.01    0.09
  10  -3   1    0.12    0.07
 -10  -3  -1    0.28    0.08
  10   3   1    0.07    0.25
 -10   3  -1    0.24    0.06
  -9  -4   1    2.61    0.14
   9  -4  -1    2.58    0.17
   9  -4  -1    2.49    0.15
   9   4  -1    2.36    0.23
  -9   4   1    2.59    0.14
  -8  -4   1    6.88    0.30
   8  -4  -1    6.99    0.31
   8  -4  -1    6.60    0.31
   8  -4  -1    6.89    0.30
  -8  -4   1    7.07    0.29
   8   4  -1    7.44    0.37
  -7  -4   1    0.57    0.15
   7  -4  -1    0.81    0.16
  -7  -4   1    0.69    0.12
   7  -4  -1    0.48    0.14
   7  -4  -1    0.76    0.18
   7   4  -1    0.53    0.18
   6  -4  -1   11.67    0.46
   6  -4  -1   11.86    0.48
  -6  -4   1   11.45    0.46
  -6  -4   1   12.05    0.46
   6  -4  -1   11.94    0.49
   6  -4  -1   12.27    0.48
   5  -4  -1    6.46    0.32
   5  -4  -1    6.14    0.33
  -5  -4   1    6.54    0.31
  -5  -4   1    6.75    0.32
   5  -4  -1    7.13    0.37
   5  -4  -1    6.76    0.33
  -4  -4   1    7.52    0.34
   4  -4  -1    7.34    0.35
  -4  -4   1    7.41    0.34
   4  -4  -1    7.63    0.36
   4  -4  -1    7.25    0.34
   3  -4  -1    7.05    0.33
   3  -4  -1    6.88    0.34
  -3  -4   1    7.31    0.33
   3  -4  -1    7.10    0.35
  -3  -4   1    6.95    0.32
  -2  -4   1   44.77    1.43
  -2  -4   1   41.22    1.43
   2  -4  -1   45.34    1.45
   2  -4  -1   43.99    1.44
   2  -4  -1   45.39    1.45
  -1  -4   1    3.52    0.23
   1  -4  -1    3.53    0.23
   1  -4  -1    2.62    0.30
   1  -4  -1    3.59    0.23
  -1  -4   1    3.26    0.22
   0  -4   1   -0.01    0.10
   0  -4  -1    0.12    0.11
   0  -4  -1   -0.01    0.10
   0  -4   1    0.07    0.09
  -1  -4  -1    4.28    0.25
   1  -4   1    4.11    0.30
   1  -4   1    4.31    0.25
  -1  -4  -1    4.41    0.26
   1  -4   1    4.28    0.26
   2  -4   1    1.07    0.16
  -2  -4  -1    1.03    0.18
   2  -4   1    0.70    0.17
   2  -4   1    1.21    0.20
  -2  -4  -1    0.54    0.15
  -3  -4  -1    1.62    0.17
   3  -4   1    1.52    0.20
   3  -4   1    1.34    0.19
  -3  -4  -1    1.70    0.19
   3  -4   1    1.63    0.18
  -4  -4  -1    0.49    0.15
   4  -4   1    0.37    0.11
   4  -4   1    0.57    0.18
  -4  -4  -1    0.74    0.19
   4  -4   1    0.64    0.17
  -5  -4  -1    0.17    0.12
   5  -4   1    0.09    0.10
   5  -4   1    0.07    0.11
  -5  -4  -1    0.08    0.08
   5  -4   1    0.12    0.09
   6  -4   1   29.01    1.01
  -6  -4  -1   29.68    0.99
   6  -4   1   30.47    1.00
   6  -4   1   30.45    1.00
  -6  -4  -1   28.89    0.98
   6  -4   1   27.68    1.01
   7  -4   1    0.89    0.15
   7  -4   1    0.62    0.14
  -7  -4  -1    0.72    0.11
   7  -4   1    0.82    0.20
  -8  -4  -1    0.14    0.07
   8  -4   1   -0.08    0.07
   8  -4   1    0.13    0.08
   8  -4   1   -0.01    0.09
  -9  -4  -1    0.73    0.09
   9  -4   1    0.49    0.11
   9  -4   1    0.65    0.15
  -9   4  -1    0.54    0.09
   9   4   1    0.39    0.18
   7  -5  -1    0.20    0.06
   7  -5  -1    0.23    0.06
  -7  -5   1    0.10    0.05
   7   5  -1    0.11    0.15
   6  -5  -1    7.15    0.30
   6  -5  -1    6.71    0.29
  -6  -5   1    6.78    0.28
  -6  -5   1    6.96    0.28
   6   5  -1    6.41    0.35
  -5  -5   1    2.69    0.18
   5  -5  -1    2.90    0.19
  -5  -5   1    2.55    0.17
   5  -5  -1    2.75    0.19
   5  -5  -1    2.61    0.18
   5   5  -1    3.09    0.26
  -4  -5   1    0.77    0.14
   4  -5  -1    0.95    0.14
   4  -5  -1    0.83    0.16
   4  -5  -1    0.85    0.15
  -4  -5   1    1.03    0.14
   4   5  -1    1.12    0.24
   3  -5  -1    4.04    0.24
   3  -5  -1    3.95    0.25
  -3  -5   1    4.13    0.24
  -3  -5   1    4.13    0.23
   3  -5  -1    3.98    0.23
   3   5  -1    3.50    0.33
   2  -5  -1    6.71    0.37
   2  -5  -1    8.46    0.36
  -2  -5   1    8.21    0.35
   2  -5  -1    7.61    0.34
  -2  -5   1    8.20    0.35
  -1  -5   1    0.05    0.09
   1  -5  -1    0.22    0.10
   1  -5  -1    0.00    0.08
  -1  -5   1    0.08    0.09
   0  -5  -1    9.62    0.40
   0  -5   1    9.86    0.41
   0  -5   1    9.70    0.41
  -1  -5  -1   30.53    1.02
   1  -5   1   30.64    1.02
  -1  -5  -1   30.08    1.01
   1  -5   1   29.56    1.02
  -2  -5  -1    1.12    0.15
   2  -5   1    1.33    0.23
   2  -5   1    1.16    0.15
   2  -5   1    1.19    0.18
  -2  -5  -1    1.40    0.17
  -3  -5  -1   29.76    1.01
   3  -5   1   29.50    1.02
   3  -5   1   29.59    1.01
  -3  -5  -1   31.13    1.01
   3  -5   1   30.94    1.02
   4  -5   1    3.28    0.22
   4  -5   1    2.72    0.19
   4  -5   1    3.25    0.21
  -4  -5  -1    3.20    0.21
  -4  -5  -1    2.76    0.19
   5  -5   1   22.85    0.79
   5  -5   1   22.59    0.79
  -5  -5  -1   22.68    0.77
   5  -5   1   22.65    0.78
  -5  -5  -1   23.19    0.78
   5   5   1   24.55    0.86
   6  -5   1    0.06    0.07
  -6  -5  -1   -0.05    0.06
   6  -5   1    0.01    0.07
   6   5   1   -0.03    0.16
  -7  -5  -1    4.88    0.20
   7  -5   1    4.68    0.21
   7  -5   1    4.74    0.21
   7   5   1    4.24    0.29
   4  -6  -1    0.03    0.05
   4  -6  -1   -0.10    0.06
  -4  -6   1    0.22    0.08
  -4  -6   1    0.07    0.05
   3  -6  -1    0.23    0.07
  -3  -6   1    0.32    0.07
   3  -6  -1    0.29    0.09
  -3  -6   1    0.27    0.08
  -2  -6   1    0.98    0.10
   2  -6  -1    1.15    0.11
   2  -6  -1    1.03    0.11
  -2  -6   1    0.91    0.12
   1  -6  -1    2.77    0.16
  -1  -6   1    2.63    0.16
  -1  -6   1    2.64    0.15
   1  -6  -1    2.79    0.16
   0  -6   1    2.96    0.16
   0  -6  -1    2.85    0.17
   0  -6   1    2.86    0.17
   0  -6  -1    3.09    0.17
  -1  -6  -1    9.91    0.37
  -1  -6  -1   10.01    0.37
   1  -6   1   10.09    0.37
   1  -6   1    9.87    0.37
   2  -6   1   18.77    0.65
  -2  -6  -1   19.55    0.65
  -2  -6  -1   19.89    0.65
   2  -6   1   19.08    0.65
  -3  -6  -1    1.05    0.10
  -3  -6  -1    1.24    0.15
   3  -6   1    0.85    0.10
   3  -6   1    0.94    0.11
   4  -6   1    0.14    0.06
  -4  -6  -1    0.03    0.05
   4  -6   1   -0.03    0.05
 -12   0   2    0.48    0.09
 -11   0   2    0.09    0.10
 -11   0   2    0.01    0.06
  11   0  -2    0.09    0.12
 -10   0   2    9.12    0.38
 -10   0   2    9.15    0.38
  10   0  -2    8.61    0.42
   9   0  -2    0.09    0.13
  -9   0   2   -0.01    0.09
  -9   0   2   -0.06    0.10
  -8   0   2   40.23    1.33
   8   0  -2   41.52    1.37
  -7   0   2   -0.08    0.10
   7   0  -2   -0.09    0.14
   5   0  -2    0.09    0.06
  -5   0   2    0.06    0.05
   4   0  -2  108.75    3.35
  -4   0   2  111.00    3.35
   3   0  -2    0.01    0.02
  -3   0   2    0.04    0.02
  -2   0   2  153.47    4.83
   2   0  -2  164.23    4.83
   0   0   2    0.21    0.02
   0   0  -2    0.22    0.02
  -1   0  -2   -0.01    0.01
   1   0   2    0.00    0.01
   2   0   2   97.65    2.89
  -2   0  -2   91.79    2.91
   3   0   2    0.02    0.03
  -3   0  -2    0.00    0.02
  -4   0  -2  174.16    5.31
   4   0   2  174.06    5.31
  -5   0  -2   -0.01    0.13
   6   0   2    0.72    0.23
  -6   0  -2    0.80    0.23
   7   0   2   -0.06    0.10
  -7   0  -2    0.04    0.09
  -8   0  -2   36.88    1.23
   8   0   2   37.58    1.26
   9   0   2   -0.02    0.12
  -9   0  -2    0.04    0.09
  10   0   2    0.00    0.10
 -10   0  -2    0.05    0.08
  11   0   2    0.06    0.10
 -11   0  -2    0.00    0.07
 -12   0  -2    0.29    0.08
 -12  -1   2    0.15    0.06
  12  -1  -2    0.53    0.15
 -12   1   2    0.29    0.09
  11  -1  -2    0.08    0.09
 -11  -1   2    0.11    0.07
 -11  -1   2    0.10    0.11
 -11   1   2    0.12    0.07
 -11   1   2    0.15    0.09
 -10  -1   2    4.52    0.25
 -10  -1   2    4.78    0.25
  10  -1  -2    4.67    0.28
 -10   1   2    4.67    0.25
 -10   1   2    4.79    0.25
  -9  -1   2    6.98    0.33
  -9  -1   2    7.08    0.33
   9  -1  -2    7.05    0.37
  -9   1   2    7.04    0.33
  -8  -1   2   31.42    1.05
   8  -1  -2   31.47    1.08
  -8  -1   2   30.54    1.04
   8   1  -2   30.94    1.10
  -8   1   2   31.03    1.05
  -7  -1   2   20.25    0.72
   7  -1  -2   21.12    0.73
  -7  -1   2   20.28    0.72
   7  -1  -2   19.96    0.75
   7  -1  -2   20.36    0.75
  -7   1   2   20.19    0.72
  -6  -1   2    2.49    0.21
   6  -1  -2    2.80    0.24
   6  -1  -2    2.58    0.25
  -6  -1   2    2.70    0.23
   5  -1  -2   53.81    1.65
  -5   1   2   53.70    1.65
   5   1  -2   52.68    1.67
   4  -1  -2   68.21    2.00
  -4   1   2   62.81    2.00
   4   1  -2   64.93    2.01
   3  -1  -2   91.60    2.73
  -3   1   2   84.82    2.73
   3   1  -2   92.70    2.74
   2  -1  -2    2.78    0.10
   2   1  -2    2.70    0.11
   2   1  -2    2.60    0.10
  -2   1   2    2.75    0.10
  -1   1   2    5.14    0.17
   1   1  -2    5.19    0.18
   0  -1   2  189.53    5.56
   0   1  -2  171.72    5.59
   0   1   2  185.14    5.57
  -1  -1  -2   13.17    0.42
   1  -1   2   12.56    0.42
   1   1   2   13.44    0.42
  -1   1  -2   13.09    0.42
  -2  -1  -2   14.17    0.46
   2  -1   2   14.17    0.46
   2   1   2   13.75    0.45
  -2   1  -2   14.27    0.45
   3  -1   2   13.22    0.45
  -3  -1  -2   14.09    0.45
  -3   1  -2   13.38    0.45
   3   1   2   13.59    0.45
   4  -1   2   48.07    1.55
  -4  -1  -2   50.65    1.55
  -4  -1  -2   48.33    1.58
  -4   1  -2   48.43    1.54
   4   1   2   51.75    1.55
  -5  -1  -2   34.95    1.14
  -5  -1  -2   34.84    1.17
  -5   1  -2   36.43    1.14
  -6  -1  -2   15.50    0.57
  -6  -1  -2   15.94    0.60
   6  -1   2   15.21    0.59
  -7  -1  -2    2.69    0.21
  -7  -1  -2    3.41    0.27
   7  -1   2    2.92    0.24
   7  -1   2    2.72    0.29
   7   1   2    2.82    0.27
  -8  -1  -2    1.67    0.26
  -8  -1  -2    1.77    0.18
   8  -1   2    1.72    0.23
   8   1   2    1.70    0.28
  -8   1  -2    1.77    0.19
   9  -1   2    2.02    0.22
  -9  -1  -2    2.19    0.19
   9   1   2    1.94    0.27
  -9   1  -2    2.18    0.19
 -10  -1  -2    5.01    0.25
  10  -1   2    4.74    0.27
 -10   1  -2    5.08    0.24
  10   1   2    4.88    0.32
 -11  -1  -2    0.33    0.09
  11  -1   2    0.12    0.08
 -11   1  -2    0.06    0.06
 -12  -1  -2    0.05    0.05
  11  -2  -2    0.41    0.11
 -11  -2   2    0.53    0.09
 -11   2   2    0.43    0.10
 -11   2   2    0.57    0.14
  10  -2  -2    0.10    0.08
 -10  -2   2    0.14    0.07
 -10  -2   2    0.18    0.10
 -10   2   2    0.17    0.07
  -9  -2   2    0.77    0.17
  -9  -2   2    0.51    0.13
   9  -2  -2    0.32    0.14
   9  -2  -2    0.26    0.11
   9   2  -2    0.25    0.20
  -9   2   2    0.30    0.10
  -8  -2   2   27.48    0.97
   8  -2  -2   29.25    0.99
   8  -2  -2   29.72    1.02
   8  -2  -2   29.37    0.99
  -8  -2   2   28.61    0.98
   8   2  -2   28.31    1.04
   7  -2  -2   15.91    0.62
  -7  -2   2   16.16    0.59
   7  -2  -2   16.00    0.61
  -7  -2   2   15.61    0.58
   7  -2  -2   15.56    0.60
  -6  -2   2    5.72    0.29
   6  -2  -2    5.47    0.31
  -6  -2   2    5.44    0.27
   6  -2  -2    5.72    0.31
   6  -2  -2    5.37    0.30
   5  -2  -2   22.40    0.80
   5  -2  -2   22.24    0.78
   5  -2  -2   22.86    0.78
   5  -2  -2   22.26    0.79
  -5  -2   2   22.51    0.77
  -5  -2   2   22.76    0.78
   5   2  -2   21.96    0.76
   4  -2  -2   43.88    1.41
  -4   2   2   45.52    1.40
   4   2  -2   45.83    1.42
   3  -2  -2    8.16    0.29
   3   2  -2    8.43    0.30
  -3   2   2    8.59    0.29
   3   2  -2    7.75    0.31
  -2   2   2    0.21    0.06
   2   2  -2    0.12    0.04
   2   2  -2    0.15    0.06
  -1   2   2   21.10    0.71
   1   2  -2   23.91    0.72
   0  -2   2   21.04    0.70
   0   2  -2   20.26    0.69
   0   2   2   23.11    0.70
   0   2   2   22.45    0.69
   1  -2   2  149.56    4.53
   1   2   2  150.90    4.53
  -1   2  -2  150.49    4.53
   1   2   2  142.10    4.53
  -2  -2  -2   11.29    0.43
   2  -2   2   12.00    0.40
  -2   2  -2   11.39    0.40
   2   2   2   11.58    0.40
  -3  -2  -2   18.31    0.66
  -3   2  -2   18.99    0.62
  -4  -2  -2   23.95    0.85
  -4   2  -2   24.70    0.80
   5  -2   2    3.43    0.24
  -5  -2  -2    3.38    0.23
   5  -2   2    3.20    0.27
  -5  -2  -2    3.73    0.24
   5  -2   2    3.15    0.24
  -6  -2  -2    0.04    0.11
  -6  -2  -2    0.00    0.10
   6  -2   2   -0.01    0.11
   6  -2   2    0.15    0.16
   6  -2   2    0.02    0.11
  -7  -2  -2   68.16    2.20
  -7  -2  -2   69.10    2.14
   7  -2   2   66.02    2.15
   7  -2   2   66.36    2.17
   8  -2   2   27.96    0.98
  -8  -2  -2   27.77    0.95
   8  -2   2   26.23    0.94
   8  -2   2   28.98    0.97
   9  -2   2    4.49    0.30
  -9  -2  -2    4.53    0.24
   9  -2   2    4.86    0.28
  -9   2  -2    4.36    0.24
  10  -2   2    2.18    0.18
 -10  -2  -2    2.05    0.15
 -10   2  -2    2.10    0.15
  11  -2   2    9.69    0.38
 -11  -2  -2   10.29    0.36
 -11   2  -2    9.56    0.36
 -10  -3   2    0.01    0.05
  10  -3  -2   -0.02    0.09
  10  -3  -2    0.14    0.07
 -10   3   2    0.13    0.06
  10   3  -2    0.52    0.22
  -9  -3   2    3.03    0.18
  -9  -3   2    3.02    0.19
   9  -3  -2    2.96    0.20
   9  -3  -2    3.28    0.21
   9   3  -2    2.99    0.26
  -9   3   2    3.24    0.19
  -8  -3   2    2.79    0.20
   8  -3  -2    2.82    0.23
   8  -3  -2    2.53    0.21
   8  -3  -2    2.39    0.22
  -8  -3   2    2.48    0.19
   8   3  -2    2.79    0.26
  -7  -3   2    7.99    0.36
  -7  -3   2    8.00    0.36
   7  -3  -2    8.83    0.40
   7  -3  -2    8.17    0.39
   7  -3  -2    8.44    0.38
   6  -3  -2    7.06    0.36
   6  -3  -2    7.23    0.34
  -6  -3   2    6.91    0.32
   6  -3  -2    6.92    0.34
   6  -3  -2    6.69    0.34
  -6  -3   2    7.10    0.33
  -5  -3   2    1.72    0.19
   5  -3  -2    1.60    0.20
   5  -3  -2    1.71    0.20
   5  -3  -2    1.68    0.20
  -5  -3   2    1.47    0.18
   5  -3  -2    1.74    0.24
   4  -3  -2    8.46    0.37
   4  -3  -2    8.12    0.42
   4  -3  -2    7.81    0.37
  -4  -3   2    7.74    0.35
   4  -3  -2    8.38    0.37
  -4  -3   2    7.84    0.35
   3  -3  -2   42.91    1.40
   3  -3  -2   44.29    1.40
   3  -3  -2   43.10    1.41
  -3  -3   2   43.57    1.40
  -3  -3   2   42.44    1.39
  -3   3   2   43.04    1.40
  -2  -3   2   10.10    0.41
  -2  -3   2   10.23    0.41
   2  -3  -2   10.47    0.43
  -2   3   2   10.90    0.41
   1   3  -2   90.32    2.90
  -1   3   2   96.33    2.89
   0  -3  -2    7.01    0.36
   0   3   2    7.02    0.29
   0   3  -2    7.43    0.31
   0   3  -2    5.74    0.34
  -1  -3  -2  116.39    3.50
  -1   3  -2  103.67    3.47
   1   3   2  116.38    3.47
  -2  -3  -2   22.94    0.80
   2  -3   2   23.18    0.81
   2  -3   2   24.44    0.81
   3  -3   2    2.15    0.19
   3  -3   2    2.09    0.21
   3  -3   2    2.33    0.23
  -3  -3  -2    1.85    0.26
  -3  -3  -2    1.76    0.20
   4  -3   2    0.06    0.11
  -4  -3  -2    0.19    0.10
  -4  -3  -2    0.21    0.12
   4  -3   2    0.27    0.18
   4  -3   2    0.18    0.11
   4  -3   2    0.14    0.11
  -4  -3  -2    0.46    0.16
   5  -3   2   16.28    0.59
   5  -3   2   15.21    0.61
   5  -3   2   15.83    0.58
  -5  -3  -2   15.35    0.58
  -5  -3  -2   15.65    0.63
   5  -3   2   15.42    0.60
   6  -3   2   21.37    0.76
  -6  -3  -2   21.82    0.75
   6  -3   2   21.44    0.75
  -6  -3  -2   22.08    0.82
   6  -3   2   20.18    0.76
   6  -3   2   20.57    0.77
   7  -3   2    0.20    0.09
  -7  -3  -2    0.22    0.14
   7  -3   2    0.11    0.11
  -7  -3  -2    0.21    0.09
   7  -3   2    0.15    0.12
   8  -3   2    5.71    0.31
   8  -3   2    5.65    0.30
  -8  -3  -2    5.46    0.27
   8  -3   2    5.00    0.30
   9  -3   2   -0.02    0.08
  -9  -3  -2   -0.01    0.07
   9  -3   2    0.11    0.10
  -9   3  -2    0.19    0.08
 -10  -3  -2    1.78    0.12
  10  -3   2    1.61    0.15
  10  -3   2    1.96    0.17
 -10   3  -2    1.64    0.12
   9  -4  -2    2.80    0.17
   9  -4  -2    2.81    0.16
  -9  -4   2    2.79    0.14
   9   4  -2    2.84    0.25
  -9   4   2    2.95    0.16
   8  -4  -2    3.92    0.21
   8  -4  -2    3.83    0.22
   8  -4  -2    3.94    0.22
  -8  -4   2    3.95    0.20
  -8  -4   2    3.82    0.21
   8   4  -2    4.34    0.28
   7  -4  -2   38.26    1.24
   7  -4  -2   37.35    1.25
  -7  -4   2   37.12    1.22
  -7  -4   2   38.40    1.23
   7  -4  -2   38.53    1.25
   7   4  -2   36.57    1.30
   6  -4  -2   25.15    0.90
   6  -4  -2   26.25    0.91
  -6  -4   2   26.09    0.89
   6  -4  -2   25.98    0.89
  -6  -4   2   26.30    0.88
   6  -4  -2   26.85    0.90
   6   4  -2   24.83    0.96
   5  -4  -2   19.83    0.73
   5  -4  -2   20.20    0.72
  -5  -4   2   20.34    0.72
   5  -4  -2   20.30    0.73
  -5  -4   2   19.96    0.72
   5  -4  -2   20.66    0.75
  -4  -4   2    0.42    0.11
  -4  -4   2    0.16    0.09
   4  -4  -2    0.39    0.12
   4  -4  -2    0.06    0.17
   4  -4  -2    0.22    0.12
   4  -4  -2    0.42    0.12
   3  -4  -2    7.38    0.34
  -3  -4   2    7.46    0.33
   3  -4  -2    7.50    0.36
  -3  -4   2    7.24    0.34
   3  -4  -2    7.69    0.35
   2  -4  -2    4.49    0.28
   2  -4  -2    4.63    0.26
  -2  -4   2    4.62    0.26
  -2  -4   2    4.53    0.25
   2  -4  -2    4.70    0.29
   2   4  -2    4.17    0.30
   1  -4  -2   46.74    1.47
   1  -4  -2   44.72    1.47
  -1  -4   2   44.94    1.46
  -1  -4   2   46.39    1.47
   1  -4  -2   42.31    1.47
   1   4  -2   45.75    1.51
   0  -4   2    1.07    0.16
   0  -4   2    0.72    0.17
   0  -4  -2    0.92    0.18
   0  -4  -2    1.05    0.19
   1  -4   2    2.40    0.20
  -1  -4  -2    2.06    0.22
  -1  -4  -2    2.58    0.20
   1  -4   2    2.20    0.27
   1  -4   2    2.46    0.21
  -1  -4  -2    2.07    0.29
   2  -4   2   -0.10    0.12
   2  -4   2    0.06    0.09
  -2  -4  -2    0.13    0.16
  -2  -4  -2   -0.06    0.11
   2  -4   2    0.16    0.10
  -2  -4  -2   -0.02    0.09
   3  -4   2    9.67    0.42
   3  -4   2    9.90    0.43
  -3  -4  -2   10.14    0.46
   3  -4   2    9.82    0.41
  -3  -4  -2    9.92    0.41
  -3  -4  -2    9.75    0.42
   4  -4   2    0.72    0.16
  -4  -4  -2    0.85    0.21
  -4  -4  -2    1.11    0.17
  -4  -4  -2    1.10    0.21
   4  -4   2    0.99    0.18
   4  -4   2    0.68    0.17
   5  -4   2    0.02    0.11
   5  -4   2    0.05    0.10
  -5  -4  -2    0.02    0.14
   5  -4   2    0.08    0.09
  -5  -4  -2    0.18    0.15
  -5  -4  -2    0.13    0.09
  -6  -4  -2    5.48    0.27
   6  -4   2    5.67    0.29
   6  -4   2    5.41    0.27
   6  -4   2    5.34    0.29
  -7  -4  -2    1.52    0.14
   7  -4   2    1.45    0.16
   7  -4   2    1.73    0.16
   7  -4   2    1.69    0.22
   8  -4   2    4.88    0.24
   8  -4   2    4.78    0.24
  -8  -4  -2    5.19    0.23
   8  -4   2    4.92    0.26
   9  -4   2    0.36    0.11
   9  -4   2    0.34    0.09
  -9  -4  -2    0.26    0.08
  -9   4  -2    0.23    0.06
   9   4   2    0.17    0.18
  -7  -5   2    0.50    0.13
  -7  -5   2    0.51    0.09
   7  -5  -2    0.61    0.09
   7  -5  -2    0.52    0.10
   7   5  -2    0.79    0.20
   6  -5  -2    1.66    0.14
  -6  -5   2    1.83    0.14
  -6  -5   2    1.74    0.13
   6  -5  -2    1.46    0.14
   6   5  -2    1.85    0.21
   5  -5  -2    7.40    0.32
   5  -5  -2    7.28    0.31
   5  -5  -2    7.12    0.31
  -5  -5   2    7.21    0.31
  -5  -5   2    7.30    0.30
   5   5  -2    7.50    0.38
   4  -5  -2    0.36    0.10
  -4  -5   2    0.43    0.12
   4  -5  -2    0.75    0.15
   4  -5  -2    0.53    0.13
  -4  -5   2    0.82    0.14
   4   5  -2    0.40    0.19
   3  -5  -2    0.25    0.10
   3  -5  -2    0.24    0.10
  -3  -5   2    0.04    0.08
   3  -5  -2    0.15    0.10
   3   5  -2    0.30    0.20
   2  -5  -2   41.91    1.36
  -2  -5   2   40.76    1.35
   2  -5  -2   41.68    1.35
  -2  -5   2   41.16    1.35
  -1  -5   2    9.26    0.40
  -1  -5   2    9.45    0.39
   1  -5  -2    9.49    0.41
   1  -5  -2    9.83    0.40
   0  -5   2   10.06    0.41
   0  -5  -2    9.37    0.40
   0  -5   2    9.56    0.40
   0  -5  -2    9.96    0.42
   1  -5   2    2.42    0.20
  -1  -5  -2    2.28    0.19
  -1  -5  -2    2.56    0.21
   1  -5   2    2.22    0.19
  -2  -5  -2   28.13    0.96
   2  -5   2   28.27    0.97
   2  -5   2   29.12    0.98
  -2  -5  -2   29.78    0.97
   2  -5   2   27.63    0.96
   3  -5   2    2.53    0.20
   3  -5   2    2.86    0.20
  -3  -5  -2    2.76    0.20
  -3  -5  -2    2.91    0.22
   3  -5   2    2.60    0.23
   4  -5   2    3.80    0.23
  -4  -5  -2    3.48    0.24
   4  -5   2    3.72    0.20
  -4  -5  -2    3.88    0.21
   4  -5   2    3.63    0.22
   5  -5   2    6.32    0.29
  -5  -5  -2    6.35    0.27
   5  -5   2    6.23    0.28
   5  -5   2    6.10    0.27
   6  -5   2   -0.09    0.07
   6  -5   2   -0.07    0.07
  -6  -5  -2    0.01    0.06
   6   5   2    0.10    0.15
   7  -5   2    0.64    0.10
   7  -5   2    0.65    0.12
  -7  -5  -2    0.59    0.09
   7   5   2    0.75    0.20
   4  -6  -2    1.01    0.10
  -4  -6   2    1.13    0.11
  -4  -6   2    0.78    0.09
   3  -6  -2    1.56    0.12
  -3  -6   2    1.84    0.12
   3  -6  -2    1.53    0.12
  -3  -6   2    1.52    0.11
  -2  -6   2    0.12    0.06
   2  -6  -2    0.07    0.07
   2  -6  -2    0.02    0.06
  -2  -6   2    0.09    0.06
   1  -6  -2    1.76    0.14
  -1  -6   2    1.69    0.13
  -1  -6   2    1.79    0.13
   1  -6  -2    1.68    0.13
   0  -6   2    1.05    0.11
   0  -6  -2    1.06    0.13
   0  -6  -2    0.95    0.11
   0  -6   2    0.99    0.12
  -1  -6  -2    3.11    0.18
   1  -6   2    3.04    0.17
   1  -6   2    2.94    0.16
  -1  -6  -2    2.95    0.16
  -2  -6  -2    6.76    0.28
  -2  -6  -2    6.63    0.27
   2  -6   2    6.94    0.28
   2  -6   2    6.99    0.27
   3  -6   2    1.22    0.11
   3  -6   2    1.27    0.12
  -3  -6  -2    1.33    0.11
   4  -6   2    1.08    0.10
   4  -6   2    1.04    0.10
  -4  -6  -2    1.01    0.10
 -12   0   3   -0.08    0.06
 -11   0   3    8.44    0.33
 -11   0   3    8.59    0.34
  11   0  -3    8.37    0.38
 -10   0   3    0.21    0.09
  10   0  -3   -0.08    0.11
 -10   0   3    0.16    0.10
  -9   0   3   24.58    0.84
  -9   0   3   23.40    0.83
   9   0  -3   24.18    0.87
  -8   0   3    0.00    0.10
   8   0  -3   -0.10    0.13
  -7   0   3    3.82    0.23
   7   0  -3    3.61    0.30
   6   0  -3   -0.05    0.16
  -6   0   3    0.05    0.13
   5   0  -3   76.22    2.30
   5   0  -3   73.96    2.36
   4   0  -3   -0.01    0.03
   3   0  -3   85.10    2.58
   1   0  -3  348.74   10.32
  -1   0   3  331.45   10.31
   0   0  -3    0.00    0.01
   0   0   3    0.01    0.02
   1   0   3    8.29    0.27
  -1   0  -3    8.06    0.26
  -2   0  -3    0.01    0.02
   2   0   3    0.03    0.02
  -3   0  -3    1.84    0.10
   3   0   3    2.29    0.10
  -4   0  -3   -0.02    0.05
   4   0   3    0.00    0.05
  -5   0  -3  188.28    5.51
  -5   0  -3  171.75    5.53
  -6   0  -3   -0.01    0.11
   6   0   3    0.18    0.12
  -6   0  -3    0.21    0.17
   7   0   3  128.15    3.98
  -7   0  -3  127.27    3.96
   8   0   3   -0.09    0.11
  -8   0  -3    0.16    0.10
  -9   0  -3   73.77    2.32
   9   0   3   72.64    2.35
  10   0   3    0.05    0.09
 -10   0  -3    0.09    0.07
  11   0   3    0.04    0.08
 -11   0  -3    0.18    0.07
 -12   0  -3    0.02    0.05
 -12  -1   3    0.07    0.06
 -12   1   3   -0.13    0.06
 -11  -1   3    0.34    0.09
 -11  -1   3    0.30    0.07
  11  -1  -3    0.31    0.09
 -11   1   3    0.35    0.10
 -11   1   3    0.30    0.08
 -10  -1   3    0.76    0.16
 -10  -1   3    1.04    0.13
  10  -1  -3    1.04    0.17
 -10   1   3    1.03    0.15
 -10   1   3    0.77    0.14
  -9  -1   3   14.65    0.55
  -9  -1   3   14.55    0.55
   9  -1  -3   15.38    0.59
  -9   1   3   14.22    0.55
  -8  -1   3    9.13    0.40
   8  -1  -3    9.40    0.43
  -8  -1   3    9.39    0.40
  -8   1   3    9.73    0.41
   8   1  -3    9.63    0.47
  -7  -1   3    3.15    0.23
   7  -1  -3    3.39    0.30
   7  -1  -3    3.47    0.24
  -7  -1   3    3.56    0.23
   7  -1  -3    3.60    0.27
  -7   1   3    3.42    0.24
   7   1  -3    3.56    0.27
  -6  -1   3    2.85    0.22
   6  -1  -3    2.66    0.27
   6  -1  -3    2.71    0.24
  -6  -1   3    2.42    0.22
   6  -1  -3    2.47    0.22
   6   1  -3    2.50    0.22
  -5   1   3    2.16    0.12
   5   1  -3    2.55    0.13
   5   1  -3    2.70    0.17
   4  -1  -3    0.49    0.05
   4   1  -3    0.55    0.07
   4   1  -3    0.47    0.08
  -4   1   3    0.47    0.05
   3   1  -3   53.89    1.71
   3   1  -3   58.67    1.71
  -3   1   3   54.55    1.70
   2   1  -3  120.29    3.83
   2   1  -3  128.06    3.84
  -2   1   3  129.87    3.84
  -1  -1   3   19.19    0.60
  -1   1   3   19.97    0.59
   1   1  -3   18.15    0.60
  -1   1   3   19.31    0.59
   0  -1   3  889.02   25.70
   0   1  -3  769.99   25.69
   0   1   3  875.39   25.67
   1  -1   3   26.08    0.82
  -1  -1  -3   25.85    0.81
  -1   1  -3   25.67    0.82
   1   1   3   26.72    0.81
  -2  -1  -3   33.45    1.12
   2  -1   3   39.71    1.13
   2   1   3   36.28    1.12
  -2   1  -3   34.47    1.12
  -3  -1  -3   14.72    0.55
   3  -1   3   15.39    0.52
  -3   1  -3   15.50    0.51
   3   1   3   16.62    0.52
  -4  -1  -3    0.13    0.09
  -4  -1  -3    0.04    0.06
   4  -1   3    0.02    0.06
  -4   1  -3   -0.01    0.05
  -5  -1  -3    5.69    0.28
  -5  -1  -3    5.11    0.27
  -5   1  -3    5.98    0.26
  -6  -1  -3    8.28    0.37
   6  -1   3    8.64    0.41
  -6  -1  -3    8.24    0.39
   6  -1   3    8.65    0.40
   7  -1   3    5.10    0.29
   7  -1   3    5.80    0.34
  -7  -1  -3    4.82    0.27
  -7  -1  -3    4.67    0.31
   7   1   3    4.55    0.33
  -7   1  -3    4.66    0.28
  -8  -1  -3    0.77    0.16
   8  -1   3    0.56    0.13
  -8  -1  -3    0.63    0.20
  -8   1  -3    0.59    0.17
   8   1   3    0.90    0.23
   9  -1   3    5.18    0.31
  -9  -1  -3    5.46    0.28
   9   1   3    5.50    0.34
  -9   1  -3    5.84    0.29
 -10  -1  -3    0.08    0.07
  10  -1   3    0.06    0.08
 -10   1  -3   -0.03    0.07
  10   1   3    0.37    0.13
 -11  -1  -3    6.51    0.27
  11  -1   3    6.34    0.29
 -11   1  -3    6.95    0.27
 -11  -2   3   -0.02    0.06
  11  -2  -3   -0.04    0.06
 -11  -2   3    0.11    0.10
 -11   2   3    0.41    0.11
 -11   2   3    0.05    0.07
 -10  -2   3    0.07    0.07
  10  -2  -3    0.00    0.08
 -10  -2   3    0.00    0.08
 -10   2   3   -0.01    0.06
   9  -2  -3    3.19    0.25
  -9  -2   3    3.50    0.21
   9  -2  -3    3.56    0.26
  -9  -2   3    3.55    0.22
   9   2  -3    2.66    0.28
  -9   2   3    3.34    0.22
   8  -2  -3   24.49    0.87
   8  -2  -3   23.89    0.84
   8  -2  -3   24.91    0.85
  -8  -2   3   23.13    0.83
  -8  -2   3   24.04    0.83
  -8   2   3   23.60    0.83
   8   2  -3   23.75    0.90
  -7  -2   3   29.90    1.01
   7  -2  -3   29.49    1.03
   7  -2  -3   28.39    1.04
   7  -2  -3   29.98    1.02
  -7  -2   3   30.23    1.01
   7   2  -3   31.38    1.08
  -6  -2   3    0.16    0.11
   6  -2  -3    0.38    0.12
   6  -2  -3    0.29    0.11
   6  -2  -3    0.29    0.14
  -6  -2   3    0.30    0.10
   5  -2  -3   35.15    1.17
  -5  -2   3   35.95    1.15
  -5  -2   3   34.30    1.15
   5  -2  -3   34.87    1.15
   5  -2  -3   35.82    1.16
   5  -2  -3   34.44    1.15
   5   2  -3   33.71    1.14
  -4   2   3   23.78    0.77
   4   2  -3   24.82    0.80
   3   2  -3    4.80    0.23
   3   2  -3    4.88    0.20
  -3   2   3    4.73    0.18
  -2   2   3    3.73    0.15
   2   2  -3    3.82    0.16
   2   2  -3    3.77    0.18
  -1   2   3    1.39    0.09
   1   2  -3    1.30    0.16
  -1   2   3    1.45    0.08
   1   2  -3    1.40    0.09
   0  -2   3  127.14    3.92
   0   2   3  126.89    3.92
   0   2  -3  129.09    3.93
   0   2   3  129.99    3.92
   1  -2   3    2.14    0.13
  -1  -2  -3    2.06    0.17
   1   2   3    2.00    0.12
  -1   2  -3    2.13    0.12
   2  -2   3   11.98    0.43
  -2  -2  -3   12.67    0.46
   2   2   3   12.04    0.43
  -2   2  -3   12.61    0.43
  -3  -2  -3   13.28    0.51
  -3   2  -3   13.92    0.47
  -4  -2  -3   25.75    0.90
  -4   2  -3   26.37    0.87
   5  -2   3   13.27    0.53
   5  -2   3   12.98    0.54
  -5  -2  -3   14.42    0.52
   5  -2   3   13.95    0.52
  -5  -2  -3   14.25    0.55
  -6  -2  -3   74.75    2.30
  -6  -2  -3   72.20    2.23
   6  -2   3   70.60    2.25
   6  -2   3   65.71    2.23
   6  -2   3   68.97    2.23
   7  -2   3    7.88    0.39
   7  -2   3    7.93    0.37
  -7  -2  -3    7.50    0.34
  -7  -2  -3    8.31    0.41
   8  -2   3    4.38    0.28
   8  -2   3    4.10    0.27
  -8  -2  -3    4.29    0.24
  -8  -2  -3    3.84    0.29
  -8   2  -3    4.06    0.25
   9  -2   3    0.43    0.11
   9  -2   3    0.32    0.13
  -9  -2  -3    0.68    0.14
  -9   2  -3    0.50    0.14
  10  -2   3    0.10    0.07
 -10  -2  -3    0.17    0.07
 -10   2  -3    0.11    0.06
  11  -2   3    0.02    0.06
 -11  -2  -3    0.02    0.06
 -11   2  -3    0.06    0.06
  10  -3  -3    1.15    0.15
 -10  -3   3    1.40    0.14
  10  -3  -3    0.95    0.13
 -10  -3   3    1.29    0.11
 -10   3   3    1.43    0.12
  10   3  -3    1.01    0.27
  -9  -3   3    1.33    0.13
   9  -3  -3    1.59    0.16
  -9  -3   3    1.75    0.15
   9  -3  -3    1.85    0.18
  -9   3   3    1.55    0.15
   9   3  -3    1.86    0.22
   8  -3  -3    0.87    0.16
   8  -3  -3    1.01    0.18
  -8  -3   3    1.22    0.17
   8  -3  -3    0.92    0.18
  -8  -3   3    0.83    0.15
   8   3  -3    1.13    0.21
  -7  -3   3   30.06    1.00
  -7  -3   3   29.76    1.00
   7  -3  -3   30.19    1.02
   7  -3  -3   30.74    1.02
   7  -3  -3   28.71    1.03
   7   3  -3   27.75    1.07
  -6  -3   3    4.69    0.26
   6  -3  -3    4.89    0.28
   6  -3  -3    4.99    0.27
  -6  -3   3    4.79    0.27
   6  -3  -3    4.89    0.30
   6  -3  -3    4.71    0.28
   6   3  -3    4.90    0.32
   5  -3  -3    2.36    0.22
  -5  -3   3    1.98    0.19
   5  -3  -3    1.61    0.19
   5  -3  -3    1.94    0.23
  -5  -3   3    2.51    0.19
  -4  -3   3    1.09    0.17
   4  -3  -3    1.26    0.19
   4  -3  -3    1.21    0.20
  -4  -3   3    1.14    0.18
   4  -3  -3    1.71    0.22
   4  -3  -3    1.29    0.25
   3  -3  -3    0.45    0.12
   3  -3  -3    0.50    0.14
   3  -3  -3    0.69    0.20
  -3  -3   3    0.54    0.15
   3  -3  -3    0.50    0.15
  -3  -3   3    0.42    0.11
   2  -3  -3   28.69    0.96
  -2  -3   3   26.79    0.94
   2  -3  -3   28.12    0.96
   2  -3  -3   28.14    0.96
  -2  -3   3   28.78    0.95
  -2   3   3   29.18    0.94
   1   3  -3    3.02    0.23
  -1   3   3    3.59    0.21
   0  -3  -3   52.44    1.69
   0   3  -3   49.62    1.69
   0   3   3   55.33    1.66
  -1  -3  -3    0.31    0.13
   1  -3   3    0.29    0.13
   1  -3   3    0.26    0.13
   1   3   3    0.42    0.12
   2  -3   3    0.11    0.11
  -2  -3  -3    0.12    0.10
   2  -3   3   -0.02    0.12
  -2  -3  -3    0.06    0.11
   2  -3   3    0.05    0.13
   3  -3   3    3.98    0.27
  -3  -3  -3    3.95    0.24
  -3  -3  -3    3.78    0.25
   3  -3   3    4.07    0.25
   3  -3   3    4.16    0.25
   4  -3   3    6.35    0.32
   4  -3   3    6.26    0.31
   4  -3   3    6.20    0.34
  -4  -3  -3    6.70    0.35
  -4  -3  -3    6.67    0.31
  -5  -3  -3    5.05    0.30
   5  -3   3    4.04    0.31
   5  -3   3    4.63    0.33
   5  -3   3    4.75    0.27
  -5  -3  -3    4.71    0.26
   5  -3   3    4.69    0.27
   6  -3   3    2.85    0.26
   6  -3   3    2.94    0.22
   6  -3   3    2.79    0.22
  -6  -3  -3    3.26    0.26
   6  -3   3    2.93    0.27
  -6  -3  -3    3.10    0.22
   7  -3   3    1.07    0.23
   7  -3   3    0.97    0.18
   7  -3   3    1.08    0.17
  -7  -3  -3    0.65    0.17
  -7  -3  -3    0.70    0.15
   8  -3   3   35.13    1.15
  -8  -3  -3   34.38    1.13
   8  -3   3   33.19    1.15
  -9  -3  -3    0.02    0.06
   9  -3   3    0.09    0.09
   9  -3   3    0.01    0.08
  -9   3  -3    0.10    0.07
  10  -3   3   -0.03    0.11
  10  -3   3    0.01    0.07
 -10  -3  -3    0.09    0.06
 -10   3  -3   -0.04    0.05
  -9  -4   3    0.24    0.08
  -9  -4   3    0.52    0.08
   9  -4  -3    0.34    0.10
  -9   4   3    0.48    0.11
   9   4  -3    0.49    0.19
   8  -4  -3    4.41    0.23
  -8  -4   3    4.72    0.21
   8  -4  -3    4.29    0.23
  -8  -4   3    4.66    0.22
   8  -4  -3    4.34    0.22
   8   4  -3    4.42    0.29
   7  -4  -3    1.93    0.19
  -7  -4   3    1.89    0.16
  -7  -4   3    2.20    0.16
   7  -4  -3    2.14    0.18
   7  -4  -3    1.80    0.17
   7   4  -3    1.71    0.22
   6  -4  -3   32.89    1.08
   6  -4  -3   32.36    1.08
  -6  -4   3   31.91    1.06
  -6  -4   3   32.17    1.06
   6  -4  -3   32.40    1.08
   6  -4  -3   30.45    1.05
   6   4  -3   30.06    1.13
  -5  -4   3    2.95    0.20
   5  -4  -3    3.17    0.23
   5  -4  -3    2.93    0.23
   5  -4  -3    3.21    0.23
   5  -4  -3    2.32    0.26
  -5  -4   3    2.92    0.21
   5   4  -3    3.09    0.26
  -4  -4   3   19.89    0.73
   4  -4  -3   20.34    0.76
  -4  -4   3   19.98    0.72
   4  -4  -3   20.20    0.73
   4  -4  -3   20.82    0.75
   4  -4  -3   20.27    0.74
   4   4  -3   22.04    0.80
   3  -4  -3   10.73    0.45
   3  -4  -3   10.63    0.45
  -3  -4   3   10.91    0.44
  -3  -4   3   10.45    0.43
   3  -4  -3   10.63    0.44
   3   4  -3   11.16    0.49
   2  -4  -3    9.42    0.41
   2  -4  -3    9.42    0.41
  -2  -4   3    9.27    0.39
   2  -4  -3    9.29    0.40
  -2  -4   3    9.86    0.40
   2   4  -3    9.33    0.45
   1  -4  -3   12.20    0.51
   1  -4  -3   12.02    0.49
   1  -4  -3   12.91    0.53
  -1  -4   3   12.77    0.50
  -1  -4   3   12.95    0.50
   1   4  -3   14.48    0.56
   0  -4   3    0.69    0.16
   0  -4   3    0.54    0.16
   0  -4  -3    0.76    0.18
   0  -4  -3    0.86    0.20
  -1  -4  -3    1.51    0.22
   1  -4   3    1.63    0.25
   1  -4   3    1.22    0.19
   1  -4   3    1.33    0.18
  -1  -4  -3    1.50    0.26
  -1  -4  -3    1.77    0.20
  -2  -4  -3    9.98    0.41
   2  -4   3    9.52    0.41
   2  -4   3    9.66    0.40
   2  -4   3    9.53    0.41
  -2  -4  -3    9.69    0.43
  -2  -4  -3   10.25    0.47
  -3  -4  -3   46.57    1.53
   3  -4   3   47.49    1.54
  -3  -4  -3   45.70    1.52
   3  -4   3   46.14    1.53
  -3  -4  -3   49.77    1.60
   3  -4   3   47.09    1.54
  -4  -4  -3    2.12    0.19
   4  -4   3    2.59    0.20
   4  -4   3    2.09    0.21
   4  -4   3    2.44    0.20
  -4  -4  -3    2.21    0.22
  -5  -4  -3    3.39    0.22
  -5  -4  -3    3.43    0.27
   5  -4   3    3.22    0.22
   5  -4   3    3.41    0.25
   5  -4   3    3.31    0.23
   6  -4   3    5.67    0.28
   6  -4   3    5.67    0.29
   6  -4   3    5.97    0.30
  -6  -4  -3    5.91    0.28
   7  -4   3    0.11    0.11
   7  -4   3    0.43    0.14
   7  -4   3   -0.03    0.07
  -7  -4  -3   -0.05    0.07
   8  -4   3    0.82    0.20
  -8  -4  -3    1.16    0.12
   8  -4   3    1.45    0.14
   9  -4   3    7.24    0.29
  -9  -4  -3    7.50    0.28
  -9   4  -3    7.64    0.28
   7  -5  -3    1.47    0.12
  -7  -5   3    1.67    0.13
   7  -5  -3    1.42    0.12
  -7  -5   3    1.63    0.11
   7   5  -3    1.51    0.21
  -6  -5   3    7.70    0.30
   6  -5  -3    7.82    0.31
   6  -5  -3    7.43    0.31
  -6  -5   3    7.94    0.31
   6   5  -3    7.98    0.38
   5  -5  -3    5.18    0.25
  -5  -5   3    4.82    0.23
  -5  -5   3    5.02    0.24
   5  -5  -3    5.11    0.24
   5  -5  -3    5.00    0.25
   5   5  -3    5.57    0.32
  -4  -5   3    1.46    0.14
   4  -5  -3    1.52    0.16
  -4  -5   3    1.41    0.15
   4  -5  -3    1.54    0.15
   4  -5  -3    1.59    0.16
   4   5  -3    1.56    0.24
   3  -5  -3   10.01    0.40
   3  -5  -3   10.19    0.41
  -3  -5   3   10.03    0.40
   3  -5  -3    9.05    0.40
  -3  -5   3    9.92    0.40
   3   5  -3    9.74    0.48
  -2  -5   3   12.32    0.48
   2  -5  -3   12.54    0.49
  -2  -5   3   12.09    0.48
   2  -5  -3   12.98    0.48
   1  -5  -3   19.46    0.68
  -1  -5   3   19.30    0.68
  -1  -5   3   19.10    0.69
   1  -5  -3   18.70    0.68
   0  -5  -3    2.16    0.21
   0  -5   3    2.10    0.19
   0  -5  -3    2.00    0.19
   0  -5   3    1.93    0.18
   1  -5   3    1.94    0.19
   1  -5   3    2.19    0.18
  -1  -5  -3    2.10    0.22
  -1  -5  -3    2.41    0.19
   2  -5   3   11.01    0.45
  -2  -5  -3   11.08    0.45
   2  -5   3   11.11    0.46
   2  -5   3   10.94    0.44
  -2  -5  -3   11.27    0.43
  -3  -5  -3   10.31    0.41
   3  -5   3   10.12    0.42
   3  -5   3   10.45    0.41
   3  -5   3   10.67    0.42
   4  -5   3    5.21    0.27
  -4  -5  -3    5.16    0.25
   4  -5   3    5.19    0.25
   4  -5   3    5.54    0.26
   5  -5   3    0.05    0.08
  -5  -5  -3    0.06    0.07
   5  -5   3    0.16    0.07
   5  -5   3    0.03    0.08
   6  -5   3    0.60    0.12
  -6  -5  -3    0.37    0.10
   6  -5   3    0.64    0.11
   7  -5   3    0.69    0.10
  -7  -5  -3    0.77    0.10
  -4  -6   3    1.25    0.10
   4  -6  -3    1.47    0.11
  -4  -6   3    1.26    0.11
  -3  -6   3    5.34    0.22
   3  -6  -3    5.56    0.23
  -3  -6   3    5.67    0.22
   3  -6  -3    5.29    0.23
   2  -6  -3    5.95    0.25
   2  -6  -3    6.41    0.26
  -2  -6   3    6.35    0.25
  -2  -6   3    6.10    0.25
   1  -6  -3   -0.02    0.07
   1  -6  -3   -0.03    0.07
  -1  -6   3    0.00    0.06
  -1  -6   3   -0.02    0.05
   0  -6  -3    2.61    0.17
   0  -6   3    2.42    0.15
   0  -6   3    2.66    0.16
   0  -6  -3    2.33    0.15
  -1  -6  -3    6.01    0.27
   1  -6   3    6.16    0.25
   1  -6   3    5.75    0.25
  -1  -6  -3    6.24    0.25
   2  -6   3    1.48    0.12
  -2  -6  -3    1.36    0.12
   2  -6   3    1.36    0.11
   3  -6   3    0.76    0.09
  -3  -6  -3    0.86    0.11
   3  -6   3    0.73    0.11
  -4  -6  -3    0.79    0.11
   4  -6   3    0.82    0.10
 -12   0   4    0.77    0.13
 -11   0   4    0.10    0.07
 -11   0   4   -0.01    0.07
 -10   0   4    7.02    0.30
  10   0  -4    6.31    0.34
 -10   0   4    6.54    0.30
  -9   0   4    0.08    0.09
   9   0  -4    0.11    0.13
  -9   0   4   -0.08    0.10
  -8   0   4   26.01    0.89
   8   0  -4   25.59    0.92
  -7   0   4    0.01    0.11
   7   0  -4   -0.08    0.14
  -6   0   4   23.83    0.84
   6   0  -4   23.66    0.87
   6   0  -4   25.93    0.87
   5   0  -4    0.00    0.14
   4   0  -4   45.30    1.46
  -1   0   4    0.09    0.02
   0   0   4 1000.00   30.36
   1   0   4    0.00    0.02
  -1   0  -4    0.00    0.02
  -2   0  -4    6.28    0.22
   2   0   4    6.34    0.22
   3   0   4    0.01    0.04
  -3   0  -4   -0.02    0.03
  -4   0  -4    6.44    0.25
  -4   0  -4    6.24    0.29
  -5   0  -4    0.10    0.13
  -5   0  -4    0.14    0.09
  -6   0  -4   12.61    0.50
  -6   0  -4   12.64    0.51
  -7   0  -4    0.06    0.10
   7   0   4   -0.05    0.12
   8   0   4   25.00    0.91
  -8   0  -4   26.00    0.88
  -9   0  -4    0.01    0.09
   9   0   4   -0.05    0.10
 -10   0  -4    1.01    0.13
  10   0   4    0.87    0.16
  11   0   4   -0.05    0.08
 -11   0  -4   -0.10    0.06
 -11  -1   4    6.67    0.27
 -11  -1   4    6.23    0.26
  11  -1  -4    6.52    0.29
 -11   1   4    6.70    0.27
 -11   1   4    6.44    0.27
 -10  -1   4    6.94    0.31
 -10  -1   4    8.03    0.32
  10  -1  -4    7.02    0.34
 -10   1   4    7.27    0.32
 -10   1   4    7.15    0.31
  -9  -1   4   15.06    0.56
  -9  -1   4   14.82    0.55
   9  -1  -4   15.25    0.59
  -9   1   4   14.33    0.55
   8  -1  -4   56.06    1.83
   8  -1  -4   56.51    1.86
  -8  -1   4   57.71    1.82
  -8  -1   4   55.71    1.82
   8   1  -4   58.08    1.88
  -8   1   4   57.23    1.82
   7  -1  -4   12.50    0.50
   7  -1  -4   12.31    0.52
   7  -1  -4   13.44    0.53
  -7  -1   4   12.49    0.49
  -7  -1   4   12.38    0.49
  -7   1   4   12.09    0.49
   7   1  -4   13.35    0.54
   6  -1  -4    7.81    0.39
  -6  -1   4    7.56    0.36
  -6  -1   4    7.74    0.35
   6  -1  -4    8.09    0.39
   6  -1  -4    8.67    0.36
   6   1  -4    7.79    0.38
   5   1  -4   38.07    1.33
   5   1  -4   46.33    1.40
   4   1  -4    9.47    0.33
   4   1  -4    9.90    0.40
   4   1  -4    9.82    0.33
   3   1  -4   20.82    0.73
   3   1  -4   22.58    0.68
   3   1  -4   20.99    0.67
   2   1  -4   34.24    1.06
  -1  -1   4    2.97    0.12
  -1   1   4    2.98    0.10
   1   1  -4    2.82    0.12
  -1   1   4    3.02    0.10
   0  -1   4  886.05   27.08
   0   1  -4  865.41   27.08
   0   1   4  918.54   27.04
  -1  -1  -4   38.33    1.18
   1  -1   4   39.17    1.19
   1   1   4   37.33    1.18
  -1   1  -4   37.58    1.18
  -2  -1  -4   73.40    2.37
   2  -1   4   76.18    2.34
  -2  -1  -4   74.02    2.33
  -2   1  -4   78.12    2.34
   2   1   4   77.88    2.33
  -3  -1  -4    6.25    0.25
   3  -1   4    6.91    0.27
  -3  -1  -4    7.03    0.29
  -3   1  -4    6.37    0.25
   3   1   4    7.33    0.26
  -4  -1  -4   62.42    2.00
  -4  -1  -4   65.43    1.97
  -4   1  -4   60.96    1.96
  -5  -1  -4   12.73    0.50
   6  -1   4    4.89    0.32
  -6  -1  -4    4.95    0.29
   6  -1   4    5.24    0.31
  -6  -1  -4    5.53    0.30
   7  -1   4    0.08    0.10
  -7  -1  -4   -0.07    0.15
   7  -1   4    0.02    0.14
  -7  -1  -4   -0.13    0.11
  -7   1  -4   -0.18    0.10
   7   1   4   -0.02    0.14
   8  -1   4    0.13    0.11
  -8  -1  -4    0.07    0.10
  -8  -1  -4    0.13    0.21
   8   1   4    0.04    0.11
  -8   1  -4    0.12    0.10
   9  -1   4   20.10    0.75
  -9  -1  -4   20.15    0.71
   9   1   4   20.43    0.75
  -9   1  -4   20.34    0.71
  10  -1   4    1.53    0.17
 -10  -1  -4    1.71    0.14
 -10   1  -4    1.87    0.16
  10   1   4    1.60    0.21
 -11  -1  -4    0.55    0.10
  11  -1   4    0.48    0.12
 -11   1  -4    0.73    0.10
  11  -2  -4    0.95    0.13
 -11  -2   4    0.73    0.11
 -11   2   4    0.75    0.13
 -11   2   4    0.95    0.11
 -10  -2   4    3.67    0.20
  10  -2  -4    3.59    0.22
 -10  -2   4    3.55    0.19
 -10   2   4    3.41    0.19
   9  -2  -4   18.42    0.64
  -9  -2   4   17.44    0.62
  -9  -2   4   16.90    0.62
   9  -2  -4   17.63    0.66
  -9   2   4   17.90    0.62
   9   2  -4   15.35    0.68
   8  -2  -4    4.42    0.29
   8  -2  -4    4.56    0.28
   8  -2  -4    4.42    0.26
  -8  -2   4    4.43    0.25
  -8  -2   4    4.23    0.25
   8   2  -4    4.41    0.31
  -8   2   4    4.79    0.26
   7  -2  -4    7.80    0.36
  -7  -2   4    7.89    0.35
   7  -2  -4    7.26    0.38
  -7  -2   4    7.62    0.35
   7  -2  -4    8.19    0.38
   7   2  -4    8.13    0.42
   6  -2  -4    3.55    0.26
   6  -2  -4    3.57    0.25
   6  -2  -4    3.26    0.26
  -6  -2   4    3.56    0.24
  -6  -2   4    3.56    0.24
   6   2  -4    3.35    0.27
   5  -2  -4   17.94    0.66
   5  -2  -4   18.52    0.65
  -5  -2   4   17.39    0.63
   5  -2  -4   17.90    0.65
   5  -2  -4   17.05    0.65
  -5  -2   4   16.98    0.63
   5   2  -4   18.20    0.68
   4  -2  -4    3.40    0.24
   4  -2  -4    2.88    0.26
   4  -2  -4    3.20    0.24
  -4  -2   4    2.89    0.22
   4   2  -4    3.42    0.22
   4   2  -4    2.97    0.20
  -3   2   4   34.26    1.05
  -3   2   4   33.67    1.05
   3   2  -4   33.84    1.07
   3   2  -4   33.85    1.13
   3   2  -4   33.29    1.09
  -2   2   4   23.63    0.73
   2   2  -4   23.21    0.80
  -2   2   4   22.45    0.73
   2   2  -4   23.61    0.75
   1   2  -4    7.29    0.32
  -1   2   4    7.03    0.25
   1   2  -4    7.20    0.27
  -1   2   4    6.69    0.25
   0  -2  -4    6.91    0.31
   0  -2   4    7.02    0.28
   0   2   4    7.49    0.27
   0   2  -4    7.61    0.33
   0   2   4    8.12    0.27
   0   2  -4    7.99    0.28
   1  -2   4    5.58    0.23
  -1  -2  -4    5.48    0.26
  -1   2  -4    5.51    0.23
   1   2   4    5.38    0.22
  -2  -2  -4   61.28    1.92
   2   2   4   56.80    1.88
  -2   2  -4   62.55    1.88
  -3  -2  -4   36.21    1.23
  -3   2  -4   38.30    1.20
  -4  -2  -4    6.92    0.32
   4  -2   4    6.25    0.31
   4  -2   4    6.73    0.33
   5  -2   4   15.52    0.57
  -5  -2  -4   15.44    0.57
   5  -2   4   14.54    0.57
  -5  -2  -4   15.56    0.60
   5  -2   4   15.44    0.59
   6  -2   4   34.00    1.18
  -6  -2  -4   35.79    1.16
   6  -2   4   34.45    1.17
  -6  -2  -4   35.61    1.22
   7  -2   4   22.26    0.80
  -7  -2  -4   23.32    0.86
   7  -2   4   22.38    0.82
  -7  -2  -4   22.72    0.79
   8  -2   4    0.80    0.19
   8  -2   4    0.85    0.19
  -8  -2  -4    1.09    0.16
  -8  -2  -4    0.84    0.19
  -8   2  -4    0.93    0.17
  -9  -2  -4    2.85    0.19
   9  -2   4    3.16    0.23
   9  -2   4    2.61    0.20
  -9   2  -4    2.97    0.20
 -10  -2  -4    0.50    0.11
 -10   2  -4    0.61    0.10
 -11  -2  -4    3.71    0.17
  11  -2   4    3.49    0.18
 -11   2  -4    3.53    0.17
 -10  -3   4    0.09    0.06
  10  -3  -4    0.21    0.09
  10  -3  -4    0.11    0.07
 -10  -3   4    0.14    0.06
 -10   3   4    0.23    0.08
   9  -3  -4    0.63    0.14
   9  -3  -4    0.88    0.14
  -9  -3   4    0.62    0.11
  -9  -3   4    0.57    0.11
  -9   3   4    0.91    0.14
   9   3  -4    0.57    0.19
   8  -3  -4    1.61    0.19
   8  -3  -4    1.57    0.18
  -8  -3   4    1.80    0.17
  -8  -3   4    2.12    0.18
   8  -3  -4    1.64    0.19
  -8   3   4    1.78    0.19
   8   3  -4    1.40    0.21
  -7  -3   4    1.01    0.16
   7  -3  -4    0.99    0.18
   7  -3  -4    1.03    0.18
   7  -3  -4    1.39    0.19
  -7  -3   4    1.44    0.17
   7   3  -4    1.13    0.21
   6  -3  -4    6.29    0.32
  -6  -3   4    6.46    0.31
   6  -3  -4    5.86    0.32
  -6  -3   4    6.36    0.31
   6  -3  -4    6.36    0.34
   6   3  -4    6.45    0.37
   5  -3  -4    1.18    0.21
  -5  -3   4    1.06    0.16
  -5  -3   4    1.34    0.17
   5  -3  -4    0.81    0.20
   5  -3  -4    1.12    0.19
   5  -3  -4    1.26    0.18
   5   3  -4    1.25    0.20
   4  -3  -4    5.77    0.30
  -4  -3   4    5.81    0.29
   4  -3  -4    5.57    0.32
   4  -3  -4    5.56    0.30
   4  -3  -4    5.77    0.32
  -4  -3   4    6.00    0.29
   4   3  -4    6.13    0.34
  -3  -3   4    1.81    0.19
   3  -3  -4    1.22    0.20
   3  -3  -4    2.08    0.20
   3  -3  -4    1.65    0.25
   3  -3  -4    2.09    0.27
  -3  -3   4    1.66    0.19
   3   3  -4    1.94    0.20
   2  -3  -4   47.67    1.57
  -2  -3   4   49.48    1.56
  -2  -3   4   49.69    1.56
   2  -3  -4   50.14    1.57
   2  -3  -4   48.78    1.57
   2  -3  -4   48.27    1.59
   2   3  -4   46.77    1.59
  -1  -3   4    0.20    0.10
   1  -3  -4    0.14    0.21
   1  -3  -4    0.16    0.16
  -1  -3   4    0.19    0.13
  -1   3   4    0.14    0.12
   1   3  -4    0.13    0.13
   0  -3   4    6.77    0.33
   0  -3  -4    7.14    0.33
   0   3   4    7.05    0.31
   0   3  -4    6.41    0.34
   1  -3   4   -0.08    0.14
   1  -3   4   -0.02    0.11
   1  -3   4   -0.11    0.12
  -1  -3  -4   -0.08    0.10
   2  -3   4    0.35    0.13
   2  -3   4    0.14    0.12
  -2  -3  -4    0.27    0.12
  -2  -3  -4    0.42    0.14
   2  -3   4    0.29    0.15
  -3  -3  -4   52.90    1.67
   3  -3   4   51.46    1.67
   3  -3   4   53.06    1.67
  -3  -3  -4   53.46    1.72
   3  -3   4   49.45    1.67
  -4  -3  -4    7.95    0.35
   4  -3   4    7.62    0.38
   4  -3   4    7.83    0.36
   4  -3   4    7.66    0.36
  -4  -3  -4    8.19    0.39
   5  -3   4    0.70    0.18
  -5  -3  -4    0.47    0.12
   5  -3   4    0.33    0.11
   5  -3   4    0.87    0.26
   5  -3   4    0.58    0.17
  -5  -3  -4    0.66    0.18
   6  -3   4   33.65    1.15
  -6  -3  -4   32.74    1.21
  -6  -3  -4   35.60    1.15
   6  -3   4   35.15    1.17
   6  -3   4   35.11    1.16
   7  -3   4    4.51    0.26
  -7  -3  -4    4.33    0.24
  -7  -3  -4    4.22    0.29
   7  -3   4    4.13    0.28
   8  -3   4    2.52    0.20
   8  -3   4    2.10    0.18
  -8  -3  -4    2.33    0.17
  -8  -3  -4    2.03    0.22
  -9  -3  -4    0.55    0.11
   9  -3   4    0.54    0.14
  -9   3  -4    0.51    0.11
 -10  -3  -4    1.82    0.13
  10  -3   4    1.78    0.20
  10  -3   4    1.98    0.15
 -10   3  -4    1.95    0.12
  -9  -4   4    0.22    0.06
  -9  -4   4    0.35    0.11
   9  -4  -4    0.17    0.06
   9  -4  -4    0.35    0.11
  -9   4   4    0.33    0.10
  -8  -4   4   -0.01    0.06
  -8  -4   4    0.03    0.07
   8  -4  -4   -0.03    0.07
   8  -4  -4   -0.03    0.06
   8  -4  -4   -0.04    0.07
  -8   4   4   -0.07    0.08
   8   4  -4    0.14    0.13
   7  -4  -4   -0.05    0.07
  -7  -4   4   -0.01    0.07
   7  -4  -4    0.01    0.09
  -7  -4   4    0.06    0.06
   7  -4  -4   -0.10    0.07
   7   4  -4    0.00    0.13
  -6  -4   4    6.95    0.31
   6  -4  -4    6.84    0.34
  -6  -4   4    7.05    0.31
   6  -4  -4    7.10    0.33
   6  -4  -4    7.16    0.33
   6   4  -4    6.53    0.37
   5  -4  -4    8.94    0.38
   5  -4  -4    8.37    0.39
   5  -4  -4    8.65    0.38
   5  -4  -4    8.71    0.39
  -5  -4   4    8.58    0.37
  -5  -4   4    8.94    0.37
   5   4  -4    7.73    0.42
  -4  -4   4   22.37    0.78
  -4  -4   4   22.40    0.77
   4  -4  -4   22.32    0.80
   4  -4  -4   22.34    0.79
   4  -4  -4   22.01    0.79
   4  -4  -4   21.80    0.77
   4   4  -4   21.42    0.83
   3  -4  -4    2.17    0.22
   3  -4  -4    1.83    0.29
  -3  -4   4    2.11    0.19
  -3  -4   4    2.02    0.19
   3  -4  -4    1.92    0.21
   3  -4  -4    1.81    0.21
   3   4  -4    2.06    0.24
   2  -4  -4    1.36    0.20
  -2  -4   4    1.31    0.18
   2  -4  -4    1.48    0.20
   2  -4  -4    1.31    0.20
  -2  -4   4    1.22    0.18
   2   4  -4    1.20    0.21
  -1  -4   4    0.18    0.10
   1  -4  -4    0.34    0.12
  -1  -4   4    0.24    0.10
   1  -4  -4    0.11    0.11
   1  -4  -4    0.10    0.14
   1   4  -4    0.20    0.17
   0  -4   4   11.16    0.46
   0  -4   4   11.58    0.46
   0  -4  -4   11.73    0.46
   0  -4  -4   11.24    0.48
   1  -4   4    0.68    0.12
  -1  -4  -4    0.55    0.15
   1  -4   4    0.67    0.18
   1  -4   4    0.72    0.16
  -1  -4  -4    0.81    0.25
  -1  -4  -4    0.68    0.14
   2  -4   4    6.73    0.34
  -2  -4  -4    6.50    0.33
   2  -4   4    7.08    0.32
  -2  -4  -4    6.67    0.37
   2  -4   4    6.42    0.32
  -2  -4  -4    7.04    0.38
  -3  -4  -4   12.18    0.53
   3  -4   4   11.92    0.47
   3  -4   4   11.83    0.48
   3  -4   4   11.40    0.47
  -3  -4  -4   11.91    0.47
   4  -4   4    1.46    0.20
   4  -4   4    1.73    0.19
  -4  -4  -4    1.58    0.18
   4  -4   4    1.73    0.19
  -4  -4  -4    1.73    0.23
   5  -4   4   13.64    0.52
   5  -4   4   13.80    0.51
  -5  -4  -4   13.82    0.51
  -5  -4  -4   12.28    0.56
   5  -4   4   13.59    0.52
  -6  -4  -4    0.11    0.14
   6  -4   4    0.17    0.09
   6  -4   4    0.06    0.11
  -7  -4  -4   10.50    0.40
   7  -4   4   10.60    0.42
   8  -4   4    8.39    0.34
  -8  -4  -4    8.67    0.32
  -8   4  -4    8.58    0.33
  -9  -4  -4    0.18    0.08
   9  -4   4    0.22    0.07
  -9   4  -4    0.21    0.07
   7  -5  -4    0.55    0.09
   7  -5  -4    0.57    0.09
  -7  -5   4    0.44    0.10
  -7  -5   4    0.58    0.09
  -7   5   4    0.52    0.14
   6  -5  -4    0.09    0.07
  -6  -5   4    0.18    0.06
  -6  -5   4    0.07    0.06
   6  -5  -4    0.05    0.06
   6   5  -4    0.19    0.16
  -5  -5   4    0.93    0.12
   5  -5  -4    0.92    0.13
  -5  -5   4    1.06    0.12
   5  -5  -4    0.86    0.12
   5   5  -4    0.76    0.20
   4  -5  -4    5.40    0.26
   4  -5  -4    5.54    0.26
   4  -5  -4    5.36    0.26
  -4  -5   4    5.26    0.25
  -4  -5   4    5.23    0.25
   4   5  -4    5.53    0.33
   3  -5  -4    0.77    0.14
  -3  -5   4    0.47    0.13
  -3  -5   4    0.70    0.14
   3  -5  -4    0.57    0.15
   3  -5  -4    0.51    0.11
   3   5  -4    0.62    0.23
  -2  -5   4    0.30    0.10
   2  -5  -4    0.51    0.12
   2  -5  -4    0.59    0.16
   2  -5  -4    0.03    0.11
  -2  -5   4    0.18    0.09
  -1  -5   4   14.37    0.55
   1  -5  -4   14.63    0.54
  -1  -5   4   15.12    0.55
   1  -5  -4   14.54    0.55
   0  -5  -4    4.96    0.27
   0  -5   4    4.88    0.26
   0  -5   4    4.80    0.25
   1  -5   4    0.49    0.14
  -1  -5  -4    0.07    0.09
   1  -5   4    0.26    0.09
  -1  -5  -4    0.63    0.20
  -2  -5  -4    0.01    0.13
   2  -5   4    0.01    0.12
   2  -5   4    0.12    0.09
  -2  -5  -4    0.10    0.09
   2  -5   4    0.05    0.08
   3  -5   4    2.29    0.17
   3  -5   4    2.17    0.16
   3  -5   4    1.98    0.19
  -3  -5  -4    2.17    0.17
   4  -5   4    0.18    0.09
   4  -5   4    0.11    0.08
   4  -5   4    0.02    0.08
  -4  -5  -4    0.24    0.09
  -5  -5  -4    1.31    0.13
   5  -5   4    1.28    0.14
   5  -5   4    1.36    0.12
   5  -5   4    1.14    0.14
   6  -5   4    1.05    0.11
  -6  -5  -4    0.83    0.12
   6  -5   4    0.74    0.16
   7  -5   4    1.09    0.10
  -4  -6   4    0.48    0.09
  -4  -6   4    0.70    0.09
   4  -6  -4    0.45    0.10
  -3  -6   4   12.03    0.41
  -3  -6   4   11.99    0.41
   3  -6  -4   11.30    0.41
   2  -6  -4    0.55    0.13
   2  -6  -4    0.41    0.12
  -2  -6   4    0.62    0.09
  -2  -6   4    0.68    0.09
   1  -6  -4    0.03    0.08
   1  -6  -4   -0.05    0.08
  -1  -6   4   -0.02    0.06
  -1  -6   4    0.00    0.06
   0  -6   4    4.40    0.20
   0  -6  -4    4.55    0.23
   0  -6   4    4.32    0.20
   0  -6  -4    4.29    0.20
   1  -6   4    3.80    0.18
   1  -6   4    3.59    0.18
  -1  -6  -4    3.69    0.19
   2  -6   4   -0.04    0.06
   2  -6   4   -0.07    0.06
  -2  -6  -4    0.09    0.08
   3  -6   4    0.66    0.11
   3  -6   4    0.96    0.09
 -11   0   5    2.09    0.14
 -11   0   5    1.70    0.15
  10   0  -5   -0.04    0.14
 -10   0   5    0.01    0.07
 -10   0   5   -0.07    0.08
   9   0  -5    3.73    0.28
  -9   0   5    3.68    0.24
  -9   0   5    3.66    0.23
   8   0  -5   -0.21    0.14
  -8   0   5   -0.03    0.09
  -8   0   5   -0.10    0.12
   7   0  -5   34.10    1.15
  -7   0   5   33.69    1.13
   6   0  -5   -0.18    0.14
  -6   0   5    0.90    0.24
   6   0  -5   -0.24    0.15
   5   0  -5   58.36    1.87
   4   0  -5    0.08    0.09
   3   0  -5  120.17    3.71
  -1   0   5  210.46    6.17
   1   0  -5  194.96    6.16
   0   0  -5    0.00    0.02
   0   0   5   -0.01    0.02
   1   0   5    1.70    0.09
  -1   0  -5    1.75    0.08
   2   0   5    0.01    0.04
  -2   0  -5   -0.02    0.03
  -2   0  -5    0.05    0.08
  -3   0  -5   12.29    0.44
   3   0   5   11.79    0.41
  -3   0  -5   10.90    0.40
  -4   0  -5   -0.01    0.10
  -4   0  -5    0.03    0.07
  -5   0  -5    4.48    0.26
  -6   0  -5    0.04    0.13
  -6   0  -5   -0.01    0.13
  -7   0  -5    0.08    0.11
   7   0   5    0.12    0.12
  -8   0  -5   -0.04    0.10
   8   0   5    0.02    0.09
  -9   0  -5    5.04    0.27
   9   0   5    5.71    0.32
  10   0   5   -0.06    0.08
 -10   0  -5   -0.12    0.08
  11   0   5    0.06    0.07
 -11   0  -5    0.06    0.07
  11  -1  -5    0.70    0.14
 -11  -1   5    0.40    0.10
 -11  -1   5    0.29    0.08
 -11   1   5    0.42    0.11
 -11   1   5    0.64    0.13
 -10  -1   5    0.53    0.14
  10  -1  -5    0.42    0.10
 -10  -1   5    0.48    0.12
 -10   1   5    0.53    0.13
 -10   1   5    0.76    0.16
   9  -1  -5    1.05    0.20
  -9  -1   5    1.11    0.16
  -9  -1   5    1.35    0.16
  -9   1   5    1.27    0.19
   8  -1  -5   23.36    0.85
   8  -1  -5   24.52    0.87
  -8  -1   5   23.25    0.82
  -8  -1   5   24.10    0.83
  -8   1   5   22.86    0.82
   8   1  -5   25.68    0.90
  -7  -1   5   22.71    0.82
   7  -1  -5   24.05    0.85
  -7  -1   5   23.46    0.82
   7  -1  -5   24.23    0.84
  -7   1   5   23.12    0.83
   7   1  -5   24.73    0.88
  -6  -1   5    0.93    0.16
  -6  -1   5    0.76    0.23
   6  -1  -5    0.84    0.15
   6  -1  -5    0.96    0.18
   6  -1  -5    0.96    0.23
   6   1  -5    0.75    0.18
  -6   1   5    0.80    0.17
  -5  -1   5    1.96    0.20
   5  -1  -5    1.42    0.23
   5  -1  -5    2.07    0.21
   5   1  -5    1.84    0.18
   4   1  -5    0.74    0.08
   4   1  -5    0.70    0.14
   3   1  -5    0.18    0.10
   3   1  -5    0.12    0.04
   3   1  -5    0.14    0.04
   2   1  -5   25.98    0.80
   2   1  -5   25.01    0.86
  -1  -1   5   39.68    1.18
  -1   1   5   38.73    1.16
  -1   1   5   38.84    1.16
   1   1  -5   37.32    1.18
   1   1  -5   35.60    1.22
   0  -1   5   25.69    0.79
   0  -1  -5   24.61    0.78
   0   1  -5   24.49    0.79
   0   1   5   25.99    0.78
  -1  -1  -5   78.00    2.38
  -1  -1  -5   73.78    2.34
   1  -1   5   76.30    2.34
  -1   1  -5   75.31    2.34
   1   1   5   77.35    2.33
  -2  -1  -5    0.10    0.04
  -2  -1  -5    0.07    0.08
   2  -1   5    0.02    0.06
  -2   1  -5    0.10    0.04
   2   1   5    0.06    0.05
  -3  -1  -5    4.33    0.19
  -3  -1  -5    4.27    0.22
  -3   1  -5    3.29    0.24
  -4  -1  -5    0.16    0.09
  -4  -1  -5    0.03    0.09
  -4   1  -5   -0.09    0.09
  -5  -1  -5   12.43    0.49
  -5  -1  -5   11.94    0.50
   5  -1   5   12.29    0.49
  -6  -1  -5    0.96    0.20
   6  -1   5    1.00    0.20
  -6  -1  -5    0.96    0.17
   6  -1   5    1.32    0.22
  -6   1  -5    0.95    0.22
  -7  -1  -5   11.14    0.49
   7  -1   5   10.68    0.46
   7  -1   5   10.21    0.47
  -7  -1  -5   10.94    0.44
  -7   1  -5   11.00    0.44
   8  -1   5    4.59    0.28
   8  -1   5    4.10    0.32
  -8  -1  -5    4.01    0.32
  -8  -1  -5    4.36    0.25
   8   1   5    3.92    0.28
  -8   1  -5    4.28    0.25
   9  -1   5    3.34    0.24
  -9  -1  -5    2.89    0.21
  -9   1  -5    3.50    0.21
   9   1   5    3.05    0.26
 -10  -1  -5    0.26    0.08
  10  -1   5    0.26    0.08
  10   1   5    0.24    0.11
 -10   1  -5    0.42    0.11
 -11  -1  -5    2.30    0.15
  11  -1   5    1.95    0.14
 -11   1  -5    2.13    0.14
 -11  -2   5    0.13    0.08
  11  -2  -5    0.10    0.06
 -11  -2   5    0.11    0.07
 -11   2   5    0.17    0.07
  10  -2  -5    0.04    0.07
 -10  -2   5    0.07    0.08
 -10  -2   5    0.17    0.07
 -10   2   5   -0.06    0.09
  -9  -2   5    1.00    0.15
   9  -2  -5    1.30    0.18
   9  -2  -5    0.95    0.17
  -9  -2   5    0.89    0.14
   9   2  -5    1.12    0.22
  -9   2   5    1.07    0.15
   8  -2  -5   32.98    1.08
  -8  -2   5   32.69    1.06
   8  -2  -5   32.95    1.10
  -8  -2   5   30.97    1.07
   8   2  -5   29.56    1.13
  -8   2   5   31.87    1.06
  -7  -2   5    0.25    0.11
   7  -2  -5    0.09    0.10
   7  -2  -5    0.00    0.11
   7  -2  -5    0.06    0.11
  -7  -2   5    0.10    0.09
   7   2  -5    0.24    0.15
  -7   2   5    0.15    0.14
  -6  -2   5    0.39    0.11
  -6  -2   5    0.64    0.14
   6  -2  -5    0.64    0.13
   6  -2  -5    0.52    0.12
   6  -2  -5    0.67    0.20
   6   2  -5    0.63    0.18
  -5  -2   5   11.13    0.49
  -5  -2   5   12.21    0.47
   5  -2  -5   12.49    0.51
   5  -2  -5   12.36    0.48
   5  -2  -5   12.82    0.50
   5   2  -5   12.73    0.53
  -4  -2   5   18.28    0.65
   4  -2  -5   18.51    0.66
   4  -2  -5   17.80    0.66
   4  -2  -5   18.90    0.68
   4   2  -5   18.67    0.69
   3   2  -5   33.38    0.99
   3   2  -5   27.83    1.04
   2   2  -5    0.06    0.07
  -2   2   5   -0.02    0.05
   2   2  -5   -0.02    0.08
  -2   2   5    0.07    0.05
   1  -2  -5   61.76    2.02
  -1   2   5   65.50    1.97
   1   2  -5   65.40    2.04
  -1   2   5   63.11    1.97
   1   2  -5   64.72    1.99
   0  -2   5   -0.04    0.07
   0  -2  -5   -0.07    0.09
   0   2   5   -0.02    0.05
   0   2  -5    0.03    0.06
   0   2  -5    0.02    0.09
   0   2   5    0.02    0.06
  -1  -2  -5   27.21    0.88
   1   2   5   26.95    0.85
  -1   2  -5   25.30    0.87
  -1   2  -5   24.98    0.85
  -2  -2  -5    6.68    0.30
  -2   2  -5    6.65    0.28
   3  -2   5   13.61    0.51
  -3  -2  -5   13.60    0.52
  -4  -2  -5   23.17    0.81
   4  -2   5   22.42    0.79
  -4  -2  -5   20.83    0.79
  -4  -2  -5   22.90    0.79
   4  -2   5   22.82    0.78
   4  -2   5   22.64    0.80
   5  -2   5   18.16    0.66
  -5  -2  -5   18.31    0.64
  -5  -2  -5   16.81    0.67
   5  -2   5   17.41    0.64
  -6  -2  -5   56.07    1.82
   6  -2   5   51.61    1.76
  -6  -2  -5   55.87    1.75
   6  -2   5   54.27    1.76
   7  -2   5   13.16    0.54
   7  -2   5   13.50    0.52
  -7  -2  -5   14.45    0.52
  -7  -2  -5   12.32    0.57
   7   2   5   12.81    0.57
  -8  -2  -5   31.87    1.17
  -8  -2  -5   33.83    1.10
   8  -2   5   34.15    1.12
   8  -2   5   33.36    1.14
   8   2   5   32.13    1.13
  -8   2  -5   34.29    1.11
   9  -2   5    0.14    0.12
  -9  -2  -5    0.20    0.08
   9  -2   5    0.14    0.08
  -9   2  -5    0.12    0.08
 -10  -2  -5    0.09    0.08
  10  -2   5    0.00    0.07
 -10   2  -5    0.18    0.07
  10  -3  -5    0.03    0.06
 -10  -3   5    0.06    0.05
 -10  -3   5   -0.06    0.07
  10  -3  -5   -0.06    0.09
   9  -3  -5    4.11    0.22
   9  -3  -5    4.25    0.23
  -9  -3   5    4.14    0.21
  -9  -3   5    4.27    0.21
  -9   3   5    4.26    0.22
   9   3  -5    4.35    0.28
   8  -3  -5    0.75    0.14
  -8  -3   5    0.68    0.13
   8  -3  -5    0.84    0.15
   8  -3  -5    0.91    0.14
  -8  -3   5    0.90    0.13
   8   3  -5    1.14    0.19
  -8   3   5    0.73    0.16
  -7  -3   5    8.42    0.36
   7  -3  -5    8.68    0.38
   7  -3  -5    8.76    0.40
   7  -3  -5    8.84    0.39
  -7  -3   5    8.36    0.36
   7   3  -5    7.75    0.42
   6  -3  -5   13.76    0.53
   6  -3  -5   12.69    0.54
  -6  -3   5   13.68    0.52
   6  -3  -5   13.78    0.54
  -6  -3   5   13.47    0.52
   6   3  -5   13.60    0.59
   5  -3  -5   12.83    0.53
   5  -3  -5   12.84    0.51
  -5  -3   5   12.41    0.50
   5  -3  -5   12.33    0.51
   5  -3  -5   12.52    0.51
  -5  -3   5   12.58    0.49
   5   3  -5   14.12    0.57
  -4  -3   5    6.21    0.30
   4  -3  -5    6.30    0.35
   4  -3  -5    6.47    0.32
   4  -3  -5    6.32    0.34
  -4  -3   5    6.40    0.31
   4  -3  -5    5.92    0.31
   4   3  -5    6.21    0.35
  -3  -3   5   20.16    0.75
   3  -3  -5   21.85    0.76
  -3  -3   5   21.51    0.75
   3  -3  -5   22.17    0.78
   3  -3  -5   20.53    0.77
   3  -3  -5   21.63    0.76
   3   3  -5   22.98    0.80
   2  -3  -5    3.97    0.28
  -2  -3   5    3.84    0.23
   2  -3  -5    4.30    0.29
   2  -3  -5    4.21    0.26
  -2  -3   5    4.13    0.26
   2   3  -5    4.08    0.26
   1  -3  -5    8.17    0.41
   1  -3  -5    8.47    0.39
  -1  -3   5    7.05    0.37
  -1  -3   5    7.89    0.35
   1  -3  -5    8.72    0.39
   1   3  -5    8.45    0.38
   0  -3  -5    0.49    0.16
   0  -3  -5    0.50    0.18
   0  -3   5    0.64    0.15
   0  -3   5    0.00    0.18
   0  -3  -5    0.30    0.15
   0  -3   5    0.19    0.13
   0   3   5    0.31    0.16
   0   3  -5    0.35    0.15
  -1  -3  -5    7.74    0.36
   1  -3   5    7.74    0.36
   1  -3   5    7.11    0.36
   1  -3   5    7.08    0.36
   2  -3   5    1.83    0.22
   2  -3   5    1.94    0.26
   2  -3   5    1.82    0.20
  -2  -3  -5    1.69    0.18
  -2  -3  -5    2.23    0.25
   3  -3   5    8.58    0.42
   3  -3   5    9.20    0.39
   3  -3   5    9.37    0.40
  -3  -3  -5    9.19    0.42
  -3  -3  -5    9.24    0.40
  -4  -3  -5    1.77    0.20
   4  -3   5    1.30    0.27
   4  -3   5    1.42    0.20
  -4  -3  -5    1.72    0.22
   4  -3   5    1.75    0.19
   5  -3   5    2.14    0.20
  -5  -3  -5    2.03    0.21
  -5  -3  -5    2.37    0.23
   5  -3   5    2.14    0.28
   5  -3   5    2.02    0.21
  -6  -3  -5   32.05    1.19
   6  -3   5   34.31    1.13
   6  -3   5   33.52    1.14
  -6  -3  -5   34.41    1.12
  -7  -3  -5   26.33    0.87
  -7  -3  -5   24.10    0.94
   7  -3   5   26.17    0.89
   7  -3   5   25.56    0.89
  -8  -3  -5   14.83    0.62
   8  -3   5   15.77    0.57
  -8  -3  -5   16.00    0.55
   8  -3   5   15.17    0.58
  -8   3  -5   16.04    0.56
   9  -3   5    0.09    0.09
  -9  -3  -5   -0.06    0.07
   9  -3   5    0.09    0.08
  -9   3  -5    0.09    0.07
  10  -3   5    1.06    0.13
 -10   3  -5    0.93    0.12
  -9  -4   5   -0.02    0.06
  -9  -4   5    0.14    0.08
   9  -4  -5    0.02    0.06
   9  -4  -5    0.01    0.06
   8  -4  -5    3.40    0.19
   8  -4  -5    3.50    0.19
  -8  -4   5    3.49    0.17
   8  -4  -5    3.66    0.18
  -8  -4   5    3.52    0.18
  -8   4   5    3.31    0.21
   8   4  -5    3.30    0.25
  -7  -4   5    2.67    0.17
   7  -4  -5    3.03    0.19
   7  -4  -5    2.74    0.19
  -7  -4   5    2.98    0.17
   7  -4  -5    3.01    0.20
   7   4  -5    2.84    0.24
   6  -4  -5    1.81    0.18
  -6  -4   5    1.93    0.16
   6  -4  -5    1.68    0.18
   6  -4  -5    1.82    0.18
  -6  -4   5    1.74    0.16
   6   4  -5    1.84    0.22
   5  -4  -5   14.54    0.55
  -5  -4   5   13.93    0.52
   5  -4  -5   14.09    0.54
   5  -4  -5   13.95    0.53
  -5  -4   5   14.03    0.52
   5  -4  -5   14.60    0.55
   5   4  -5   12.04    0.57
  -4  -4   5    0.18    0.10
   4  -4  -5    0.24    0.14
  -4  -4   5    0.23    0.09
   4  -4  -5    0.22    0.11
   4  -4  -5    0.14    0.12
   4  -4  -5    0.20    0.10
   4   4  -5    0.29    0.13
   3  -4  -5    0.91    0.19
  -3  -4   5    1.29    0.18
   3  -4  -5    1.42    0.25
  -3  -4   5    1.51    0.17
   3  -4  -5    1.07    0.18
   3  -4  -5    1.23    0.22
   3   4  -5    1.25    0.22
   2  -4  -5   75.73    2.42
   2  -4  -5   76.16    2.40
  -2  -4   5   77.63    2.41
   2  -4  -5   76.90    2.41
  -2  -4   5   75.22    2.40
   2   4  -5   75.85    2.46
  -1  -4   5    1.17    0.19
   1  -4  -5    1.08    0.23
  -1  -4   5    1.01    0.17
   1  -4  -5    1.10    0.22
   1  -4  -5    1.24    0.21
   1   4  -5    0.95    0.23
   0  -4   5   14.66    0.56
   0  -4   5   15.53    0.57
   0  -4  -5   14.98    0.57
   0  -4  -5   14.92    0.58
   1  -4   5   14.91    0.57
  -1  -4  -5   16.62    0.65
  -1  -4  -5   15.10    0.58
   1  -4   5   15.07    0.58
   1  -4   5   14.78    0.57
  -2  -4  -5   21.37    0.79
   2  -4   5   20.74    0.73
   2  -4   5   20.05    0.73
   2  -4   5   19.96    0.73
  -2  -4  -5   20.64    0.73
  -3  -4  -5    2.01    0.21
   3  -4   5    1.88    0.19
   3  -4   5    2.15    0.23
  -3  -4  -5    1.82    0.22
   3  -4   5    1.73    0.19
  -4  -4  -5   10.56    0.41
   4  -4   5    9.22    0.42
   4  -4   5   10.59    0.42
   4  -4   5   10.38    0.43
  -4  -4  -5    9.19    0.46
  -5  -4  -5    6.83    0.31
   5  -4   5    6.95    0.31
   5  -4   5    6.68    0.32
  -5  -4  -5    6.18    0.36
   5  -4   5    6.47    0.33
  -6  -4  -5    0.16    0.13
   6  -4   5    0.25    0.08
  -6  -4  -5    0.28    0.09
  -7  -4  -5    5.38    0.25
   7  -4   5    5.33    0.25
   8  -4   5   17.40    0.61
  -8  -4  -5   18.28    0.60
  -8   4  -5   18.07    0.60
  -7  -5   5    6.10    0.24
   7  -5  -5    6.24    0.24
  -7  -5   5    6.12    0.24
   7  -5  -5    6.26    0.24
   6  -5  -5   14.78    0.51
  -6  -5   5   14.81    0.51
   6  -5  -5   14.50    0.51
  -6  -5   5   14.98    0.50
   6   5  -5   14.69    0.57
  -5  -5   5    1.49    0.13
   5  -5  -5    1.26    0.13
  -5  -5   5    1.32    0.12
   5  -5  -5    1.53    0.14
   5   5  -5    1.36    0.21
  -4  -5   5    0.06    0.06
   4  -5  -5   -0.05    0.08
   4  -5  -5    0.11    0.08
  -4  -5   5   -0.04    0.07
   4   5  -5    0.10    0.17
  -3  -5   5    0.38    0.12
   3  -5  -5    0.49    0.15
  -3  -5   5    0.39    0.12
   3  -5  -5    0.40    0.11
   3  -5  -5    0.47    0.14
   3   5  -5    0.17    0.21
   2  -5  -5    0.71    0.15
  -2  -5   5    0.44    0.13
   2  -5  -5    0.54    0.17
  -2  -5   5    0.62    0.14
  -1  -5   5    3.49    0.22
   1  -5  -5    2.92    0.22
  -1  -5   5    3.05    0.21
   1  -5  -5    3.07    0.21
   0  -5   5    2.91    0.20
   0  -5  -5    2.02    0.20
   0  -5   5    2.60    0.19
   0  -5  -5    2.26    0.22
   1  -5   5    0.16    0.09
  -1  -5  -5    0.03    0.10
   1  -5   5    0.15    0.09
  -2  -5  -5    1.07    0.16
   2  -5   5    1.34    0.20
   2  -5   5    1.17    0.14
   2  -5   5    0.69    0.15
   3  -5   5   17.25    0.60
   3  -5   5   16.89    0.60
   3  -5   5   17.12    0.61
  -3  -5  -5   16.85    0.60
   4  -5   5   -0.06    0.07
   4  -5   5    0.00    0.09
  -4  -5  -5    0.11    0.09
   4  -5   5    0.04    0.08
   5  -5   5    2.98    0.20
  -5  -5  -5    3.39    0.19
   5  -5   5    3.29    0.18
  -6  -5  -5    1.85    0.21
   6  -5   5    1.47    0.12
  -3  -6   5    1.05    0.10
   3  -6  -5    0.85    0.17
  -3  -6   5    0.99    0.11
  -2  -6   5    0.77    0.10
   2  -6  -5    0.61    0.16
  -2  -6   5    0.73    0.10
  -1  -6   5    0.06    0.05
  -1  -6   5   -0.06    0.06
   0  -6   5    0.97    0.11
   0  -6   5    1.26    0.11
   1  -6   5   18.90    0.65
   1  -6   5   20.51    0.65
   2  -6   5    2.97    0.16
   2  -6   5    2.84    0.15
   3  -6   5    2.27    0.20
 -11   0   6    0.00    0.06
 -10   0   6    9.87    0.38
 -10   0   6    9.29    0.38
   9   0  -6   -0.20    0.14
  -9   0   6   -0.04    0.08
  -9   0   6    0.14    0.11
  -8   0   6   -0.15    0.14
  -8   0   6   -0.07    0.08
   8   0  -6   -0.06    0.13
   7   0  -6   -0.14    0.13
  -7   0   6    0.03    0.16
   6   0  -6    1.45    0.20
   6   0  -6    1.30    0.25
   5   0  -6   -0.05    0.10
   4   0  -6   29.97    1.00
   3   0  -6    0.14    0.09
   2   0  -6   89.13    2.77
  -1   0   6    0.01    0.02
   1   0  -6    0.10    0.08
   1   0  -6    0.04    0.02
   0   0   6    2.67    0.12
   0   0  -6    2.84    0.17
   0   0  -6    2.67    0.11
  -1   0  -6    0.01    0.04
  -1   0  -6    0.01    0.08
   1   0   6    0.00    0.04
   2   0   6    0.33    0.10
  -2   0  -6    0.39    0.11
  -2   0  -6    0.28    0.07
  -3   0  -6    0.01    0.09
  -3   0  -6    0.11    0.07
  -4   0  -6    0.36    0.14
  -4   0  -6    0.02    0.09
  -4   0  -6    0.07    0.09
   5   0   6   -0.28    0.14
  -5   0  -6   -0.06    0.12
  -6   0  -6   28.53    1.00
  -6   0  -6   28.84    0.97
  -7   0  -6    0.09    0.12
   7   0   6   -0.11    0.10
   8   0   6    0.32    0.10
  -8   0  -6    0.46    0.13
   9   0   6   -0.02    0.10
  -9   0  -6   -0.01    0.09
 -10   0  -6    2.35    0.17
  10   0   6    2.47    0.19
  11   0   6   -0.04    0.07
 -11  -1   6    0.39    0.10
 -11   1   6    0.41    0.09
 -10  -1   6    0.02    0.10
  10  -1  -6    0.16    0.10
 -10  -1   6    0.09    0.07
 -10   1   6   -0.01    0.07
 -10   1   6   -0.11    0.12
  -9  -1   6    3.75    0.22
   9  -1  -6    3.65    0.26
  -9  -1   6    3.01    0.24
  -9   1   6    3.72    0.25
  -8  -1   6   61.32    1.91
   8  -1  -6   61.38    1.92
   8  -1  -6   59.07    1.94
  -8  -1   6   59.67    1.92
   8   1  -6   59.44    1.97
  -8   1   6   59.02    1.91
   7  -1  -6   15.50    0.61
   7  -1  -6   15.79    0.60
  -7  -1   6   14.62    0.58
  -7  -1   6   15.73    0.58
   7   1  -6   16.55    0.64
  -7   1   6   15.78    0.62
  -6  -1   6    0.51    0.19
   6  -1  -6    0.38    0.14
  -6  -1   6    0.67    0.17
   6  -1  -6    0.41    0.13
   6   1  -6    0.50    0.15
   5  -1  -6   34.57    1.12
   5  -1  -6   32.44    1.13
   5  -1  -6   33.81    1.12
  -5  -1   6   33.61    1.11
   5   1  -6   34.57    1.15
   4  -1  -6   61.13    1.92
   4   1  -6   60.32    1.95
   3  -1  -6   34.17    1.12
   3   1  -6   34.90    1.07
   3   1  -6   33.99    1.07
   3   1  -6   34.18    1.14
   2  -1  -6   17.74    0.62
   2   1  -6   17.65    0.63
   2   1  -6   18.24    0.57
  -1  -1   6   47.81    1.51
   1  -1  -6   48.77    1.55
   1   1  -6   47.76    1.51
  -1   1   6   49.18    1.49
  -1   1   6   50.82    1.49
   0  -1  -6   60.75    1.93
   0  -1   6   62.12    1.89
   0  -1  -6   60.10    1.88
   0   1  -6   60.14    1.89
   0   1   6   61.85    1.88
   0   1  -6   63.14    1.94
  -1  -1  -6   26.95    0.85
   1  -1   6   26.82    0.86
   1   1   6   26.89    0.85
  -1   1  -6   26.28    0.89
  -1   1  -6   27.60    0.86
  -2  -1  -6   31.28    0.97
  -2  -1  -6   30.89    1.01
  -2   1  -6   28.78    0.99
  -2   1  -6   29.98    0.96
   2   1   6   30.06    0.97
  -3  -1  -6    7.82    0.33
  -3   1  -6    6.65    0.30
  -3   1  -6    7.62    0.33
  -4  -1  -6   49.56    1.66
   4  -1   6   53.67    1.67
  -4  -1  -6   53.17    1.69
  -4   1  -6   51.79    1.67
   5  -1   6   56.99    1.80
  -5  -1  -6   54.05    1.79
  -5  -1  -6   57.54    1.83
  -6  -1  -6   13.46    0.53
  -6  -1  -6   14.28    0.55
   6  -1   6   13.67    0.53
   6  -1   6   11.94    0.53
  -6   1  -6   13.37    0.52
   7  -1   6   27.93    1.02
   7  -1   6   28.92    1.01
  -7  -1  -6   30.01    1.00
  -7  -1  -6   29.91    1.05
  -7   1  -6   30.10    1.00
  -8  -1  -6    7.64    0.34
   8  -1   6    7.41    0.36
  -8  -1  -6    6.55    0.40
   8  -1   6    7.21    0.38
  -8   1  -6    7.45    0.33
   8   1   6    7.14    0.37
   9  -1   6   10.72    0.45
  -9  -1  -6   11.02    0.42
   9   1   6   11.00    0.45
  -9   1  -6   10.64    0.42
  10  -1   6    0.02    0.07
 -10  -1  -6    0.04    0.08
  10   1   6    0.03    0.10
 -10   1  -6    0.03    0.08
  11  -1   6    2.36    0.15
 -11  -2   6    0.37    0.10
  11  -2  -6    0.40    0.10
 -11   2   6    0.50    0.09
  10  -2  -6    0.17    0.08
 -10  -2   6    0.23    0.07
 -10  -2   6    0.20    0.10
 -10   2   6    0.16    0.07
  -9  -2   6   15.83    0.56
   9  -2  -6   15.93    0.60
   9  -2  -6   16.51    0.58
  -9  -2   6   15.89    0.57
   9   2  -6   16.09    0.64
  -9   2   6   15.45    0.57
  -8  -2   6    1.46    0.17
  -8  -2   6    1.59    0.19
   8  -2  -6    1.13    0.19
   8  -2  -6    1.21    0.18
  -8   2   6    1.18    0.21
   8   2  -6    0.91    0.20
   7  -2  -6   -0.02    0.09
   7  -2  -6    0.11    0.11
  -7  -2   6    0.04    0.12
  -7  -2   6    0.19    0.09
   7  -2  -6    0.03    0.09
   7   2  -6    0.02    0.13
  -7   2   6    0.32    0.15
  -6  -2   6    2.31    0.24
   6  -2  -6    2.13    0.21
   6  -2  -6    2.22    0.22
   6  -2  -6    2.12    0.21
  -6  -2   6    1.98    0.19
   6   2  -6    1.84    0.23
   5  -2  -6    1.58    0.20
  -5  -2   6    1.34    0.26
   5  -2  -6    1.79    0.20
   5  -2  -6    1.21    0.21
  -5  -2   6    1.42    0.17
   5   2  -6    1.43    0.19
   4  -2  -6    4.21    0.25
  -4  -2   6    4.25    0.25
   4  -2  -6    4.36    0.27
   4  -2  -6    4.08    0.27
   4   2  -6    3.98    0.26
   3  -2  -6   20.13    0.72
  -3  -2   6   20.03    0.71
   3  -2  -6   20.64    0.73
   3   2  -6   21.04    0.74
   3   2  -6   18.91    0.68
   2  -2  -6    0.79    0.18
   2   2  -6    0.52    0.11
   2   2  -6    0.41    0.13
   1  -2  -6    1.74    0.18
   1   2  -6    1.87    0.16
   1   2  -6    2.09    0.17
  -1   2   6    1.84    0.12
   0  -2  -6   86.04    2.72
   0   2   6   86.66    2.67
   0   2  -6   90.26    2.69
   0   2   6   83.54    2.68
   0   2  -6   88.32    2.73
  -1  -2  -6   74.49    2.29
  -1   2  -6   73.57    2.28
  -1   2  -6   72.84    2.26
   1   2   6   69.51    2.25
   2  -2   6   15.84    0.59
  -2  -2  -6   15.88    0.59
  -2   2  -6   16.52    0.59
  -3  -2  -6    3.04    0.21
   3  -2   6    3.01    0.21
  -3  -2  -6    2.82    0.28
  -4  -2  -6    1.70    0.18
   4  -2   6    1.61    0.26
  -4  -2  -6    1.65    0.24
   4  -2   6    1.07    0.25
   4  -2   6    1.35    0.18
  -5  -2  -6    0.72    0.15
   5  -2   6    0.53    0.16
   5  -2   6    0.72    0.21
  -5  -2  -6    0.58    0.15
  -5  -2  -6    0.34    0.12
   6  -2   6    8.46    0.38
  -6  -2  -6    8.74    0.38
   6  -2   6    8.22    0.39
  -6  -2  -6    8.18    0.42
   7  -2   6    1.96    0.23
  -7  -2  -6    2.48    0.22
  -7  -2  -6    2.18    0.25
   7  -2   6    2.39    0.22
  -7   2  -6    2.56    0.22
   7   2   6    2.47    0.29
   8  -2   6    5.88    0.31
  -8  -2  -6    5.24    0.34
  -8  -2  -6    5.38    0.27
   8  -2   6    5.81    0.30
   8   2   6    5.52    0.33
  -8   2  -6    5.91    0.29
   9  -2   6    4.25    0.24
  -9  -2  -6    4.59    0.23
   9  -2   6    3.91    0.25
  -9   2  -6    4.27    0.22
  10  -2   6    4.29    0.21
 -10   2  -6    4.58    0.21
  10  -3  -6    0.73    0.22
  10  -3  -6    0.51    0.10
 -10  -3   6    0.54    0.08
   9  -3  -6    4.49    0.23
  -9  -3   6    4.25    0.21
   9  -3  -6    4.03    0.21
  -9  -3   6    4.40    0.22
   9   3  -6    4.35    0.28
  -8  -3   6    0.55    0.12
   8  -3  -6    0.71    0.14
  -8  -3   6    0.56    0.14
   8  -3  -6    0.63    0.13
   8   3  -6    0.45    0.17
   7  -3  -6    7.27    0.33
   7  -3  -6    6.94    0.35
  -7  -3   6    7.22    0.32
  -7  -3   6    6.81    0.32
   7  -3  -6    6.83    0.33
   7   3  -6    6.19    0.37
  -7   3   6    6.87    0.35
  -6  -3   6    0.11    0.08
   6  -3  -6    0.25    0.11
   6  -3  -6    0.16    0.11
  -6  -3   6    0.15    0.11
   6  -3  -6    0.23    0.11
   6   3  -6    0.12    0.13
   5  -3  -6   34.18    1.16
   5  -3  -6   34.26    1.15
   5  -3  -6   34.04    1.14
  -5  -3   6   32.72    1.13
  -5  -3   6   33.00    1.13
   5   3  -6   36.10    1.22
  -4  -3   6   11.96    0.49
   4  -3  -6   12.34    0.50
   4  -3  -6   12.73    0.52
  -4  -3   6   12.56    0.49
   4  -3  -6   12.86    0.50
   4   3  -6   12.20    0.54
  -3  -3   6   15.97    0.61
  -3  -3   6   16.85    0.61
   3  -3  -6   16.78    0.63
   3  -3  -6   16.93    0.62
   3  -3  -6   15.92    0.62
   3   3  -6   17.65    0.66
   2  -3  -6    3.73    0.27
   2  -3  -6    3.03    0.27
  -2  -3   6    3.41    0.22
   2  -3  -6    3.00    0.23
  -2  -3   6    3.59    0.28
   2   3  -6    3.65    0.25
  -1  -3   6    9.76    0.40
   1  -3  -6    8.94    0.47
   1  -3  -6    9.49    0.41
  -1  -3   6    9.65    0.42
   1  -3  -6    9.45    0.43
   1   3  -6    9.50    0.42
   0  -3   6    9.98    0.42
   0  -3   6    9.28    0.43
   0  -3  -6    9.72    0.44
   0  -3  -6   10.12    0.43
   0  -3   6    9.79    0.43
   0  -3  -6    9.40    0.44
   0   3  -6   10.58    0.43
   1  -3   6    1.26    0.17
   1  -3   6    1.04    0.23
   1  -3   6    1.14    0.21
  -1  -3  -6    1.18    0.18
  -1  -3  -6    1.24    0.19
   2  -3   6    3.34    0.26
  -2  -3  -6    3.63    0.25
   2  -3   6    3.83    0.24
  -2  -3  -6    2.55    0.39
   2  -3   6    3.47    0.29
   3  -3   6    1.83    0.29
  -3  -3  -6    1.34    0.17
   3  -3   6    1.28    0.18
   3  -3   6    1.61    0.21
  -4  -3  -6    0.74    0.17
   4  -3   6    0.72    0.16
  -4  -3  -6    0.52    0.16
   4  -3   6    0.66    0.14
   5  -3   6    0.13    0.10
  -5  -3  -6    0.16    0.12
   5  -3   6    0.16    0.16
   5  -3   6   -0.09    0.11
  -5  -3  -6   -0.03    0.13
  -6  -3  -6    2.80    0.26
   6  -3   6    3.17    0.22
  -6  -3  -6    3.07    0.24
   6  -3   6    3.00    0.27
   7  -3   6   13.95    0.51
  -7  -3  -6   12.99    0.49
  -7  -3  -6   12.54    0.56
   7  -3   6   13.50    0.52
   8  -3   6    6.60    0.30
  -8  -3  -6    6.61    0.28
  -8  -3  -6    6.29    0.35
   8  -3   6    6.43    0.29
  -8   3  -6    6.50    0.28
   9  -3   6    3.18    0.18
   9  -3   6    2.97    0.18
  -9   3  -6    3.27    0.17
   8  -4  -6   -0.01    0.06
  -8  -4   6    0.00    0.05
   8  -4  -6    0.08    0.07
  -8  -4   6   -0.03    0.09
   8   4  -6   -0.01    0.13
   7  -4  -6   30.94    1.01
  -7  -4   6   30.31    1.01
   7  -4  -6   32.33    1.03
   7  -4  -6   30.33    1.02
  -7  -4   6   30.71    1.00
   7   4  -6   30.19    1.07
  -6  -4   6   12.13    0.46
   6  -4  -6   12.65    0.47
   6  -4  -6   12.07    0.47
   6  -4  -6   12.18    0.48
  -6  -4   6   12.40    0.45
   6   4  -6   11.82    0.52
  -5  -4   6    4.09    0.23
   5  -4  -6    3.90    0.24
   5  -4  -6    4.38    0.27
  -5  -4   6    4.28    0.24
   5  -4  -6    4.35    0.24
   5   4  -6    3.35    0.27
  -4  -4   6    0.47    0.12
  -4  -4   6    0.22    0.09
   4  -4  -6    0.21    0.10
   4  -4  -6    0.15    0.12
   4  -4  -6    0.52    0.16
   4   4  -6    0.30    0.15
   3  -4  -6    0.70    0.17
  -3  -4   6    0.74    0.18
  -3  -4   6    0.12    0.10
   3  -4  -6    0.15    0.11
   3  -4  -6    0.07    0.12
   3   4  -6    0.42    0.16
   2  -4  -6   12.99    0.53
   2  -4  -6   13.59    0.55
   2  -4  -6   13.66    0.53
  -2  -4   6   13.52    0.53
  -2  -4   6   13.35    0.52
   2   4  -6   14.50    0.58
  -1  -4   6   53.88    1.74
   1  -4  -6   53.07    1.74
   1  -4  -6   54.06    1.74
  -1  -4   6   53.67    1.73
   1   4  -6   55.26    1.78
   0  -4   6    0.20    0.12
   0  -4   6    0.19    0.10
   1  -4   6    1.03    0.22
  -1  -4  -6    1.16    0.28
   1  -4   6    1.37    0.19
   1  -4   6    0.70    0.19
   2  -4   6    0.97    0.19
  -2  -4  -6    1.38    0.23
   2  -4   6    1.41    0.21
   2  -4   6    1.26    0.19
  -3  -4  -6    0.64    0.20
   3  -4   6    0.59    0.16
   3  -4   6    0.32    0.11
  -3  -4  -6    0.04    0.14
   3  -4   6    0.42    0.13
  -4  -4  -6    0.43    0.16
   4  -4   6    0.73    0.15
  -4  -4  -6    0.83    0.21
   4  -4   6    0.88    0.23
   4  -4   6    0.84    0.16
  -5  -4  -6    6.85    0.33
   5  -4   6    7.85    0.34
   5  -4   6    8.17    0.33
  -5  -4  -6    6.67    0.38
   6  -4   6    0.07    0.07
  -6  -4  -6    0.09    0.13
  -6  -4  -6   -0.14    0.11
   7  -4   6    3.31    0.19
   8  -4   6    1.59    0.12
  -8   4  -6    1.45    0.14
  -6  -5   6    9.45    0.34
   6  -5  -6    8.79    0.34
   6  -5  -6    9.40    0.34
  -6  -5   6    9.69    0.34
  -5  -5   6    0.12    0.08
   5  -5  -6    0.11    0.07
  -5  -5   6    0.01    0.05
   5  -5  -6    0.01    0.07
   5   5  -6    0.10    0.16
  -4  -5   6    2.62    0.17
   4  -5  -6    2.67    0.17
  -4  -5   6    2.59    0.16
   4  -5  -6    2.58    0.17
   4   5  -6    3.03    0.26
  -3  -5   6    0.45    0.11
  -3  -5   6    0.44    0.13
   3  -5  -6    0.24    0.09
   3  -5  -6    0.38    0.10
  -2  -5   6    5.92    0.27
  -2  -5   6    5.96    0.27
   2  -5  -6    5.91    0.29
  -1  -5   6    0.03    0.08
   1  -5  -6    0.14    0.11
  -1  -5   6   -0.04    0.08
   0  -5   6    2.30    0.18
   0  -5   6    2.44    0.17
   1  -5   6    2.82    0.19
   1  -5   6    2.64    0.19
   2  -5   6    3.20    0.20
   2  -5   6    3.44    0.22
   2  -5   6    3.35    0.21
   3  -5   6    2.58    0.17
   3  -5   6    2.87    0.19
   3  -5   6    2.72    0.19
   4  -5   6   -0.11    0.11
   4  -5   6   -0.16    0.07
   4  -5   6    0.00    0.07
   5  -5   6    0.12    0.07
   6  -5   6    0.41    0.10
  -2  -6   6    2.19    0.13
  -1  -6   6    0.19    0.08
  -1  -6   6    0.43    0.09
   0  -6   6    2.58    0.15
   0  -6   6    2.62    0.14
   1  -6   6    0.01    0.08
   1  -6   6   -0.06    0.07
 -11   0   7    5.99    0.24
 -10   0   7   -0.06    0.06
  -9   0   7    3.19    0.21
   9   0  -7    2.77    0.27
  -8   0   7   -0.01    0.09
   8   0  -7    0.23    0.15
  -7   0   7    3.39    0.22
   7   0  -7    3.35    0.30
   6   0  -7    0.07    0.16
   6   0  -7    0.06    0.17
   6   0  -7    0.08    0.14
   5   0  -7    0.31    0.13
   5   0  -7    0.43    0.16
   5   0  -7    0.18    0.16
   4   0  -7   -0.06    0.09
   3   0  -7   59.99    1.91
   2   0  -7    0.05    0.08
   1   0  -7    3.51    0.20
  -1   0   7    3.59    0.13
   1   0  -7    3.27    0.13
   0   0   7   -0.03    0.05
   0   0  -7   -0.01    0.08
   0   0  -7    0.07    0.05
  -1   0  -7   18.90    0.64
   1   0   7   17.47    0.60
  -1   0  -7   18.18    0.59
  -2   0  -7   -0.08    0.07
  -2   0  -7    0.33    0.10
   2   0   7   -0.05    0.08
  -3   0  -7   24.90    0.85
  -3   0  -7   26.44    0.88
  -4   0  -7    0.03    0.10
  -4   0  -7   -0.12    0.10
   5   0   7   59.46    1.93
  -5   0  -7   61.77    1.96
  -6   0  -7    0.22    0.17
  -7   0  -7   -0.32    0.14
   8   0   7    0.06    0.10
  -8   0  -7    0.11    0.12
   9   0   7    5.59    0.29
  -9   0  -7    5.53    0.27
  10   0   7    0.10    0.08
 -11  -1   7    2.20    0.13
  11  -1  -7    1.69    0.20
 -11   1   7    2.38    0.13
  10  -1  -7    0.12    0.09
 -10  -1   7    0.01    0.06
 -10   1   7    0.12    0.07
   9  -1  -7    8.18    0.37
  -9  -1   7    8.18    0.35
  -9   1   7    8.33    0.35
   8  -1  -7    3.58    0.27
  -8  -1   7    3.52    0.22
   8  -1  -7    3.76    0.26
   8   1  -7    3.42    0.28
   7  -1  -7    0.98    0.22
   7  -1  -7    0.96    0.20
  -7  -1   7    1.10    0.17
   7   1  -7    1.55    0.21
   6  -1  -7    1.41    0.21
  -6  -1   7    1.15    0.17
   6  -1  -7    1.03    0.20
   6   1  -7    1.19    0.19
  -5  -1   7    6.10    0.30
   5  -1  -7    6.16    0.34
   5  -1  -7    6.39    0.32
   5   1  -7    6.38    0.32
   4  -1  -7   19.74    0.72
   4  -1  -7   19.86    0.70
   4  -1  -7   20.15    0.70
   4  -1  -7   19.83    0.70
  -4  -1   7   18.91    0.70
   4   1  -7   20.47    0.72
   3  -1  -7   12.34    0.48
   3   1  -7   13.33    0.50
   2  -1  -7   19.40    0.65
   2   1  -7   18.10    0.66
   2   1  -7   18.31    0.59
   1  -1  -7   76.80    2.33
  -1  -1   7   73.58    2.28
   1   1  -7   71.58    2.28
   1   1  -7   74.63    2.34
   0  -1   7   91.46    2.84
   0  -1  -7   92.77    2.88
   0   1  -7   93.24    2.84
   0   1   7   90.59    2.83
   0   1  -7   94.12    2.89
   1  -1   7    3.95    0.21
  -1  -1  -7    4.43    0.20
  -1  -1  -7    4.26    0.23
  -1   1  -7    4.24    0.23
   1   1   7    4.18    0.19
  -1   1  -7    4.27    0.19
  -2  -1  -7   10.57    0.42
  -2  -1  -7   11.54    0.40
  -2   1  -7   10.08    0.42
  -2   1  -7   10.52    0.39
  -3  -1  -7    4.03    0.23
  -3  -1  -7    3.69    0.26
  -3  -1  -7    3.40    0.25
   3  -1   7    3.37    0.24
  -3   1  -7    3.89    0.26
  -3   1  -7    3.91    0.24
  -4  -1  -7   -0.03    0.11
   4  -1   7    0.21    0.12
  -4  -1  -7    0.04    0.09
  -4   1  -7    0.07    0.14
   5  -1   7    2.38    0.22
  -5  -1  -7    2.55    0.22
  -5  -1  -7    2.51    0.21
   6  -1   7   25.60    0.89
  -6  -1  -7   26.35    0.94
   7  -1   7   36.60    1.22
  -7  -1  -7   35.73    1.27
   7  -1   7   36.40    1.24
  -7   1  -7   38.01    1.21
  -8  -1  -7    2.33    0.29
   8  -1   7    3.27    0.23
   8  -1   7    2.65    0.27
  -8   1  -7    2.66    0.23
   8   1   7    2.59    0.24
   9  -1   7   16.88    0.62
  -9   1  -7   16.75    0.59
   9   1   7   16.93    0.62
  10  -1   7    0.27    0.08
  10   1   7    0.37    0.10
  10  -2  -7    2.57    0.17
 -10  -2   7    2.65    0.15
 -10   2   7    2.64    0.15
   9  -2  -7    3.95    0.23
  -9  -2   7    3.84    0.21
   9  -2  -7    3.90    0.23
   9   2  -7    3.93    0.29
   8  -2  -7    1.01    0.18
   8  -2  -7    1.11    0.17
  -8  -2   7    1.01    0.22
  -8  -2   7    1.38    0.16
   8   2  -7    0.88    0.20
   7  -2  -7   19.96    0.74
  -7  -2   7   20.31    0.81
  -7  -2   7   20.10    0.71
   7  -2  -7   19.98    0.72
   7   2  -7   18.45    0.76
  -6  -2   7    0.23    0.10
   6  -2  -7    0.20    0.12
   6  -2  -7    0.19    0.10
   6  -2  -7    0.27    0.11
   6   2  -7    0.35    0.15
   5  -2  -7    7.63    0.34
   5  -2  -7    7.10    0.34
   5  -2  -7    6.95    0.36
  -5  -2   7    6.49    0.33
   5   2  -7    7.25    0.37
   4  -2  -7   -0.06    0.10
   4  -2  -7    0.18    0.14
   4  -2  -7    0.00    0.09
  -4  -2   7   -0.05    0.10
   4   2  -7    0.05    0.11
   3  -2  -7    1.22    0.19
   3  -2  -7    1.18    0.25
  -3  -2   7    0.98    0.19
   3  -2  -7    0.91    0.17
   3   2  -7    1.26    0.17
   2  -2  -7   81.83    2.61
   2  -2  -7   83.37    2.60
   2  -2  -7   82.31    2.61
  -2  -2   7   81.13    2.60
   2   2  -7   86.51    2.64
   1  -2  -7    3.88    0.26
   1  -2  -7    4.24    0.27
   1  -2  -7    4.24    0.24
   1   2  -7    4.24    0.24
   1   2  -7    4.12    0.24
   0  -2  -7  360.37   10.90
   0  -2  -7  352.37   10.89
   0   2  -7  372.99   10.90
   0   2  -7  341.54   10.86
  -1  -2  -7    0.13    0.12
  -1  -2  -7    0.06    0.09
  -1   2  -7    0.03    0.12
  -2  -2  -7    0.98    0.15
  -2  -2  -7    1.24    0.22
   2  -2   7    1.13    0.18
  -2   2  -7    1.52    0.20
  -3  -2  -7    2.83    0.24
  -3  -2  -7    2.66    0.21
   3  -2   7    2.71    0.20
   4  -2   7    1.04    0.25
   4  -2   7    1.00    0.17
  -4  -2  -7    0.85    0.21
  -4  -2  -7    1.17    0.17
   5  -2   7    0.78    0.17
   5  -2   7    0.65    0.14
  -5  -2  -7    0.85    0.21
  -5  -2  -7    0.87    0.18
   6  -2   7   13.44    0.52
  -6  -2  -7   13.11    0.57
   6  -2   7   12.89    0.53
   7  -2   7    0.63    0.18
  -7  -2  -7    0.71    0.20
   7  -2   7    0.69    0.17
  -7   2  -7    0.85    0.20
  -8  -2  -7    0.29    0.16
   8  -2   7    0.24    0.09
   8  -2   7    0.32    0.10
  -8   2  -7    0.24    0.11
   8   2   7    0.25    0.12
   9  -2   7    5.26    0.25
   9  -2   7    5.55    0.27
  -9   2  -7    4.72    0.25
  10  -2   7   -0.03    0.06
 -10  -3   7    0.59    0.08
 -10   3   7    0.70    0.09
  -9  -3   7    3.73    0.18
   9  -3  -7    3.78    0.19
   9  -3  -7    3.72    0.20
   9   3  -7    3.80    0.26
  -8  -3   7    1.36    0.22
   8  -3  -7    1.59    0.15
   8  -3  -7    1.50    0.15
  -8  -3   7    1.39    0.13
   8   3  -7    1.46    0.20
  -7  -3   7    0.17    0.08
  -7  -3   7    0.28    0.12
   7  -3  -7    0.12    0.09
   7  -3  -7    0.20    0.09
   7  -3  -7    0.20    0.09
   7   3  -7    0.20    0.12
  -6  -3   7    0.23    0.09
   6  -3  -7    0.30    0.10
   6  -3  -7    0.16    0.09
   6  -3  -7    0.13    0.10
  -6  -3   7    0.20    0.12
   6   3  -7    0.30    0.14
  -5  -3   7   17.37    0.64
   5  -3  -7   18.58    0.65
   5  -3  -7   17.31    0.65
   5  -3  -7   17.11    0.66
  -5  -3   7   16.56    0.63
   5   3  -7   17.65    0.69
   4  -3  -7   20.44    0.73
   4  -3  -7   19.37    0.73
   4  -3  -7   20.28    0.72
  -4  -3   7   20.17    0.71
  -4  -3   7   19.18    0.71
   4   3  -7   20.75    0.77
  -3  -3   7    0.03    0.10
   3  -3  -7   -0.19    0.12
   3  -3  -7   -0.01    0.09
   3  -3  -7    0.00    0.10
   3   3  -7    0.05    0.12
  -2  -3   7   23.98    0.82
   2  -3  -7   23.87    0.83
   2  -3  -7   22.51    0.83
   2  -3  -7   22.86    0.82
   2   3  -7   24.27    0.86
   1  -3  -7    9.19    0.43
   1  -3  -7    9.69    0.41
   1  -3  -7    9.87    0.45
  -1  -3   7    9.51    0.41
   1   3  -7   10.10    0.43
   0  -3  -7    2.93    0.24
   0  -3  -7    2.56    0.24
   0  -3   7    2.90    0.25
   0  -3   7    2.98    0.25
   0  -3  -7    2.87    0.26
   0   3  -7    3.06    0.24
   1  -3   7    2.19    0.21
  -1  -3  -7    1.97    0.21
   1  -3   7    1.74    0.25
  -1  -3  -7    1.88    0.25
  -1   3  -7    1.88    0.25
  -2  -3  -7    0.41    0.15
   2  -3   7    0.30    0.11
   2  -3   7    0.86    0.25
  -2  -3  -7    0.55    0.17
   3  -3   7    9.37    0.43
   3  -3   7    9.96    0.41
  -3  -3  -7    9.26    0.45
  -3  -3  -7    9.94    0.44
  -4  -3  -7    3.41    0.26
   4  -3   7    3.16    0.22
   4  -3   7    2.73    0.26
  -5  -3  -7    7.76    0.40
   5  -3   7    8.35    0.37
   6  -3   7    5.60    0.29
   6  -3   7    6.11    0.33
  -6  -3  -7    5.56    0.34
  -7  -3  -7    0.04    0.12
   7  -3   7    0.01    0.08
   7  -3   7   -0.02    0.11
  -7   3  -7    0.28    0.11
   8  -3   7    1.80    0.15
   8  -3   7    2.00    0.17
  -8  -3  -7    2.05    0.22
  -8   3  -7    1.66    0.16
   9  -3   7    3.31    0.19
   9  -3   7    3.05    0.18
  -8  -4   7    1.58    0.11
   8  -4  -7    1.23    0.13
   8  -4  -7    1.54    0.12
   8   4  -7    1.46    0.20
   7  -4  -7    2.32    0.16
   7  -4  -7    2.39    0.17
   7  -4  -7    2.26    0.16
  -7  -4   7    2.46    0.15
   7   4  -7    2.60    0.21
   6  -4  -7    3.50    0.20
  -6  -4   7    3.51    0.23
   6  -4  -7    3.34    0.20
   6  -4  -7    3.46    0.22
  -6  -4   7    3.28    0.19
   6   4  -7    3.57    0.25
  -5  -4   7    2.32    0.18
  -5  -4   7    2.03    0.20
   5  -4  -7    2.52    0.19
   5  -4  -7    2.69    0.19
   5  -4  -7    2.80    0.20
   5   4  -7    1.90    0.21
   4  -4  -7   10.43    0.42
  -4  -4   7    9.84    0.42
  -4  -4   7   10.45    0.42
   4  -4  -7   10.64    0.42
   4  -4  -7   10.82    0.44
   4   4  -7    9.48    0.46
   3  -4  -7    7.38    0.36
   3  -4  -7    7.60    0.36
  -3  -4   7    7.75    0.34
   3  -4  -7    7.41    0.34
  -3  -4   7    7.61    0.34
   3   4  -7    6.90    0.38
   2  -4  -7    3.02    0.22
   2  -4  -7    2.84    0.25
   2  -4  -7    2.94    0.26
  -2  -4   7    3.12    0.24
  -2  -4   7    3.08    0.22
   2   4  -7    2.77    0.25
  -1  -4   7   13.95    0.53
   1  -4  -7   13.53    0.55
  -1  -4   7   13.58    0.52
   1  -4  -7   14.03    0.54
   1   4  -7   14.01    0.58
   0  -4   7    3.66    0.24
   0  -4   7    3.64    0.26
   1  -4   7    2.76    0.23
   1  -4   7    2.49    0.23
  -1  -4  -7    2.69    0.29
   1  -4   7    2.30    0.23
   2  -4   7    0.20    0.11
   2  -4   7    0.15    0.12
   2  -4   7    0.15    0.12
  -2  -4  -7    0.14    0.17
   3  -4   7   49.61    1.56
   3  -4   7   47.11    1.54
   3  -4   7   49.26    1.54
  -3  -4  -7   45.64    1.61
  -4  -4  -7    6.29    0.36
   4  -4   7    6.43    0.30
   4  -4   7    6.22    0.30
  -5  -4  -7    0.72    0.18
   5  -4   7    0.48    0.12
  -6  -4  -7    3.00    0.23
   6  -4   7    2.93    0.18
   7  -4   7    2.57    0.15
  -7   4  -7    2.78    0.19
   8  -4   7   12.36    0.43
   6  -5  -7    6.04    0.24
  -6  -5   7    6.59    0.24
   5  -5  -7   -0.04    0.08
  -5  -5   7    0.00    0.05
   5  -5  -7   -0.02    0.06
   5   5  -7    0.30    0.19
  -4  -5   7   -0.11    0.10
   4  -5  -7   -0.11    0.08
  -4  -5   7    0.07    0.06
   4  -5  -7   -0.08    0.07
  -3  -5   7    0.17    0.09
   3  -5  -7    0.29    0.09
   3  -5  -7    0.30    0.11
  -3  -5   7    0.45    0.11
  -2  -5   7   11.01    0.41
  -2  -5   7   11.15    0.42
  -1  -5   7    0.02    0.07
  -1  -5   7    0.00    0.09
   0  -5   7    2.67    0.19
   0  -5   7    2.93    0.19
   1  -5   7    2.81    0.19
   1  -5   7    3.02    0.19
   2  -5   7    3.87    0.21
   2  -5   7    3.89    0.21
   2  -5   7    3.36    0.22
   3  -5   7    0.73    0.20
   3  -5   7    0.65    0.13
   3  -5   7    0.60    0.14
   4  -5   7    0.23    0.08
   5  -5   7    0.41    0.10
 -11   0   8   -0.02    0.05
 -10   0   8    2.21    0.15
  -9   0   8   -0.08    0.07
   8   0  -8  153.64    4.76
  -8   0   8  153.93    4.75
   7   0  -8    0.11    0.20
   7   0  -8    0.07    0.14
  -7   0   8    0.09    0.10
   6   0  -8   10.23    0.46
   6   0  -8   10.52    0.47
   6   0  -8   10.76    0.46
  -6   0   8   10.41    0.43
   5   0  -8    0.13    0.14
   5   0  -8    0.05    0.13
   5   0  -8   -0.08    0.11
   4   0  -8    0.60    0.15
   4   0  -8    0.67    0.14
   4   0  -8    0.74    0.15
   3   0  -8    0.06    0.10
   3   0  -8   -0.14    0.12
   2   0  -8   14.09    0.53
   1   0  -8    0.07    0.09
   0   0   8   10.92    0.39
   0   0  -8   11.55    0.39
   0   0  -8   11.67    0.44
   1   0   8   -0.11    0.10
  -1   0  -8    0.08    0.08
  -1   0  -8    0.07    0.08
  -2   0  -8   20.34    0.69
  -2   0  -8   19.76    0.66
  -2   0  -8   18.40    0.68
  -2   0  -8   18.50    0.69
  -3   0  -8    0.06    0.09
  -3   0  -8    0.17    0.11
  -4   0  -8   43.73    1.41
  -4   0  -8   42.68    1.43
  -5   0  -8    0.12    0.13
   5   0   8    0.28    0.15
   6   0   8    0.27    0.17
  -6   0  -8    0.19    0.17
   8   0   8    2.64    0.22
  10   0   8    2.07    0.15
 -11  -1   8    0.36    0.08
 -11   1   8    0.08    0.05
 -10  -1   8    8.49    0.33
  10  -1  -8    8.08    0.34
 -10   1   8    8.44    0.33
  -9  -1   8   -0.10    0.07
   9  -1  -8    0.10    0.09
  -9   1   8    0.03    0.08
   8  -1  -8    5.91    0.31
   8  -1  -8    5.73    0.32
  -8  -1   8    5.98    0.28
   8   1  -8    4.83    0.33
   7  -1  -8    1.67    0.21
  -7  -1   8    1.28    0.17
   7  -1  -8    1.83    0.22
   7   1  -8    1.33    0.20
   6  -1  -8    7.16    0.36
  -6  -1   8    7.00    0.33
   6  -1  -8    6.75    0.34
   6   1  -8    6.93    0.36
   5  -1  -8   11.01    0.45
  -5  -1   8   10.97    0.44
   5  -1  -8   10.58    0.46
   5   1  -8   11.45    0.47
   4  -1  -8    1.56    0.18
   4  -1  -8    1.51    0.21
  -4  -1   8    1.47    0.20
   4  -1  -8    1.41    0.18
   4   1  -8    1.02    0.27
   4   1  -8    1.41    0.16
   3  -1  -8    7.97    0.37
   3  -1  -8    8.41    0.36
   3  -1  -8    8.14    0.35
  -3  -1   8    8.12    0.38
   3   1  -8    8.30    0.37
   3   1  -8    7.67    0.39
   2  -1  -8   12.26    0.47
   2  -1  -8   12.00    0.49
   2  -1  -8   12.19    0.47
   2   1  -8   12.58    0.48
   1  -1  -8    2.23    0.21
   1  -1  -8    1.80    0.23
   1  -1  -8    1.94    0.16
   1   1  -8    2.44    0.18
   0  -1  -8  117.40    3.44
   0  -1  -8  109.94    3.43
   0  -1   8  107.93    3.39
   0   1  -8  111.29    3.39
   0   1  -8  104.69    3.43
  -1  -1  -8   16.45    0.63
  -1  -1  -8   17.83    0.59
  -1  -1  -8   18.54    0.64
  -1   1  -8   17.34    0.60
  -1   1  -8   16.52    0.63
  -2  -1  -8    4.56    0.25
  -2  -1  -8    4.18    0.29
  -2  -1  -8    4.62    0.27
  -2  -1  -8    4.64    0.29
  -2   1  -8    4.65    0.25
  -2   1  -8    4.95    0.30
  -3  -1  -8    4.43    0.26
  -3  -1  -8    4.56    0.27
  -3   1  -8    4.95    0.27
  -3   1  -8    4.36    0.28
  -4  -1  -8   11.92    0.48
   4  -1   8   11.89    0.48
  -4  -1  -8   12.40    0.51
  -4   1  -8   12.61    0.51
   5  -1   8    4.08    0.25
  -5  -1  -8    4.16    0.25
  -5  -1  -8    3.98    0.27
   6  -1   8   66.76    2.17
  -6  -1  -8   69.96    2.23
  -7  -1  -8    7.15    0.39
   7  -1   8    7.13    0.35
   7  -1   8    7.34    0.35
  -8  -1  -8   17.42    0.71
   8  -1   8   17.77    0.67
   8  -1   8   17.76    0.66
   8   1   8   17.85    0.66
   9  -1   8    2.72    0.19
   9   1   8    2.93    0.20
  10  -1   8    0.03    0.06
  10   1   8    0.15    0.09
 -10  -2   8    0.66    0.09
  10  -2  -8    0.58    0.11
 -10   2   8    0.67    0.09
  -9  -2   8   11.00    0.41
   9  -2  -8   11.06    0.42
   9  -2  -8   10.89    0.43
   9   2  -8   10.86    0.48
   8  -2  -8    3.09    0.21
  -8  -2   8    3.18    0.20
   8  -2  -8    3.13    0.22
   8   2  -8    2.95    0.24
  -7  -2   8   14.49    0.54
   7  -2  -8   14.53    0.55
   7  -2  -8   14.02    0.56
   7   2  -8   13.19    0.58
   6  -2  -8    3.86    0.26
  -6  -2   8    4.36    0.26
   6  -2  -8    4.38    0.26
   6   2  -8    4.29    0.28
  -5  -2   8   32.38    1.05
   5  -2  -8   31.27    1.06
   5  -2  -8   29.95    1.04
   5  -2  -8   29.61    1.07
   5   2  -8   32.17    1.11
  -4  -2   8    0.26    0.10
   4  -2  -8    0.21    0.10
   4  -2  -8    0.23    0.09
   4  -2  -8    0.33    0.14
   4   2  -8    0.34    0.14
   3  -2  -8    8.23    0.42
   3  -2  -8    8.45    0.38
   3  -2  -8    8.62    0.37
  -3  -2   8    7.74    0.37
   3   2  -8    8.53    0.39
   2  -2  -8   12.03    0.47
   2  -2  -8   12.13    0.49
  -2  -2   8   10.97    0.47
   2  -2  -8   12.45    0.49
   2   2  -8   12.67    0.49
   1  -2  -8    3.58    0.23
  -1  -2   8    3.45    0.31
   1  -2  -8    3.60    0.24
   1  -2  -8    3.62    0.25
   1   2  -8    3.52    0.23
   0  -2  -8   57.12    1.80
   0  -2  -8   55.49    1.79
   0  -2  -8   54.10    1.78
   0   2  -8   55.99    1.80
  -1  -2  -8    3.36    0.22
  -1  -2  -8    3.33    0.28
   1  -2   8    3.60    0.23
  -1  -2  -8    3.64    0.25
  -1   2  -8    3.55    0.24
  -2  -2  -8   13.17    0.52
   2  -2   8   13.29    0.51
  -2  -2  -8   13.08    0.53
  -2   2  -8   13.21    0.52
  -3  -2  -8    0.41    0.12
  -3  -2  -8    0.53    0.15
   3  -2   8    0.32    0.11
  -4  -2  -8   15.91    0.60
   4  -2   8   15.66    0.60
  -4  -2  -8   16.95    0.65
   4  -2   8   15.72    0.62
  -5  -2  -8    2.34    0.22
   5  -2   8    1.80    0.23
  -5  -2  -8    2.45    0.23
   5  -2   8    2.36    0.21
  -6  -2  -8   31.29    1.14
   6  -2   8   32.14    1.08
   6  -2   8   32.91    1.10
   7  -2   8    2.22    0.21
   7  -2   8    2.40    0.20
  -7  -2  -8    2.17    0.23
  -8  -2  -8   -0.24    0.16
   8  -2   8   -0.05    0.08
   8  -2   8   -0.13    0.08
   8   2   8    0.12    0.10
   9  -2   8    4.38    0.22
   9  -3  -8    0.50    0.10
   9  -3  -8    0.55    0.11
  -9  -3   8    0.63    0.09
   8  -3  -8    0.14    0.07
   8  -3  -8    0.03    0.06
  -8  -3   8    0.11    0.06
   8   3  -8    0.04    0.12
  -7  -3   8    0.23    0.07
   7  -3  -8    0.10    0.07
   7  -3  -8    0.42    0.09
   7   3  -8    0.22    0.13
   6  -3  -8    3.09    0.21
   6  -3  -8    2.67    0.21
   6  -3  -8    2.23    0.20
  -6  -3   8    2.67    0.20
   6   3  -8    2.07    0.22
  -5  -3   8    0.33    0.09
   5  -3  -8    0.44    0.13
   5  -3  -8    0.52    0.15
   5   3  -8    0.69    0.17
   4  -3  -8   15.87    0.60
  -4  -3   8   15.91    0.59
   4  -3  -8   16.14    0.61
   4  -3  -8   15.71    0.60
  -3  -3   8    1.27    0.18
   3  -3  -8    1.12    0.19
   3  -3  -8    1.14    0.17
   3  -3  -8    1.22    0.25
   3   3  -8    1.32    0.19
  -2  -3   8   27.12    0.92
   2  -3  -8   26.96    0.92
   2  -3  -8   26.07    0.93
   2   3  -8   27.06    0.96
   1  -3  -8    1.78    0.25
  -1  -3   8    1.94    0.22
  -1  -3   8    1.50    0.25
   1  -3  -8    1.96    0.20
   1  -3  -8    1.98    0.21
   1   3  -8    1.72    0.20
   0  -3   8   14.82    0.57
   0  -3  -8   14.91    0.58
   0  -3  -8   15.12    0.60
   0  -3   8   14.34    0.57
   0   3  -8   15.89    0.60
   1  -3   8    0.25    0.11
  -1  -3  -8    0.30    0.12
  -1  -3  -8    0.25    0.14
  -1   3  -8    0.26    0.19
  -2  -3  -8   14.75    0.58
   2  -3   8   15.34    0.57
  -2  -3  -8   15.49    0.61
  -3  -3  -8   36.54    1.24
  -3  -3  -8   38.92    1.30
   3  -3   8   37.36    1.24
   4  -3   8    0.88    0.16
  -4  -3  -8    0.72    0.22
  -4  -3  -8    0.86    0.18
   5  -3   8   15.01    0.55
  -5  -3  -8   13.88    0.60
   6  -3   8    5.20    0.31
   6  -3   8    5.63    0.28
  -6  -3  -8    5.46    0.34
  -7  -3  -8    0.44    0.17
   7  -3   8    0.46    0.11
  -8  -3  -8    3.09    0.25
   8  -3   8    2.80    0.17
   8  -3   8    2.89    0.20
  -8  -4   8    2.11    0.12
   8  -4  -8    1.95    0.12
   8  -4  -8    2.20    0.14
   7  -4  -8    0.29    0.09
  -7  -4   8    0.05    0.05
   7  -4  -8    0.12    0.07
   7   4  -8    0.07    0.13
  -6  -4   8    1.20    0.12
   6  -4  -8    1.03    0.12
   6  -4  -8    0.95    0.14
   6  -4  -8    1.09    0.14
   6   4  -8    1.38    0.17
   5  -4  -8    3.57    0.22
  -5  -4   8    3.61    0.20
   5  -4  -8    3.82    0.22
   5  -4  -8    3.84    0.21
   5   4  -8    3.36    0.24
  -4  -4   8    3.55    0.21
   4  -4  -8    2.73    0.22
   4  -4  -8    3.09    0.21
   4  -4  -8    3.32    0.22
   4   4  -8    3.04    0.23
   3  -4  -8    2.18    0.26
  -3  -4   8    2.26    0.20
   3  -4  -8    2.50    0.19
   3  -4  -8    2.24    0.21
   3   4  -8    2.32    0.22
   2  -4  -8    0.11    0.09
   2  -4  -8    0.55    0.18
  -2  -4   8    0.09    0.09
   2   4  -8    0.14    0.15
   1  -4  -8    0.27    0.14
   1  -4  -8    0.27    0.13
  -1  -4   8    0.34    0.11
   1   4  -8    0.37    0.19
   0  -4  -8    0.04    0.13
   0  -4   8    0.18    0.12
   0  -4   8    0.05    0.14
   1  -4   8    0.20    0.13
   1  -4   8    0.05    0.12
  -1  -4  -8    0.19    0.20
   2  -4   8    3.02    0.22
   2  -4   8    2.82    0.26
   2  -4   8    3.18    0.32
  -2  -4  -8    2.67    0.27
   3  -4   8    0.03    0.13
  -3  -4  -8    0.06    0.16
   3  -4   8    0.33    0.10
   4  -4   8    0.08    0.08
  -4  -4  -8    0.24    0.14
  -5  -4  -8    2.17    0.22
   5  -4   8    2.23    0.17
  -6  -4  -8    0.32    0.14
   6  -4   8    0.38    0.10
   7  -4   8   12.76    0.45
   5  -5  -8    1.86    0.12
  -5  -5   8    1.72    0.12
  -4  -5   8    0.75    0.10
   4  -5  -8    0.77    0.11
  -3  -5   8    4.04    0.20
   3  -5  -8    4.23    0.21
  -2  -5   8    2.97    0.18
  -1  -5   8    1.95    0.16
   0  -5   8    1.71    0.16
   1  -5   8    0.26    0.10
   2  -5   8    1.62    0.18
   3  -5   8    0.01    0.08
   4  -5   8    0.54    0.11
   5  -5   8    0.75    0.11
 -10   0   9   -0.04    0.06
  -9   0   9    0.32    0.08
  -8   0   9   -0.14    0.08
   8   0  -9    0.13    0.13
  -7   0   9   32.96    1.08
   7   0  -9   31.44    1.09
   6   0  -9   -0.09    0.16
   6   0  -9    0.06    0.13
  -6   0   9   -0.05    0.10
   6   0  -9   -0.14    0.14
   5   0  -9   25.25    0.87
   5   0  -9   23.10    0.85
   5   0  -9   24.41    0.84
  -5   0   9   23.47    0.83
   4   0  -9    0.07    0.12
   4   0  -9    0.06    0.12
  -4   0   9    0.10    0.14
   4   0  -9   -0.07    0.11
   3   0  -9   12.14    0.48
   3   0  -9   11.50    0.49
   3   0  -9   11.94    0.47
   2   0  -9    0.07    0.14
   2   0  -9   -0.02    0.11
   2   0  -9   -0.04    0.10
   1   0  -9   12.52    0.48
   1   0  -9   12.86    0.49
   1   0  -9   12.10    0.51
   0   0  -9    0.03    0.08
   0   0  -9    0.19    0.12
   0   0  -9    0.03    0.12
  -1   0  -9   62.86    2.03
  -1   0  -9   63.02    2.02
  -1   0  -9   63.88    2.00
  -2   0  -9    0.07    0.11
  -2   0  -9    0.02    0.10
  -3   0  -9    0.22    0.11
  -3   0  -9    0.29    0.11
  -4   0  -9    0.05    0.08
  -4   0  -9    0.03    0.12
  -5   0  -9   12.23    0.50
   5   0   9   10.98    0.46
   6   0   9   -0.25    0.15
  -6   0  -9    0.07    0.16
   8   0   9   -0.14    0.08
   9   0   9    0.79    0.13
  10   0   9    0.01    0.06
  10  -1  -9    0.60    0.17
 -10  -1   9    0.84    0.10
 -10   1   9    0.70    0.09
  -9  -1   9    7.02    0.30
   9  -1  -9    6.93    0.31
  -9   1   9    6.63    0.29
  -8  -1   9   18.81    0.65
   8  -1  -9   17.69    0.65
   8  -1  -9   18.81    0.67
   8   1  -9   17.37    0.70
  -8   1   9   18.57    0.65
   7  -1  -9    0.27    0.10
  -7  -1   9    0.23    0.09
   7  -1  -9    0.08    0.11
   7   1  -9    0.21    0.14
   6  -1  -9    2.88    0.22
  -6  -1   9    2.87    0.22
   6  -1  -9    3.07    0.24
   6   1  -9    3.15    0.24
  -5  -1   9   10.10    0.42
   5  -1  -9   10.09    0.42
   5  -1  -9    9.97    0.44
   5   1  -9   10.22    0.45
   4  -1  -9    5.24    0.30
   4  -1  -9    5.57    0.28
  -4  -1   9    5.07    0.30
   4  -1  -9    5.42    0.30
   4   1  -9    5.30    0.32
   4   1  -9    5.25    0.29
  -3  -1   9   42.71    1.44
   3  -1  -9   45.01    1.44
   3  -1  -9   45.63    1.46
   3  -1  -9   43.51    1.45
   3   1  -9   45.28    1.44
   3   1  -9   43.53    1.47
   2  -1  -9    3.18    0.24
   2  -1  -9    3.34    0.21
   2  -1  -9    3.37    0.22
   2   1  -9    2.99    0.22
   2   1  -9    3.18    0.21
   1  -1  -9   49.94    1.62
   1  -1  -9   51.27    1.61
   1  -1  -9   49.35    1.61
   1   1  -9   48.30    1.60
   1   1  -9   50.49    1.63
   0  -1  -9    2.67    0.21
   0  -1  -9    2.61    0.21
   0  -1  -9    2.69    0.19
   0   1  -9    2.78    0.20
   0   1  -9    1.91    0.31
  -1  -1  -9   37.06    1.20
  -1  -1  -9   35.61    1.22
  -1  -1  -9   36.43    1.21
  -1   1  -9   34.53    1.21
  -1   1  -9   38.00    1.22
  -2  -1  -9    1.78    0.21
  -2  -1  -9    2.10    0.20
  -2  -1  -9    2.18    0.19
  -2   1  -9    2.24    0.24
  -2   1  -9    2.17    0.19
   3  -1   9    1.12    0.18
  -3  -1  -9    1.12    0.17
  -3  -1  -9    1.18    0.17
  -3   1  -9    1.12    0.21
  -3   1  -9    1.37    0.19
  -4  -1  -9    0.36    0.12
  -4  -1  -9    0.24    0.10
   4  -1   9    0.58    0.13
  -4   1  -9    0.63    0.21
  -5  -1  -9    0.19    0.14
   5  -1   9    0.38    0.11
  -5  -1  -9    0.27    0.10
  -5   1  -9    0.87    0.31
  -6  -1  -9    5.05    0.32
   6  -1   9    5.22    0.28
   7  -1   9    3.96    0.26
  -7  -1  -9    3.98    0.30
   7  -1   9    3.91    0.25
   8  -1   9    5.46    0.28
  -8  -1  -9    5.40    0.39
   8   1   9    5.99    0.29
   9  -1   9    0.11    0.07
   9   1   9    0.02    0.08
  10  -2  -9   -0.02    0.07
 -10  -2   9    0.01    0.05
 -10   2   9    0.05    0.06
  -9  -2   9    2.75    0.15
   9  -2  -9    2.20    0.18
   9  -2  -9    2.58    0.17
   9   2  -9    2.78    0.29
  -9   2   9    2.75    0.16
   8  -2  -9    3.76    0.21
   8  -2  -9    3.49    0.21
  -8  -2   9    3.75    0.21
   8   2  -9    3.49    0.25
   7  -2  -9    4.63    0.26
  -7  -2   9    4.52    0.25
   7  -2  -9    4.73    0.27
   7   2  -9    4.49    0.29
  -6  -2   9    0.26    0.10
   6  -2  -9    0.38    0.11
   6  -2  -9    0.63    0.16
   6   2  -9    0.34    0.13
  -5  -2   9   -0.06    0.09
   5  -2  -9    0.00    0.09
   5  -2  -9    0.08    0.10
   5   2  -9    0.21    0.12
   4  -2  -9    0.60    0.16
  -4  -2   9    0.74    0.14
   4  -2  -9    0.83    0.17
   4   2  -9    0.63    0.16
   3  -2  -9    7.74    0.35
  -3  -2   9    7.46    0.35
   3  -2  -9    7.43    0.36
   3  -2  -9    7.55    0.38
   3   2  -9    7.83    0.38
   2  -2  -9    0.94    0.17
   2  -2  -9    1.03    0.18
   2  -2  -9    1.04    0.16
  -2  -2   9    0.82    0.15
   2   2  -9    1.06    0.17
   1  -2  -9    0.01    0.11
   1  -2  -9    0.02    0.11
   1  -2  -9    0.16    0.10
   1   2  -9    0.09    0.11
   0  -2  -9    1.64    0.18
   0  -2  -9    1.38    0.18
   0  -2  -9    1.46    0.18
   0   2  -9    1.68    0.19
  -1  -2  -9    1.13    0.16
  -1  -2  -9    1.10    0.18
   1  -2   9    1.06    0.18
  -1  -2  -9    1.60    0.22
  -1   2  -9    0.96    0.17
   2  -2   9    3.41    0.23
  -2  -2  -9    3.35    0.28
  -2  -2  -9    4.08    0.26
  -2  -2  -9    3.35    0.25
  -2   2  -9    4.17    0.26
  -3  -2  -9    0.10    0.09
   3  -2   9    0.25    0.10
  -3  -2  -9    0.22    0.12
  -3   2  -9    0.35    0.19
   4  -2   9    1.73    0.19
   4  -2   9    2.08    0.26
  -4  -2  -9    2.08    0.20
  -4  -2  -9    2.16    0.22
   5  -2   9    3.02    0.26
  -5  -2  -9    3.91    0.25
  -5  -2  -9    3.07    0.25
   5  -2   9    3.07    0.22
  -6  -2  -9   22.24    0.87
   6  -2   9   24.04    0.83
   6  -2   9   23.69    0.81
  -7  -2  -9    2.57    0.25
   7  -2   9    2.92    0.20
   7  -2   9    2.80    0.21
   8  -2   9    6.25    0.28
  -8  -2  -9    6.11    0.35
   8  -2   9    5.85    0.27
   8   2   9    6.00    0.29
   9  -2   9    0.09    0.07
  -9  -3   9    0.27    0.07
   9  -3  -9    0.17    0.06
   9  -3  -9    0.39    0.11
  -9   3   9    0.39    0.10
  -8  -3   9    2.70    0.15
   8  -3  -9    2.69    0.17
   8  -3  -9    2.51    0.16
   8   3  -9    3.03    0.22
   7  -3  -9    3.63    0.21
   7  -3  -9    3.42    0.21
  -7  -3   9    3.60    0.19
   7   3  -9    3.80    0.25
   6  -3  -9    1.70    0.17
  -6  -3   9    1.76    0.16
   6  -3  -9    2.03    0.19
   6   3  -9    1.48    0.18
   5  -3  -9   20.86    0.75
   5  -3  -9   20.99    0.72
   5  -3  -9   21.21    0.74
  -5  -3   9   20.42    0.72
   5   3  -9   19.08    0.77
   4  -3  -9    2.89    0.22
   4  -3  -9    2.58    0.21
   4  -3  -9    2.65    0.26
  -4  -3   9    2.79    0.21
   4   3  -9    2.53    0.22
   3  -3  -9    3.06    0.23
   3  -3  -9    2.68    0.21
  -3  -3   9    2.76    0.22
   3   3  -9    2.64    0.22
   2  -3  -9   47.99    1.60
   2  -3  -9   48.29    1.62
  -2  -3   9   49.52    1.60
   2   3  -9   52.19    1.65
   1  -3  -9   26.89    0.90
  -1  -3   9   25.35    0.89
   1  -3  -9   26.45    0.94
  -1  -3   9   25.54    0.89
   1  -3  -9   25.19    0.91
   1   3  -9   26.64    0.93
   0  -3  -9   29.61    1.03
   0  -3  -9   29.68    1.01
   0  -3  -9   30.62    1.06
   0  -3   9   29.25    1.01
   0   3  -9   31.00    1.05
  -1  -3  -9    7.39    0.38
  -1  -3  -9    8.30    0.39
  -1  -3  -9    7.75    0.37
   1  -3   9    8.06    0.36
  -1   3  -9    8.10    0.40
  -2  -3  -9    2.97    0.25
  -2  -3  -9    3.14    0.24
   2  -3   9    2.91    0.22
  -3  -3  -9    5.71    0.31
   3  -3   9    5.82    0.29
  -3  -3  -9    5.69    0.33
  -4  -3  -9    7.65    0.40
   4  -3   9    8.49    0.37
  -4  -3  -9    8.75    0.37
  -5  -3  -9    3.32    0.26
   5  -3   9    3.61    0.22
  -6  -3  -9   -0.01    0.14
   6  -3   9    0.16    0.08
   7  -3   9    1.32    0.13
   7  -3   9    1.87    0.26
  -7  -3  -9    1.40    0.20
   8  -3   9    3.07    0.16
  -7  -4   9    0.16    0.06
   7  -4  -9    0.32    0.09
   7   4  -9    0.28    0.14
   6  -4  -9    4.33    0.21
   6  -4  -9    4.05    0.20
  -6  -4   9    4.04    0.20
   6   4  -9    4.25    0.25
   5  -4  -9    4.34    0.23
  -5  -4   9    4.12    0.21
   5  -4  -9    3.96    0.21
   5   4  -9    4.30    0.26
   4  -4  -9    1.28    0.14
  -4  -4   9    1.28    0.15
   4  -4  -9    1.31    0.15
   4   4  -9    1.35    0.18
   3  -4  -9   -0.01    0.07
   3  -4  -9    0.01    0.09
  -3  -4   9   -0.04    0.07
   3   4  -9    0.16    0.13
   2  -4  -9   24.09    0.82
  -2  -4   9   24.36    0.81
   2  -4  -9   25.17    0.81
   2   4  -9   20.55    0.84
   1  -4  -9    0.22    0.12
   1  -4  -9   -0.08    0.11
  -1  -4   9    0.15    0.11
   1   4  -9    0.04    0.21
   0  -4   9    0.91    0.21
   0  -4  -9    1.13    0.22
   1  -4   9    0.20    0.12
  -1  -4  -9    0.00    0.13
  -1  -4  -9    0.14    0.20
  -2  -4  -9    5.59    0.34
   2  -4   9    5.85    0.28
   3  -4   9    4.91    0.24
  -3  -4  -9    4.27    0.31
  -4  -4  -9    0.07    0.15
   4  -4   9    0.03    0.07
  -5  -4  -9    3.08    0.24
   5  -4   9    2.75    0.17
   6  -4   9    0.33    0.09
  -6  -4  -9    0.42    0.15
   5  -5  -9    3.86    0.18
  -5  -5   9    4.56    0.18
   4  -5  -9   -0.02    0.08
  -4  -5   9    0.09    0.06
  -3  -5   9    2.89    0.16
   3  -5  -9    2.71    0.18
  -2  -5   9    2.80    0.16
  -1  -5   9    4.82    0.23
   0  -5   9    0.42    0.12
   3  -5   9    1.33    0.16
   4  -5   9    3.70    0.18
 -10   0  10    2.48    0.14
  -9   0  10   -0.03    0.06
  -8   0  10   14.38    0.52
  -7   0  10    0.10    0.09
   7   0 -10   -0.08    0.12
   6   0 -10    0.06    0.13
   6   0 -10    0.04    0.14
   6   0 -10    0.07    0.13
  -6   0  10    0.15    0.11
   5   0 -10    0.26    0.12
  -5   0  10   -0.05    0.12
   5   0 -10    0.12    0.12
   5   0 -10   -0.23    0.14
   4   0 -10   64.24    2.09
   4   0 -10   66.06    2.08
   4   0 -10   69.08    2.12
  -4   0  10   62.68    2.08
   3   0 -10   -0.03    0.13
   3   0 -10    0.15    0.11
   3   0 -10    0.00    0.10
   2   0 -10    1.30    0.18
   2   0 -10    0.83    0.20
   2   0 -10    1.09    0.15
   1   0 -10    0.02    0.09
   1   0 -10    0.13    0.12
   1   0 -10    0.04    0.10
   0   0 -10    0.55    0.13
   0   0 -10    0.78    0.14
   0   0 -10    0.71    0.17
  -1   0 -10    0.01    0.10
  -1   0 -10   -0.07    0.09
  -1   0 -10   -0.23    0.10
  -2   0 -10   23.61    0.85
  -2   0 -10   25.04    0.87
  -3   0 -10   -0.04    0.10
  -3   0 -10   -0.07    0.11
   4   0  10    5.46    0.30
  -4   0 -10    5.56    0.30
  -4   0 -10    5.59    0.32
  -5   0 -10    0.18    0.14
   5   0  10    0.35    0.11
  -6   0 -10   50.39    1.73
   6   0  10   54.77    1.69
   7   0  10    0.03    0.09
   8   0  10    4.01    0.22
   9   0  10    0.00    0.07
 -10  -1  10    0.21    0.06
 -10   1  10    0.09    0.06
   9  -1 -10    0.02    0.09
  -9  -1  10    0.07    0.06
  -9   1  10   -0.06    0.06
   8  -1 -10   13.12    0.50
  -8  -1  10   13.69    0.50
   8  -1 -10   13.10    0.50
   8   1 -10   13.33    0.55
  -8   1  10   13.37    0.49
  -7  -1  10    9.78    0.40
   7  -1 -10    9.50    0.41
   7  -1 -10   10.19    0.41
   7   1 -10    9.11    0.43
  -7   1  10    9.41    0.40
   6  -1 -10    0.27    0.10
   6  -1 -10    0.23    0.11
  -6  -1  10    0.11    0.10
  -6   1  10    0.29    0.11
   6   1 -10    0.28    0.14
   5  -1 -10    0.14    0.09
   5  -1 -10    0.15    0.10
  -5  -1  10    0.09    0.12
   5  -1 -10    0.02    0.16
   5   1 -10    0.22    0.15
   5   1 -10    0.23    0.13
   4  -1 -10    1.59    0.18
  -4  -1  10    1.46    0.23
   4  -1 -10    1.44    0.20
   4  -1 -10    1.69    0.20
   4   1 -10    1.63    0.20
   4   1 -10    1.37    0.18
   3  -1 -10    3.27    0.22
   3  -1 -10    3.42    0.24
   3  -1 -10    2.89    0.24
   3   1 -10    3.28    0.22
   3   1 -10    3.40    0.24
   2  -1 -10   33.22    1.11
   2  -1 -10   33.52    1.13
   2  -1 -10   32.64    1.12
   2   1 -10   33.20    1.14
   2   1 -10   33.11    1.10
   1  -1 -10    6.05    0.31
   1  -1 -10    5.98    0.30
   1  -1 -10    6.16    0.31
   1   1 -10    6.53    0.31
   1   1 -10    5.91    0.31
   1   1 -10    5.44    0.39
   0  -1 -10   13.68    0.55
   0  -1 -10   14.31    0.56
   0  -1 -10   14.47    0.54
   0   1 -10   14.80    0.56
   0   1 -10   13.73    0.57
  -1  -1 -10    4.91    0.28
  -1  -1 -10    4.29    0.27
  -1  -1 -10    5.05    0.26
  -1   1 -10    4.28    0.31
  -1   1 -10    4.92    0.28
  -2  -1 -10    8.70    0.39
  -2  -1 -10    7.28    0.36
  -2  -1 -10    7.97    0.35
  -2   1 -10    7.29    0.37
  -2   1 -10    8.58    0.38
  -3  -1 -10    1.42    0.18
  -3  -1 -10    1.26    0.18
   3  -1  10    1.24    0.18
  -3   1 -10    1.47    0.19
  -3   1 -10    1.13    0.21
  -4  -1 -10    2.81    0.24
   4  -1  10    2.91    0.22
  -4  -1 -10    2.73    0.22
  -4   1 -10    2.82    0.25
  -5  -1 -10   17.24    0.70
   5  -1  10   18.50    0.66
  -5  -1 -10   18.14    0.66
  -6  -1 -10    0.15    0.15
   6  -1  10   -0.08    0.09
   6  -1  10   -0.04    0.10
   7  -1  10    2.35    0.19
  -7  -1 -10    2.48    0.27
   7  -1  10    2.26    0.20
   8  -1  10    0.07    0.07
   8   1  10    0.03    0.08
   9  -1  10    0.57    0.10
   9   1  10    0.63    0.13
  -9  -2  10    2.77    0.15
   9  -2 -10    2.80    0.16
   9  -2 -10    2.47    0.20
  -9   2  10    2.47    0.15
  -8  -2  10    2.67    0.16
   8  -2 -10    2.48    0.18
   8  -2 -10    2.74    0.17
   8   2 -10    2.74    0.24
  -8   2  10    2.62    0.17
   7  -2 -10    0.71    0.13
   7  -2 -10    1.00    0.15
  -7  -2  10    0.75    0.14
   7   2 -10    1.12    0.18
   6  -2 -10    0.48    0.16
  -6  -2  10    0.35    0.11
   6  -2 -10    0.59    0.15
   6   2 -10    0.30    0.13
  -5  -2  10    9.29    0.40
   5  -2 -10    9.63    0.42
   5  -2 -10    9.69    0.40
   5   2 -10    8.69    0.43
  -4  -2  10   15.81    0.58
   4  -2 -10   16.20    0.59
   4  -2 -10   15.65    0.60
   4   2 -10   14.46    0.62
  -3  -2  10    3.84    0.28
   3  -2 -10    4.26    0.25
   3  -2 -10    4.33    0.30
   3  -2 -10    4.01    0.26
   3   2 -10    4.52    0.28
   2  -2 -10    1.30    0.19
   2  -2 -10    1.45    0.17
   2  -2 -10    1.31    0.20
   2   2 -10    1.60    0.18
   1  -2 -10   58.12    1.89
   1  -2 -10   55.25    1.87
   1  -2 -10   61.10    1.91
   1   2 -10   59.04    1.91
   0  -2 -10   25.61    0.91
   0  -2 -10   27.82    0.95
   0  -2 -10   25.16    0.92
   0   2 -10   27.82    0.95
  -1  -2 -10    0.94    0.17
   1  -2  10    1.11    0.18
  -1  -2 -10    0.83    0.17
  -1  -2 -10    0.89    0.19
  -1   2 -10    0.91    0.18
   2  -2  10   -0.01    0.10
  -2  -2 -10    0.43    0.16
  -2  -2 -10    0.14    0.10
  -2  -2 -10    0.24    0.12
  -2   2 -10    0.41    0.16
  -3  -2 -10   12.50    0.51
   3  -2  10   12.65    0.50
  -3  -2 -10   13.34    0.55
  -3   2 -10   12.79    0.55
  -4  -2 -10    4.71    0.30
  -4  -2 -10    5.11    0.27
   4  -2  10    4.79    0.31
   4  -2  10    4.25    0.26
   5  -2  10   20.31    0.72
  -5  -2 -10   18.65    0.77
   5  -2  10   22.20    0.74
  -6  -2 -10    4.59    0.30
   6  -2  10    5.03    0.25
   6  -2  10    4.84    0.27
   7  -2  10   12.51    0.46
   7  -2  10   11.90    0.44
  -7  -2 -10   11.12    0.51
   7   2  10   12.17    0.46
  -8  -2 -10    0.36    0.26
   8  -2  10    0.43    0.12
   8   2  10    0.53    0.16
   8  -3 -10    0.66    0.10
  -8  -3  10    0.55    0.08
   8  -3 -10    0.72    0.11
   8   3 -10    0.93    0.23
  -8   3  10    0.72    0.12
   7  -3 -10   10.18    0.39
  -7  -3  10   10.24    0.37
   7  -3 -10    9.56    0.38
   7   3 -10    9.74    0.42
  -6  -3  10    0.71    0.12
   6  -3 -10    0.55    0.12
   6  -3 -10    0.71    0.13
   6   3 -10    0.71    0.15
   5  -3 -10    5.58    0.27
   5  -3 -10    5.45    0.28
  -5  -3  10    5.12    0.25
   5   3 -10    4.63    0.29
  -4  -3  10    2.41    0.20
   4  -3 -10    2.46    0.21
   4  -3 -10    2.20    0.19
   4   3 -10    2.19    0.21
   3  -3 -10    0.01    0.08
   3  -3 -10    0.01    0.09
  -3  -3  10    0.13    0.10
   3   3 -10   -0.01    0.11
  -2  -3  10    1.76    0.22
   2  -3 -10    1.79    0.18
   2  -3 -10    1.84    0.19
   2   3 -10    1.88    0.20
   1  -3 -10   10.63    0.43
   1  -3 -10   10.03    0.48
   1  -3 -10   10.49    0.44
  -1  -3  10   10.52    0.44
   1   3 -10   10.80    0.46
   0  -3  10   42.14    1.36
   0  -3 -10   41.54    1.37
   0  -3 -10   42.22    1.36
   0  -3 -10   39.75    1.40
   0   3 -10   42.24    1.40
   1  -3  10    0.21    0.10
  -1  -3 -10    0.25    0.11
  -1  -3 -10    0.19    0.13
  -1  -3 -10   -0.01    0.13
  -1   3 -10    0.43    0.21
   2  -3  10    2.09    0.20
  -2  -3 -10    2.34    0.22
  -2  -3 -10    2.07    0.21
  -3  -3 -10   11.76    0.46
  -3  -3 -10   11.01    0.50
   3  -3  10   11.43    0.46
  -4  -3 -10    0.40    0.14
  -4  -3 -10    0.39    0.11
   4  -3  10    0.65    0.14
   5  -3  10    0.79    0.13
  -5  -3 -10    0.86    0.18
  -6  -3 -10    0.85    0.18
   6  -3  10    0.83    0.12
  -7  -3 -10    0.11    0.16
   7  -3  10    0.14    0.06
   7  -4 -10   -0.05    0.05
  -7  -4  10   -0.09    0.05
   7  -4 -10    0.06    0.06
   6  -4 -10    0.91    0.10
  -6  -4  10    0.79    0.10
   6   4 -10    0.77    0.17
   5  -4 -10    2.87    0.18
   5  -4 -10    3.53    0.18
  -5  -4  10    3.53    0.18
   5   4 -10    3.29    0.23
   4  -4 -10    0.45    0.12
   4  -4 -10    0.45    0.11
  -4  -4  10    0.48    0.12
   4   4 -10    0.47    0.16
   3  -4 -10    0.07    0.08
  -3  -4  10   -0.05    0.07
   3  -4 -10    0.08    0.08
   3   4 -10    0.13    0.15
  -2  -4  10    4.95    0.25
   2  -4 -10    4.91    0.26
   2  -4 -10    4.88    0.25
   2   4 -10    4.78    0.31
   1  -4 -10    0.97    0.16
   1  -4 -10    0.70    0.13
  -1  -4  10    0.75    0.20
  -1  -4 -10    5.38    0.37
   1  -4  10    4.96    0.26
  -1  -4 -10    4.99    0.27
  -2  -4 -10    0.99    0.24
   2  -4  10    1.45    0.16
   3  -4  10   -0.03    0.07
  -3  -4 -10   -0.08    0.17
   4  -4  10   -0.01    0.07
  -4  -4 -10   -0.04    0.15
   5  -4  10    0.53    0.10
  -5  -4 -10    0.30    0.17
   6  -4  10    1.35    0.11
  -3  -5  10    0.44    0.14
  -2  -5  10   -0.04    0.11
  -9   0  11    0.16    0.07
  -8   0  11   -0.04    0.07
  -7   0  11    2.26    0.18
  -6   0  11   -0.15    0.10
   6   0 -11   -0.03    0.11
   6   0 -11    0.05    0.13
   6   0 -11    0.05    0.14
   5   0 -11    6.02    0.33
  -5   0  11    6.31    0.32
   5   0 -11    6.95    0.34
   5   0 -11    6.25    0.31
   4   0 -11   -0.01    0.12
   4   0 -11    0.03    0.11
   4   0 -11   -0.02    0.09
   3   0 -11   37.30    1.28
   3   0 -11   39.46    1.31
   3   0 -11   39.06    1.27
   2   0 -11    0.01    0.10
   2   0 -11   -0.14    0.10
   2   0 -11    0.06    0.11
   1   0 -11   19.28    0.72
   1   0 -11   20.06    0.71
   1   0 -11   20.27    0.74
   0   0 -11    0.15    0.10
   0   0 -11    0.08    0.11
   0   0 -11    0.05    0.08
  -1   0 -11   23.50    0.85
  -1   0 -11   23.54    0.82
  -1   0 -11   23.47    0.83
  -2   0 -11    0.00    0.09
  -2   0 -11    0.00    0.10
  -3   0 -11    4.35    0.29
  -3   0 -11    4.44    0.26
   4   0  11    0.06    0.11
  -4   0 -11   -0.06    0.09
  -4   0 -11    0.04    0.12
   5   0  11    4.96    0.27
  -5   0 -11    4.35    0.30
  -6   0 -11    0.65    0.25
   7   0  11   21.20    0.74
   8   0  11    0.07    0.06
   9   0  11    0.65    0.11
  -9  -1  11    3.01    0.16
  -9   1  11    2.84    0.16
  -8  -1  11   10.34    0.39
   8  -1 -11   10.59    0.41
   8  -1 -11   10.30    0.40
  -8   1  11   10.46    0.39
   7  -1 -11    0.17    0.09
  -7  -1  11    0.13    0.09
   7  -1 -11   -0.01    0.08
  -7   1  11   -0.06    0.10
   7   1 -11    0.02    0.15
   6  -1 -11    0.00    0.09
   6  -1 -11    0.01    0.09
  -6  -1  11   -0.11    0.10
   6   1 -11   -0.02    0.13
  -6   1  11   -0.03    0.11
  -5  -1  11    1.69    0.21
   5  -1 -11    1.72    0.20
   5  -1 -11    1.79    0.18
   5   1 -11    1.67    0.22
  -5   1  11    1.52    0.24
   5   1 -11    1.50    0.19
   4  -1 -11    0.74    0.18
   4  -1 -11    0.75    0.19
   4  -1 -11    0.52    0.15
  -4  -1  11    0.40    0.14
   4   1 -11    0.58    0.15
   4   1 -11    0.59    0.18
   3  -1 -11    0.53    0.17
   3  -1 -11    0.54    0.16
   3  -1 -11    0.39    0.11
   3   1 -11    0.75    0.17
   3   1 -11    0.60    0.17
   2  -1 -11   15.64    0.58
   2  -1 -11   15.42    0.61
   2  -1 -11   15.45    0.59
   2   1 -11   16.07    0.62
   2   1 -11   15.18    0.58
   1  -1 -11    6.22    0.33
   1  -1 -11    6.36    0.30
   1  -1 -11    5.74    0.31
   1   1 -11    5.80    0.38
   1   1 -11    6.52    0.33
   0  -1 -11    2.90    0.22
   0  -1 -11    2.82    0.22
   0  -1 -11    2.44    0.21
   0   1 -11    3.00    0.23
   0   1 -11    2.64    0.27
  -1  -1 -11    2.60    0.21
  -1  -1 -11    2.92    0.22
  -1  -1 -11    2.98    0.23
  -1   1 -11    2.97    0.23
  -1   1 -11    2.77    0.27
  -2  -1 -11    0.50    0.17
  -2  -1 -11    0.73    0.17
  -2   1 -11    0.83    0.19
  -2   1 -11    0.69    0.17
   3  -1  11    5.95    0.30
  -3  -1 -11    5.80    0.31
  -3  -1 -11    6.12    0.34
  -3   1 -11    5.93    0.33
  -4  -1 -11    1.88    0.18
   4  -1  11    1.91    0.17
  -4  -1 -11    2.00    0.21
  -4   1 -11    1.81    0.24
  -5  -1 -11    0.45    0.15
   5  -1  11    0.43    0.11
   6  -1  11   20.73    0.73
   6  -1  11   20.74    0.71
  -6  -1 -11   19.98    0.76
   7  -1  11    0.19    0.10
  -7  -1 -11    0.17    0.20
   7  -1  11    0.23    0.08
   8  -1  11    0.69    0.12
   8   1  11    1.12    0.12
   9  -2 -11    0.48    0.11
  -9  -2  11    0.53    0.09
  -9   2  11    0.41    0.11
   8  -2 -11    0.68    0.12
   8  -2 -11    0.57    0.12
  -8  -2  11    0.67    0.11
   8   2 -11    1.06    0.22
  -8   2  11    1.03    0.14
   7  -2 -11    0.10    0.07
  -7  -2  11    0.15    0.07
   7  -2 -11    0.06    0.08
  -7   2  11    0.25    0.10
   7   2 -11    0.14    0.13
  -6  -2  11    0.04    0.08
   6  -2 -11   -0.05    0.07
   6  -2 -11    0.01    0.08
   6   2 -11   -0.09    0.12
  -6   2  11   -0.01    0.11
   5  -2 -11    1.68    0.19
  -5  -2  11    1.19    0.18
   5  -2 -11    1.69    0.17
   5   2 -11    1.42    0.19
  -4  -2  11   16.93    0.61
   4  -2 -11   17.10    0.62
   4  -2 -11   17.17    0.64
   4   2 -11   15.95    0.66
   3  -2 -11    0.71    0.16
  -3  -2  11    0.59    0.18
   3  -2 -11    0.69    0.15
   3  -2 -11    0.45    0.19
   3   2 -11    0.69    0.16
   2  -2 -11   43.65    1.32
   2  -2 -11   43.44    1.34
   2  -2 -11   38.07    1.34
   2   2 -11   34.42    1.34
   1  -2 -11    6.57    0.34
   1  -2 -11    7.05    0.34
   1  -2 -11    7.60    0.37
   1   2 -11    7.49    0.37
   0  -2 -11   79.96    2.48
   0  -2  11   75.88    2.42
   0  -2 -11   73.18    2.44
   0  -2 -11   74.69    2.42
   0   2 -11   80.55    2.48
  -1  -2 -11    0.46    0.12
  -1  -2 -11    0.51    0.16
  -1  -2 -11    0.57    0.17
   1  -2  11    0.60    0.16
  -1   2 -11    0.54    0.18
  -2  -2 -11    1.25    0.17
  -2  -2 -11    1.22    0.19
  -2  -2 -11    1.66    0.20
   2  -2  11    1.09    0.18
  -2   2 -11    1.49    0.21
  -3  -2 -11    9.00    0.38
   3  -2  11    8.59    0.37
  -3  -2 -11    8.25    0.42
  -3   2 -11    8.02    0.43
   4  -2  11    0.30    0.10
  -4  -2 -11    0.06    0.08
  -4  -2 -11    0.03    0.12
   4  -2  11    0.21    0.14
  -5  -2 -11    0.22    0.12
   5  -2  11    0.08    0.10
   5  -2  11    0.04    0.08
   6  -2  11    3.56    0.20
   6  -2  11    3.54    0.22
  -6  -2 -11    3.61    0.26
  -7  -2 -11    0.79    0.22
   7  -2  11    0.93    0.12
   7  -2  11    0.89    0.15
   7   2  11    0.83    0.15
   8  -2  11    3.79    0.20
   8   2  11    4.25    0.24
  -8  -3  11    2.44    0.14
   8  -3 -11    2.48    0.14
   8  -3 -11    2.76    0.14
  -7  -3  11    3.42    0.17
   7  -3 -11    3.22    0.17
   7  -3 -11    3.47    0.18
   7   3 -11    3.90    0.23
  -7   3  11    3.84    0.22
   6  -3 -11    0.13    0.07
   6  -3 -11    0.05    0.07
  -6  -3  11    0.10    0.06
   6   3 -11    0.33    0.13
   5  -3 -11    9.98    0.40
  -5  -3  11   10.78    0.40
   5   3 -11   10.23    0.45
   4  -3 -11    5.20    0.27
  -4  -3  11    5.59    0.26
   4  -3 -11    4.68    0.25
   4   3 -11    5.17    0.30
  -3  -3  11    0.20    0.12
   3  -3 -11    0.04    0.08
   3  -3 -11    0.08    0.08
   3   3 -11    0.00    0.12
   2  -3 -11    1.49    0.18
   2  -3 -11    1.85    0.17
   2   3 -11    1.91    0.21
   1  -3 -11   14.43    0.54
   1  -3 -11   13.06    0.57
  -1  -3  11   13.83    0.52
   1  -3 -11   14.42    0.53
   1   3 -11   13.36    0.56
   0  -3 -11   41.61    1.51
   0  -3  11   46.82    1.47
   0  -3 -11   47.21    1.47
   0  -3 -11   47.42    1.49
   0   3 -11   44.08    1.51
   1  -3  11    0.26    0.10
  -1  -3 -11    0.63    0.16
  -1  -3 -11    0.30    0.12
  -1  -3 -11    0.46    0.18
  -1   3 -11    0.22    0.21
  -2  -3 -11    1.08    0.19
   2  -3  11    0.78    0.15
  -2  -3 -11    0.75    0.16
   3  -3  11   10.71    0.42
  -3  -3 -11   10.09    0.46
  -3  -3 -11   10.83    0.42
   4  -3  11    6.53    0.28
  -4  -3 -11    6.03    0.34
  -4  -3 -11    6.27    0.28
   5  -3  11    2.25    0.16
  -5  -3 -11    2.63    0.22
   6  -3  11   -0.05    0.06
  -6  -3 -11   -0.07    0.14
   7  -3  11    0.45    0.09
   6  -4 -11    0.76    0.09
   6  -4 -11    0.94    0.11
  -6  -4  11    0.68    0.11
  -5  -4  11    5.21    0.22
   5  -4 -11    5.53    0.23
   5  -4 -11    5.19    0.22
   5   4 -11    4.97    0.28
   4  -4 -11    0.50    0.12
   4  -4 -11    0.34    0.10
  -4  -4  11    0.19    0.08
   4   4 -11    0.20    0.14
  -3  -4  11    3.61    0.21
   3  -4 -11    3.51    0.19
   3  -4 -11    3.31    0.20
   3   4 -11    3.39    0.25
   2  -4 -11    1.77    0.16
   2  -4 -11    1.76    0.15
   2   4 -11    2.31    0.25
   1  -4 -11    0.61    0.15
   1  -4 -11    0.34    0.10
   0  -4 -11    4.21    0.23
  -1  -4 -11    0.84    0.17
   1  -4  11    0.94    0.16
  -2  -4 -11    2.66    0.31
   2  -4  11    3.09    0.18
  -3  -4 -11    3.63    0.29
   3  -4  11    3.64    0.19
  -4  -4 -11    0.68    0.22
   4  -4  11    0.71    0.11
   5  -4  11   -0.04    0.05
  -9   0  12   -0.14    0.07
  -8   0  12   51.25    1.61
  -7   0  12   -0.05    0.09
   6   0 -12    5.96    0.34
  -6   0  12    6.67    0.32
   6   0 -12    6.48    0.33
   6   0 -12    6.62    0.29
   5   0 -12   -0.06    0.10
   5   0 -12    0.08    0.12
   5   0 -12   -0.08    0.12
   4   0 -12    3.16    0.25
   4   0 -12    2.59    0.23
   4   0 -12    3.14    0.22
   3   0 -12   -0.02    0.11
   3   0 -12    0.05    0.11
   3   0 -12    0.02    0.09
   2   0 -12    2.26    0.22
   2   0 -12    2.22    0.21
   2   0 -12    2.07    0.19
   1   0 -12   -0.05    0.08
   1   0 -12   -0.08    0.11
   1   0 -12    0.40    0.13
   0   0 -12    2.62    0.20
   0   0 -12    2.61    0.23
   0   0 -12    2.73    0.22
  -1   0 -12   -0.17    0.10
  -1   0 -12   -0.10    0.09
  -2   0 -12    0.05    0.10
  -2   0 -12    0.07    0.10
  -3   0 -12   -0.02    0.09
  -3   0 -12    0.10    0.12
   4   0  12   10.39    0.41
  -4   0 -12    9.37    0.44
  -5   0 -12    0.17    0.16
   5   0  12    0.11    0.09
  -6   0 -12   52.30    1.74
   6   0  12   53.87    1.68
   7   0  12   -0.02    0.07
   8   0  12   11.40    0.41
  -9  -1  12    1.00    0.12
   8  -1 -12   12.61    0.46
  -8  -1  12   13.03    0.45
  -8   1  12   12.75    0.45
   7  -1 -12   10.36    0.40
   7  -1 -12   10.69    0.41
  -7  -1  12   10.77    0.40
  -7   1  12   10.69    0.41
   7   1 -12   10.75    0.46
  -6  -1  12    2.82    0.21
   6  -1 -12    2.71    0.18
   6  -1 -12    2.65    0.20
   6   1 -12    2.48    0.21
  -6   1  12    2.66    0.23
   5  -1 -12    0.04    0.09
  -5  -1  12   -0.07    0.13
   5  -1 -12    0.11    0.20
   5  -1 -12    0.16    0.09
   5   1 -12    0.00    0.12
   4  -1 -12    1.17    0.18
   4  -1 -12    0.81    0.20
   4  -1 -12    0.92    0.16
   4   1 -12    0.94    0.16
   3  -1 -12    4.08    0.27
   3  -1 -12    4.44    0.26
   3  -1 -12    4.02    0.24
   3   1 -12    3.86    0.26
   2  -1 -12    0.15    0.09
   2  -1 -12   -0.15    0.11
   2  -1 -12    0.00    0.08
   2   1 -12    0.05    0.10
   1  -1 -12    0.16    0.10
   1  -1 -12    0.05    0.09
   1  -1 -12    0.19    0.12
   1   1 -12   -0.06    0.10
   1   1 -12   -0.07    0.14
   0  -1 -12    0.06    0.10
   0  -1 -12    0.13    0.10
   0  -1 -12    0.10    0.12
   0   1 -12    0.25    0.11
   0   1 -12    0.10    0.14
  -1  -1 -12   13.78    0.53
  -1  -1 -12   13.49    0.51
  -1  -1 -12   13.00    0.56
  -1   1 -12   13.16    0.55
  -1   1 -12   14.14    0.54
  -2  -1 -12    2.41    0.21
  -2  -1 -12    2.51    0.20
  -2   1 -12    2.42    0.22
  -2   1 -12    2.19    0.23
   3  -1  12    0.24    0.10
  -3  -1 -12    0.14    0.09
  -3  -1 -12    0.01    0.12
  -3   1 -12    0.24    0.15
  -4  -1 -12    7.08    0.32
   4  -1  12    6.70    0.31
  -4  -1 -12    6.30    0.35
  -4   1 -12    6.04    0.36
   4   1  12    6.67    0.32
   5  -1  12    0.01    0.08
  -5  -1 -12   -0.06    0.13
   6  -1  12   33.32    1.06
   6  -1  12   31.13    1.04
  -6  -1 -12   31.06    1.10
   7  -1  12    4.65    0.25
   7  -1  12    4.79    0.23
   7   1  12    4.81    0.23
   8  -1  12    2.84    0.16
   8   1  12    2.92    0.16
   8  -2 -12    0.08    0.08
  -8  -2  12   -0.05    0.06
   8  -2 -12   -0.04    0.06
  -7  -2  12    0.82    0.12
   7  -2 -12    0.60    0.12
   7  -2 -12    0.69    0.11
   7   2 -12    0.64    0.17
   6  -2 -12    0.77    0.13
   6  -2 -12    0.68    0.12
  -6  -2  12    0.66    0.15
  -5  -2  12   27.77    0.93
   5  -2 -12   27.84    0.95
   5  -2 -12   27.72    0.95
   5   2 -12   28.76    0.99
   4  -2 -12    1.29    0.15
   4  -2 -12    1.31    0.17
   4   2 -12    1.06    0.17
   3  -2 -12    7.06    0.33
  -3  -2  12    6.57    0.33
   3  -2 -12    7.06    0.32
   3  -2 -12    6.53    0.36
   3   2 -12    6.33    0.34
   2  -2 -12   26.56    0.98
   2  -2 -12   28.55    0.96
  -2  -2  12   28.17    0.94
   2  -2 -12   29.12    0.95
   2   2 -12   26.48    0.99
   1  -2 -12    1.47    0.16
   1  -2 -12    1.19    0.18
   1  -2 -12    1.19    0.19
  -1  -2  12    1.02    0.17
   1   2 -12    1.10    0.17
   0  -2 -12    1.24    0.19
   0  -2 -12    1.88    0.18
   0  -2 -12    1.79    0.19
   0  -2  12    1.93    0.19
   0   2 -12    1.62    0.19
  -1  -2 -12    2.92    0.24
  -1  -2 -12    3.40    0.23
   1  -2  12    3.41    0.23
  -1  -2 -12    3.13    0.21
  -1   2 -12    3.18    0.25
  -2  -2 -12    3.42    0.22
  -2  -2 -12    3.14    0.24
   2  -2  12    3.45    0.22
  -2   2 -12    3.28    0.27
   3  -2  12    4.04    0.23
  -3  -2 -12    3.66    0.27
  -3  -2 -12    3.96    0.24
   4  -2  12    6.21    0.32
  -4  -2 -12    6.49    0.29
  -4  -2 -12    5.98    0.33
   4  -2  12    6.24    0.29
   5  -2  12    0.23    0.11
   5  -2  12    0.02    0.07
  -5  -2 -12    0.03    0.11
   6  -2  12    0.19    0.11
  -6  -2 -12    0.39    0.15
   6  -2  12    0.06    0.07
   7  -2  12    0.09    0.08
   7   2  12    0.13    0.08
  -7  -3  12    0.13    0.08
   7  -3 -12    0.32    0.08
   7  -3 -12    0.14    0.06
   6  -3 -12    3.57    0.17
   6  -3 -12    3.14    0.18
  -6  -3  12    3.37    0.18
   6   3 -12    3.46    0.23
   5  -3 -12    0.60    0.11
   5  -3 -12    0.65    0.11
  -5  -3  12    0.33    0.10
   5   3 -12    0.44    0.15
   4  -3 -12    1.97    0.15
   4  -3 -12    1.81    0.15
  -4  -3  12    1.81    0.21
   4   3 -12    1.94    0.19
   3  -3 -12    1.05    0.14
   3  -3 -12    0.88    0.14
   3   3 -12    0.82    0.16
   2  -3 -12    5.73    0.27
   2  -3 -12    5.82    0.28
   2   3 -12    5.73    0.31
  -1  -3  12    0.23    0.11
   1  -3 -12    0.24    0.08
   1  -3 -12    0.12    0.08
   1  -3 -12    0.31    0.22
   1   3 -12    0.41    0.15
   0  -3 -12    7.48    0.32
   0  -3 -12    7.07    0.38
   0  -3 -12    7.66    0.33
   0  -3  12    7.65    0.32
   0   3 -12    7.01    0.37
  -1  -3 -12    0.18    0.11
  -1  -3 -12   -0.03    0.08
   1  -3  12    0.13    0.08
  -1  -3 -12   -0.05    0.14
  -2  -3 -12    8.75    0.36
  -2  -3 -12    8.34    0.41
   2  -3  12    9.13    0.36
  -3  -3 -12    4.76    0.28
  -3  -3 -12    4.55    0.23
   3  -3  12    4.47    0.23
   4  -3  12    1.17    0.13
  -4  -3 -12    1.26    0.18
  -5  -3 -12    6.55    0.34
   5  -3  12    6.56    0.27
   6  -3  12    0.14    0.06
   5  -4 -12   -0.02    0.06
   5  -4 -12    0.05    0.05
   4  -4 -12    1.22    0.12
   4  -4 -12    1.07    0.10
   3  -4 -12    1.24    0.11
   3  -4 -12    1.17    0.12
   2  -4 -12    0.21    0.08
   2  -4 -12    0.25    0.08
   1  -4 -12    2.39    0.21
   1  -4 -12    1.75    0.15
   0  -4 -12    1.61    0.15
   1  -4  12    0.09    0.09
  -1  -4 -12    0.01    0.10
   2  -4  12    0.24    0.08
   3  -4  12    2.09    0.14
   4  -4  12   -0.01    0.06
   6   0 -13   -0.09    0.09
   6   0 -13    0.26    0.19
   5   0 -13    1.09    0.18
   5   0 -13    1.03    0.14
   5   0 -13    1.25    0.21
   4   0 -13   -0.14    0.08
   4   0 -13    0.06    0.12
   4   0 -13   -0.02    0.11
   3   0 -13    4.96    0.25
   3   0 -13    4.66    0.28
   3   0 -13    4.91    0.28
   2   0 -13    0.03    0.11
   2   0 -13   -0.10    0.07
   2   0 -13    0.24    0.12
   1   0 -13   15.84    0.58
   1   0 -13   14.93    0.62
   1   0 -13   15.93    0.59
   0   0 -13    0.01    0.10
   0   0 -13   -0.14    0.10
  -1   0 -13   38.90    1.24
  -1   0 -13   35.67    1.28
  -2   0 -13   -0.08    0.11
  -2   0 -13   -0.09    0.08
   3   0  13    2.32    0.19
  -3   0 -13    2.18    0.21
  -3   0 -13    2.09    0.20
  -4   0 -13   -0.01    0.13
   4   0  13    0.10    0.09
   5   0  13   13.99    0.50
  -5   0 -13   13.45    0.56
   6   0  13    0.00    0.07
   7   0  13    5.38    0.23
  -7  -1  13    0.21    0.12
   7  -1 -13    0.11    0.08
   7  -1 -13   -0.01    0.09
   7   1 -13    0.15    0.20
   6  -1 -13    0.47    0.12
   6  -1 -13    0.46    0.13
   6   1 -13    0.53    0.17
   5  -1 -13    6.45    0.29
   5  -1 -13    6.78    0.30
   5   1 -13    6.45    0.33
   4  -1 -13    1.63    0.18
   4  -1 -13    1.37    0.21
   4  -1 -13    1.42    0.16
   4   1 -13    1.47    0.17
   3  -1 -13    8.26    0.41
   3  -1 -13    9.35    0.39
   3  -1 -13    9.52    0.38
   3   1 -13    8.45    0.41
   2  -1 -13    0.36    0.10
   2  -1 -13    0.18    0.09
   2  -1 -13    0.05    0.12
   2   1 -13    0.20    0.12
   1  -1 -13    3.90    0.23
   1  -1 -13    3.84    0.26
   1  -1 -13    4.05    0.25
   1   1 -13    3.77    0.25
   1   1 -13    3.72    0.47
   0  -1 -13    0.31    0.12
   0  -1 -13    0.63    0.16
   0  -1 -13    0.50    0.14
   0   1 -13    0.31    0.13
   0   1 -13    0.35    0.13
  -1  -1 -13    0.15    0.12
  -1  -1 -13    0.03    0.09
  -1   1 -13    0.10    0.12
  -1   1 -13   -0.08    0.11
  -2  -1 -13    5.12    0.31
  -2  -1 -13    5.45    0.28
   2  -1  13    5.29    0.27
  -2   1 -13    5.39    0.31
   3  -1  13    2.28    0.19
  -3  -1 -13    2.39    0.19
  -3  -1 -13    2.08    0.21
  -3   1 -13    2.17    0.22
  -4  -1 -13   -0.05    0.06
   4  -1  13   -0.02    0.07
  -4  -1 -13   -0.10    0.12
  -4   1 -13    0.39    0.20
   4   1  13    0.10    0.12
   5  -1  13    6.12    0.27
   5  -1  13    5.56    0.25
  -5  -1 -13    4.96    0.30
  -6  -1 -13    0.92    0.24
   6  -1  13    0.54    0.11
   6  -1  13    0.74    0.13
   7  -1  13    1.80    0.14
   7   1  13    1.71    0.13
   7  -2 -13    8.26    0.31
   7  -2 -13    8.04    0.30
   6  -2 -13    3.21    0.17
   6  -2 -13    3.46    0.19
   6   2 -13    3.53    0.23
   5  -2 -13    0.30    0.08
   5  -2 -13    0.11    0.07
   5   2 -13    0.11    0.11
   4  -2 -13    5.53    0.26
   4  -2 -13    5.56    0.27
   4   2 -13    5.11    0.29
   3  -2 -13    0.22    0.08
  -3  -2  13    0.26    0.12
   3  -2 -13    0.20    0.08
   3  -2 -13    0.23    0.22
   3   2 -13    0.11    0.11
  -2  -2  13    6.12    0.28
   2  -2 -13    6.25    0.30
   2  -2 -13    6.24    0.29
   2  -2 -13    6.03    0.34
   2   2 -13    5.74    0.32
  -1  -2  13   10.65    0.41
   1  -2 -13   10.37    0.41
   1  -2 -13   10.40    0.43
   1  -2 -13   10.29    0.46
   1   2 -13   10.06    0.45
   0  -2 -13    0.52    0.15
   0  -2  13    0.23    0.11
   0  -2 -13    0.14    0.09
   0  -2 -13    0.20    0.13
   0   2 -13    0.16    0.12
   1  -2  13    0.44    0.14
  -1  -2 -13    0.69    0.15
  -1  -2 -13    0.31    0.14
  -1   2 -13    0.43    0.16
  -2  -2 -13    0.08    0.07
   2  -2  13    0.06    0.07
  -2  -2 -13    0.18    0.13
  -2   2 -13   -0.21    0.17
  -3  -2 -13    3.06    0.23
   3  -2  13    3.26    0.19
  -3  -2 -13    2.98    0.19
  -4  -2 -13    0.19    0.14
  -4  -2 -13    0.33    0.10
   4  -2  13    0.36    0.11
   5  -2  13   -0.06    0.06
  -5  -2 -13   -0.03    0.12
   6  -2  13    0.46    0.10
   6  -3 -13    1.09    0.09
   6  -3 -13    1.03    0.10
   5  -3 -13    4.67    0.20
   5  -3 -13    4.78    0.21
   5   3 -13    4.33    0.25
   4  -3 -13    2.39    0.14
   4  -3 -13    2.24    0.15
   4   3 -13    2.00    0.19
   3  -3 -13    0.86    0.12
   3  -3 -13    0.75    0.11
   3   3 -13    0.55    0.16
   2  -3 -13   24.61    0.81
   2  -3 -13   24.00    0.82
   2   3 -13   24.64    0.86
   1  -3 -13   11.11    0.42
  -1  -3  13   11.25    0.42
   1  -3 -13   11.20    0.41
   1   3 -13   10.63    0.46
   0  -3 -13    9.91    0.38
   0  -3 -13   10.51    0.46
   0  -3 -13   10.21    0.40
   0  -3  13    9.91    0.39
   0   3 -13    9.94    0.46
   1  -3  13    2.64    0.17
  -1  -3 -13    2.74    0.17
  -1  -3 -13    2.96    0.25
  -2  -3 -13    0.10    0.07
   2  -3  13   -0.07    0.07
  -2  -3 -13    0.02    0.13
  -3  -3 -13    0.57    0.18
  -3  -3 -13    0.37    0.11
   3  -3  13    0.39    0.10
   4  -3  13    1.68    0.13
  -4  -3 -13    1.38    0.20
   5  -3  13    1.80    0.12
   3  -4 -13    0.74    0.11
   3  -4 -13    0.69    0.11
   2  -4 -13    0.45    0.11
   2  -4 -13    0.77    0.17
   1  -4 -13    0.48    0.12
   2  -4  13    0.17    0.14
   5   0 -14   -0.03    0.15
   4   0 -14    1.32    0.20
   4   0 -14    1.46    0.14
   4   0 -14    1.34    0.18
   3   0 -14    0.09    0.10
   3   0 -14    0.02    0.07
   3   0 -14   -0.01    0.11
   2   0 -14   18.83    0.65
   2   0 -14   16.83    0.68
   1   0 -14    0.01    0.11
   1   0 -14    0.05    0.08
   0   0 -14    6.70    0.31
   0   0 -14    6.25    0.33
  -1   0 -14    0.11    0.09
  -1   0 -14    0.03    0.11
  -2   0 -14    9.55    0.44
  -2   0 -14    9.80    0.39
   3   0  14    0.03    0.08
  -3   0 -14   -0.10    0.12
   4   0  14    0.22    0.08
  -4   0 -14    0.08    0.15
   5   0  14    0.04    0.09
  -5   0 -14    0.22    0.23
   6   0  14   23.82    0.78
   6  -1 -14    0.16    0.07
   6  -1 -14    0.20    0.08
   6   1 -14    0.15    0.16
   5  -1 -14    0.08    0.06
   5  -1 -14    0.15    0.08
   5   1 -14    0.26    0.12
   4  -1 -14   19.58    0.68
   4  -1 -14   19.73    0.67
   4  -1 -14   19.17    0.72
   4   1 -14   19.29    0.72
   3  -1 -14    3.93    0.26
   3  -1 -14    3.74    0.22
   3  -1 -14    3.69    0.20
   3   1 -14    3.56    0.24
   2  -1 -14    7.17    0.34
   2  -1 -14    7.30    0.37
   2  -1 -14    8.80    0.34
   2   1 -14    7.90    0.37
   1  -1 -14    6.65    0.30
   1  -1 -14    6.79    0.29
   1  -1 -14    5.90    0.33
   1   1 -14    5.67    0.31
   0  -1 -14    1.79    0.19
   0  -1 -14    1.95    0.18
   0   1 -14    1.34    0.18
   0   1 -14    1.44    0.23
  -1  -1 -14   -0.14    0.07
   1  -1  14   -0.19    0.08
  -1  -1 -14   -0.06    0.11
  -1   1 -14    0.14    0.12
  -2  -1 -14    1.68    0.19
  -2  -1 -14    1.77    0.16
   2  -1  14    1.76    0.15
  -2   1 -14    1.96    0.21
   3  -1  14    2.82    0.18
  -3  -1 -14    2.95    0.23
  -3  -1 -14    2.80    0.18
  -3   1 -14    3.01    0.25
   3   1  14    3.09    0.19
   4  -1  14    0.03    0.07
  -4  -1 -14    0.05    0.13
   4   1  14   -0.09    0.10
   5  -1  14    0.23    0.07
  -5  -1 -14    0.20    0.15
   5  -1  14    0.30    0.09
   6  -1  14    7.18    0.28
   6  -1  14    6.67    0.28
   6   1  14    6.80    0.27
   6  -2 -14    0.05    0.05
   6  -2 -14    0.10    0.06
   5  -2 -14   -0.01    0.06
   5  -2 -14    0.00    0.06
   5   2 -14    0.03    0.12
   4  -2 -14    2.40    0.15
   4  -2 -14    2.25    0.16
   4   2 -14    2.34    0.20
  -3  -2  14    0.45    0.11
   3  -2 -14    0.60    0.12
   3  -2 -14    0.43    0.10
   3   2 -14    0.58    0.14
   2  -2 -14    2.56    0.25
   2  -2 -14    2.32    0.16
  -2  -2  14    2.48    0.18
   2  -2 -14    2.38    0.17
   2   2 -14    2.25    0.20
  -1  -2  14   23.44    0.77
   1  -2 -14   22.34    0.81
   1  -2 -14   21.60    0.76
   1  -2 -14   22.50    0.77
   1   2 -14   22.41    0.81
   0  -2 -14    1.87    0.16
   0  -2 -14    1.87    0.15
   0  -2  14    1.83    0.15
   0  -2 -14    2.15    0.21
   0   2 -14    1.96    0.20
   1  -2  14    0.93    0.13
  -1  -2 -14    1.33    0.19
  -1  -2 -14    1.22    0.13
  -1   2 -14    1.23    0.20
  -2  -2 -14    2.62    0.21
  -2  -2 -14    2.52    0.17
   2  -2  14    2.51    0.17
  -2   2 -14    2.58    0.30
  -3  -2 -14   16.88    0.62
   3  -2  14   16.03    0.57
  -3  -2 -14   16.19    0.57
  -4  -2 -14   -0.02    0.11
   4  -2  14    0.08    0.06
   5  -2  14    8.66    0.32
   5  -3 -14   -0.01    0.05
   5  -3 -14    0.06    0.05
   4  -3 -14    0.53    0.09
   4  -3 -14    0.59    0.10
   3  -3 -14    0.72    0.10
   3  -3 -14    0.47    0.09
   3   3 -14    0.35    0.14
   2  -3 -14    0.27    0.07
   2  -3 -14    0.31    0.07
   2   3 -14    0.05    0.15
   1  -3 -14    5.01    0.22
   1  -3 -14    5.33    0.24
  -1  -3  14    5.49    0.25
   1   3 -14    5.09    0.31
   0  -3 -14   19.40    0.65
   0  -3  14   18.84    0.64
  -1  -3 -14    2.10    0.25
  -1  -3 -14    1.62    0.13
   1  -3  14    1.50    0.13
  -2  -3 -14    1.84    0.13
  -2  -3 -14    2.17    0.27
   2  -3  14    1.76    0.13
   3  -3  14    0.14    0.06
   4   0 -15    0.13    0.14
   3   0 -15    7.82    0.37
   3   0 -15    8.70    0.34
   2   0 -15    0.00    0.09
   2   0 -15    0.12    0.12
   1   0 -15    1.82    0.19
   1   0 -15    1.77    0.17
   0   0 -15   -0.09    0.08
   0   0 -15   -0.02    0.10
  -1   0 -15    2.07    0.16
  -1   0 -15    2.01    0.19
  -2   0 -15    0.07    0.12
   2   0  15   -0.09    0.07
   3   0  15    2.17    0.15
  -3   0 -15    2.45    0.21
   4   0  15    0.00    0.07
  -4   0 -15   -0.14    0.20
   5   0  15    2.77    0.16
   5  -1 -15    6.22    0.25
   5  -1 -15    6.06    0.24
   5   1 -15    5.36    0.30
   4  -1 -15    2.01    0.13
   4  -1 -15    1.94    0.15
  -4  -1  15    1.95    0.16
   4   1 -15    2.12    0.19
   3  -1 -15    0.04    0.06
   3  -1 -15    0.14    0.07
   3  -1 -15    0.58    0.19
   3   1 -15    0.00    0.11
   2  -1 -15   16.39    0.65
   2  -1 -15   17.91    0.61
   2   1 -15   17.71    0.65
   1  -1 -15    1.53    0.18
   1  -1 -15    1.40    0.14
   1   1 -15    1.37    0.17
   0  -1 -15    3.04    0.18
   0  -1  15    2.65    0.17
   0  -1 -15    2.52    0.21
   0   1 -15    2.93    0.22
   1  -1  15    2.50    0.17
  -1  -1 -15    2.70    0.17
  -1  -1 -15    2.74    0.21
  -1   1 -15    2.28    0.21
  -2  -1 -15    0.66    0.15
   2  -1  15    0.47    0.09
  -2   1 -15    0.31    0.15
  -3  -1 -15    3.15    0.22
   3  -1  15    3.04    0.17
  -3   1 -15    2.63    0.29
   3   1  15    2.82    0.19
  -4  -1 -15    0.25    0.16
   4  -1  15    0.05    0.10
   4  -1  15    0.16    0.07
   5  -1  15    0.08    0.07
   5  -2 -15    0.52    0.10
   5  -2 -15    0.29    0.08
   4  -2 -15    1.48    0.11
   4  -2 -15    1.56    0.12
   4   2 -15    1.48    0.18
   3  -2 -15    0.74    0.10
   3  -2 -15    0.95    0.11
   3   2 -15    0.84    0.16
   2  -2 -15    1.08    0.12
   2  -2 -15    0.95    0.10
  -2  -2  15    0.89    0.14
   2   2 -15    1.25    0.17
  -1  -2  15   -0.02    0.07
   1  -2 -15   -0.04    0.06
   1  -2 -15   -0.19    0.18
   1   2 -15    0.05    0.13
   0  -2 -15    0.40    0.10
   0  -2  15    0.26    0.07
   0  -2 -15    0.32    0.16
   0   2 -15    0.26    0.15
  -1  -2 -15    1.27    0.12
  -1  -2 -15    1.58    0.20
   1  -2  15    1.27    0.12
  -1   2 -15    1.05    0.25
   2  -2  15    1.53    0.12
  -2  -2 -15    2.03    0.19
  -2  -2 -15    1.48    0.12
   2   2  15    1.68    0.17
  -3  -2 -15    3.25    0.22
   3  -2  15    2.66    0.15
   4  -2  15    3.97    0.17
   2  -3 -15    0.58    0.09
   1  -3 -15    3.92    0.18
   0  -3  15    4.70    0.22
   0  -3 -15    4.71    0.20
  -1  -3 -15    0.06    0.06
   1  -3  15    0.13    0.07
   3   0 -16    0.03    0.14
   2   0 -16    0.47    0.16
   2   0 -16    0.49    0.16
   1   0 -16   -0.13    0.12
   1   0 -16   -0.06    0.08
   0   0 -16    0.78    0.15
   0   0 -16    0.71    0.13
  -1   0 -16    0.02    0.12
   1   0  16    0.06    0.06
  -2   0 -16    0.24    0.14
   2   0  16    0.17    0.07
   3   0  16   -0.07    0.06
   4   0  16    1.12    0.13
   4  -1 -16    1.42    0.14
  -3  -1  16    3.22    0.17
   3  -1 -16    3.62    0.18
   2  -1 -16    8.39    0.32
   2  -1 -16    8.95    0.39
  -2  -1  16    8.45    0.32
   1  -1 -16    0.02    0.07
  -1  -1  16   -0.03    0.06
   1  -1 -16   -0.09    0.14
   1   1 -16   -0.03    0.12
   0  -1 -16    0.27    0.07
   0  -1 -16    0.44    0.14
   0  -1  16    0.47    0.10
   0   1 -16    0.66    0.16
   1  -1  16    8.81    0.34
  -1  -1 -16    8.91    0.34
  -1  -1 -16    9.16    0.39
   1   1  16    9.43    0.34
  -1   1 -16    8.90    0.39
   2  -1  16    0.10    0.06
  -2  -1 -16    0.23    0.13
   2   1  16    0.07    0.08
   3  -1  16    0.05    0.06
   3  -2 -16    2.08    0.12
   2  -2 -16   13.88    0.47
  -1  -2  16    0.50    0.11
   0  -2  16    0.52    0.10
   0  -2 -16    0.60    0.09
   1  -2  16    0.03    0.06
  -1  -2 -16   -0.01    0.05
   1   2  16   -0.11    0.09
   2  -2  16    3.23    0.15
  -2   0  17   -0.02    0.06
  -1   0  17    4.19    0.18
   0   0  17    0.00    0.06
   1   0  17    3.60    0.16
  -1  -1  17    8.29    0.29
   1  -1 -17    7.64    0.29
   0  -1  17    0.08    0.06
   0   1  17    0.07    0.06
   0   0   0    0.00    0.00
;
_shelx_hkl_checksum              2755
_shelx_res_file
;
    JTM705_0m.res created by SHELXL-2014/7
TITL JTM705_0m_a.res in P2(1)/n
REM Old TITL JTM705_0m in P2(1)/n
REM SHELXT solution in P2(1)/n
REM R1 0.097,  Rweak 0.002,  Alpha 0.017,  Orientation as input
REM Formula found by SHELXT:  C9 N O2
CELL  1.54178   9.9869   5.3008  13.9874   90.000   93.106   90.000
ZERR    4.000   0.0006   0.0003   0.0009    0.000    0.002    0.000
LATT  1
SYMM 1/2-X, 1/2+Y, 1/2-Z
SFAC C H N O
UNIT 36 28 4 8
TEMP -123
SIZE 0.056 0.124 0.189
L.S. 5
BOND $H
LIST 4
ACTA 136
FMAP 2
PLAN 5
CONF
EQIV $1 x, y+1, z
HTAB C2 N1_$1
MPLA C4 > C9
MPLA O1 > C3
WGHT    0.044100    0.191300
EXTI    0.009714
FVAR       0.31023
O1    4    0.729878    0.357401    0.611021    11.00000    0.02197    0.02939 =
         0.03601   -0.00481    0.00291    0.00199
O2    4    0.831389    0.678721    0.689085    11.00000    0.02269    0.04180 =
         0.03898   -0.00539    0.00009   -0.00326
N1    3    0.594208    0.272523    0.590364    11.00000    0.02344    0.02634 =
         0.03292   -0.00378    0.00180    0.00003
C1    1    0.514162    0.430693    0.627250    11.00000    0.02367    0.01921 =
         0.02280    0.00235    0.00101    0.00130
C2    1    0.585472    0.643382    0.677309    11.00000    0.02185    0.02323 =
         0.03106   -0.00278    0.00008    0.00076
H2A   2    0.563658    0.810915    0.648494    11.00000    0.03272
H2B   2    0.570822    0.649744    0.746073    11.00000    0.03582
C3    1    0.728768    0.576164    0.663390    11.00000    0.02399    0.02803 =
         0.02595    0.00093    0.00141    0.00071
C4    1    0.368093    0.394866    0.616909    11.00000    0.02421    0.02045 =
         0.02207    0.00280    0.00007   -0.00060
C5    1    0.313046    0.191252    0.564681    11.00000    0.02938    0.02301 =
         0.02852   -0.00082    0.00044   -0.00049
H5    2    0.372987    0.069658    0.534301    11.00000    0.03740
C6    1    0.175228    0.164821    0.553017    11.00000    0.03149    0.02892 =
         0.03126   -0.00083   -0.00362   -0.00702
H6    2    0.139593    0.019912    0.515225    11.00000    0.04963
C7    1    0.090631    0.339273    0.592961    11.00000    0.02471    0.03367 =
         0.03052    0.00596   -0.00137   -0.00361
H7    2   -0.008367    0.321466    0.583039    11.00000    0.03512
C8    1    0.144991    0.539879    0.645479    11.00000    0.02477    0.03059 =
         0.03279    0.00176    0.00333    0.00226
H8    2    0.086448    0.661354    0.674309    11.00000    0.04324
C9    1    0.283239    0.568041    0.657522    11.00000    0.02523    0.02382 =
         0.02844   -0.00121    0.00111    0.00032
H9    2    0.318436    0.707771    0.693435    11.00000    0.03682
HKLF 4
REM  JTM705_0m_a.res in P2(1)/n
REM R1 =  0.0338 for    1282 Fo > 4sig(Fo)  and  0.0382 for all    1433 data
REM    138 parameters refined using      0 restraints
END
WGHT      0.0441      0.1921
REM Highest difference peak  0.255,  deepest hole -0.139,  1-sigma level  0.040
Q1    1   0.4424  0.4201  0.6200  11.00000  0.05    0.25
Q2    1   0.6571  0.6213  0.6765  11.00000  0.05    0.22
Q3    1   0.5351  0.5407  0.6558  11.00000  0.05    0.20
Q4    1   0.2146  0.5543  0.6471  11.00000  0.05    0.18
Q5    1   0.4197  0.6154  0.6425  11.00000  0.05    0.16
;
_shelx_res_checksum              11278
loop_
_space_group_symop_operation_xyz
'x, y, z'
'-x+1/2, y+1/2, -z+1/2'
'-x, -y, -z'
'x-1/2, -y-1/2, z-1/2'
loop_
_atom_site_type_symbol
_atom_site_label
_atom_site_fract_x
_atom_site_fract_y
_atom_site_fract_z
_atom_site_U_iso_or_equiv
_atom_site_adp_type
_atom_site_calc_flag
_atom_site_occupancy
O O1 0.72988(8) 0.35740(17) 0.61102(6) 0.0291(3) Uani d 1
O O2 0.83139(9) 0.67872(19) 0.68908(7) 0.0345(3) Uani d 1
N N1 0.59421(10) 0.2725(2) 0.59036(8) 0.0276(3) Uani d 1
C C1 0.51416(12) 0.4307(2) 0.62725(8) 0.0219(3) Uani d 1
C C2 0.58547(12) 0.6434(2) 0.67731(9) 0.0254(3) Uani d 1
H H2A 0.5637(15) 0.811(3) 0.6485(11) 0.033(4) Uiso d 1
H H2B 0.5708(16) 0.650(3) 0.7461(12) 0.036(4) Uiso d 1
C C3 0.72877(12) 0.5762(2) 0.66339(9) 0.0260(3) Uani d 1
C C4 0.36809(12) 0.3949(2) 0.61691(8) 0.0223(3) Uani d 1
C C5 0.31305(13) 0.1913(2) 0.56468(9) 0.0270(3) Uani d 1
H H5 0.3730(16) 0.070(3) 0.5343(11) 0.037(4) Uiso d 1
C C6 0.17523(13) 0.1648(3) 0.55302(9) 0.0308(3) Uani d 1
H H6 0.1396(18) 0.020(4) 0.5152(13) 0.050(5) Uiso d 1
C C7 0.09063(13) 0.3393(3) 0.59296(9) 0.0297(3) Uani d 1
H H7 -0.0084(17) 0.321(3) 0.5830(11) 0.035(4) Uiso d 1
C C8 0.14499(13) 0.5399(3) 0.64548(9) 0.0293(3) Uani d 1
H H8 0.0864(18) 0.661(3) 0.6743(12) 0.043(4) Uiso d 1
C C9 0.28324(12) 0.5680(2) 0.65752(9) 0.0258(3) Uani d 1
H H9 0.3184(16) 0.708(3) 0.6934(11) 0.037(4) Uiso d 1
loop_
_atom_site_aniso_label
_atom_site_aniso_U_11
_atom_site_aniso_U_22
_atom_site_aniso_U_33
_atom_site_aniso_U_12
_atom_site_aniso_U_13
_atom_site_aniso_U_23
O1 0.0220(4) 0.0294(5) 0.0360(5) 0.0020(3) 0.0029(4) -0.0048(4)
O2 0.0227(5) 0.0418(6) 0.0390(5) -0.0033(4) 0.0001(4) -0.0054(4)
N1 0.0234(5) 0.0263(6) 0.0329(6) 0.0000(4) 0.0018(4) -0.0038(4)
C1 0.0237(6) 0.0192(6) 0.0228(5) 0.0013(4) 0.0010(4) 0.0023(5)
C2 0.0218(6) 0.0232(6) 0.0311(6) 0.0008(5) 0.0001(5) -0.0028(5)
C3 0.0240(6) 0.0280(6) 0.0259(6) 0.0007(5) 0.0014(5) 0.0009(5)
C4 0.0242(6) 0.0204(6) 0.0221(6) -0.0006(4) 0.0001(4) 0.0028(5)
C5 0.0294(6) 0.0230(6) 0.0285(6) -0.0005(5) 0.0004(5) -0.0008(5)
C6 0.0315(7) 0.0289(7) 0.0313(7) -0.0070(5) -0.0036(5) -0.0008(5)
C7 0.0247(6) 0.0337(7) 0.0305(6) -0.0036(5) -0.0014(5) 0.0060(5)
C8 0.0248(6) 0.0306(7) 0.0328(7) 0.0023(5) 0.0033(5) 0.0018(6)
C9 0.0252(6) 0.0238(6) 0.0284(6) 0.0003(5) 0.0011(5) -0.0012(5)
loop_
_atom_type_symbol
_atom_type_description
_atom_type_scat_dispersion_real
_atom_type_scat_dispersion_imag
_atom_type_scat_source
C C 0.0181 0.0091 'International Tables Vol C Tables 4.2.6.8 and 6.1.1.4'
H H 0.0000 0.0000 'International Tables Vol C Tables 4.2.6.8 and 6.1.1.4'
N N 0.0311 0.0180 'International Tables Vol C Tables 4.2.6.8 and 6.1.1.4'
O O 0.0492 0.0322 'International Tables Vol C Tables 4.2.6.8 and 6.1.1.4'
loop_
_geom_angle_atom_site_label_1
_geom_angle_atom_site_label_2
_geom_angle_atom_site_label_3
_geom_angle
C3 O1 N1 109.63(8)
C1 N1 O1 108.30(10)
N1 C1 C4 120.76(11)
N1 C1 C2 113.00(10)
C4 C1 C2 126.23(10)
C1 C2 C3 101.24(10)
C1 C2 H2A 113.4(9)
C3 C2 H2A 110.5(9)
C1 C2 H2B 113.2(9)
C3 C2 H2B 109.3(9)
H2A C2 H2B 109.0(13)
O2 C3 O1 120.81(11)
O2 C3 C2 131.38(12)
O1 C3 C2 107.81(10)
C9 C4 C5 119.43(11)
C9 C4 C1 119.84(11)
C5 C4 C1 120.71(11)
C6 C5 C4 119.98(12)
C6 C5 H5 120.2(9)
C4 C5 H5 119.8(9)
C5 C6 C7 120.49(12)
C5 C6 H6 118.0(11)
C7 C6 H6 121.5(11)
C8 C7 C6 119.61(12)
C8 C7 H7 120.3(9)
C6 C7 H7 120.1(9)
C7 C8 C9 120.30(12)
C7 C8 H8 120.1(10)
C9 C8 H8 119.6(10)
C8 C9 C4 120.18(12)
C8 C9 H9 118.9(9)
C4 C9 H9 120.9(10)
loop_
_geom_bond_atom_site_label_1
_geom_bond_atom_site_label_2
_geom_bond_distance
O1 C3 1.3720(16)
O1 N1 1.4420(13)
O2 C3 1.1980(16)
N1 C1 1.2857(16)
C1 C4 1.4704(16)
C1 C2 1.4881(17)
C2 C3 1.4977(16)
C2 H2A 0.995(16)
C2 H2B 0.981(16)
C4 C9 1.3913(17)
C4 C5 1.3990(17)
C5 C6 1.3843(18)
C5 H5 0.991(17)
C6 C7 1.390(2)
C6 H6 0.988(19)
C7 C8 1.386(2)
C7 H7 0.995(16)
C8 C9 1.3899(17)
C8 H8 0.972(18)
C9 H9 0.952(17)
loop_
_geom_hbond_atom_site_label_D
_geom_hbond_atom_site_label_H
_geom_hbond_atom_site_label_A
_geom_hbond_site_symmetry_A
_geom_hbond_distance_DH
_geom_hbond_distance_HA
_geom_hbond_distance_DA
_geom_hbond_angle_DHA
C2 H2A N1 1_565 0.995(16) 2.602(16) 3.5525(17) 160.0(12)
C5 H5 N1 3_656 0.991(17) 2.55(2) 3.438(2) 149.0(10)
C8 H8 O2 1_455 0.972(18) 2.57(2) 3.306(2) 133.0(10)
loop_
_geom_torsion_atom_site_label_1
_geom_torsion_atom_site_label_2
_geom_torsion_atom_site_label_3
_geom_torsion_atom_site_label_4
_geom_torsion
C3 O1 N1 C1 0.43(13)
O1 N1 C1 C4 179.36(9)
O1 N1 C1 C2 0.20(14)
N1 C1 C2 C3 -0.68(14)
C4 C1 C2 C3 -179.79(11)
N1 O1 C3 O2 179.42(11)
N1 O1 C3 C2 -0.86(13)
C1 C2 C3 O2 -179.41(14)
C1 C2 C3 O1 0.91(12)
N1 C1 C4 C9 179.89(11)
C2 C1 C4 C9 -1.07(18)
N1 C1 C4 C5 -1.60(17)
C2 C1 C4 C5 177.44(11)
C9 C4 C5 C6 0.62(18)
C1 C4 C5 C6 -177.90(11)
C4 C5 C6 C7 -0.07(19)
C5 C6 C7 C8 -0.5(2)
C6 C7 C8 C9 0.56(19)
C7 C8 C9 C4 -0.01(19)
C5 C4 C9 C8 -0.58(18)
C1 C4 C9 C8 177.95(11)

_cod_database_fobs_code 1545034
