#------------------------------------------------------------------------------
#$Date: 2017-03-22 09:21:54 +0200 (Wed, 22 Mar 2017) $
#$Revision: 194414 $
#$URL: file:///home/coder/svn-repositories/cod/cif/1/54/56/1545620.cif $
#------------------------------------------------------------------------------
#
# This file is available in the Crystallography Open Database (COD),
# http://www.crystallography.net/. The original data for this entry
# were provided by IUCr Journals, http://journals.iucr.org/.
#
# The file may be used within the scientific community so long as
# proper attribution is given to the journal article from which the
# data were obtained.
#
data_1545620
loop_
_publ_author_name
'Sivakumar, P.'
'Anzline, C.'
'Sudhahar, S.'
'Israel, S.'
'Chakkaravarthi, G.'
_publ_section_title
;
 2-Amino-3-methylpyridinium hydrogen phthalate
;
_journal_coeditor_code           BT4045
_journal_issue                   3
_journal_name_full               IUCrData
_journal_page_first              x170422
_journal_paper_doi               10.1107/S2414314617004229
_journal_volume                  2
_journal_year                    2017
_chemical_formula_iupac          'C6 H9 N2 +, C8 H5 O4 -'
_chemical_formula_moiety         'C6 H9 N2 +, C8 H5 O4 -'
_chemical_formula_sum            'C14 H14 N2 O4'
_chemical_formula_weight         274.27
_chemical_name_systematic
;
2-Amino-3-methylpyridinium 2-carboxybenzoate
;
_space_group_crystal_system      triclinic
_space_group_IT_number           2
_space_group_name_Hall           '-P 1'
_space_group_name_H-M_alt        'P -1'
_symmetry_space_group_name_Hall  '-P 1'
_symmetry_space_group_name_H-M   'P -1'
_atom_sites_solution_hydrogens   mixed
_audit_creation_method           SHELXL-2016/4
_cell_angle_alpha                91.968(4)
_cell_angle_beta                 96.362(3)
_cell_angle_gamma                94.745(3)
_cell_formula_units_Z            2
_cell_length_a                   7.1675(4)
_cell_length_b                   8.8143(6)
_cell_length_c                   10.6613(7)
_cell_measurement_reflns_used    5483
_cell_measurement_temperature    295(2)
_cell_measurement_theta_max      0.7461
_cell_measurement_theta_min      0.6861
_cell_volume                     666.46(7)
_computing_cell_refinement
;
SAINT (Bruker, 2004)
;
_computing_data_collection
;
APEX2 (Bruker, 2004)
;
_computing_data_reduction
;
SAINT (Bruker, 2004)
;
_computing_molecular_graphics
;
PLATON (Spek, 2009)
;
_computing_publication_material
;
SHELXL2016 (Sheldrick, 2015) and PLATON (Spek, 2009)
;
_computing_structure_refinement
;
SHELXL2016 (Sheldrick, 2015)
;
_computing_structure_solution
;
SHELXS97 (Sheldrick, 2008)
;
_diffrn_ambient_temperature      295(2)
_diffrn_measured_fraction_theta_full 1.000
_diffrn_measured_fraction_theta_max 0.979
_diffrn_measurement_device_type  'Bruker Kappa APEXII CCD'
_diffrn_measurement_method       '\w and \f scan'
_diffrn_radiation_type           MoK\a
_diffrn_radiation_wavelength     0.71073
_diffrn_reflns_av_R_equivalents  0.0315
_diffrn_reflns_limit_h_max       10
_diffrn_reflns_limit_h_min       -10
_diffrn_reflns_limit_k_max       12
_diffrn_reflns_limit_k_min       -12
_diffrn_reflns_limit_l_max       15
_diffrn_reflns_limit_l_min       -15
_diffrn_reflns_number            17030
_diffrn_reflns_theta_full        25.242
_diffrn_reflns_theta_max         30.499
_diffrn_reflns_theta_min         1.924
_exptl_absorpt_coefficient_mu    0.102
_exptl_absorpt_correction_T_max  0.7461
_exptl_absorpt_correction_T_min  0.6861
_exptl_absorpt_correction_type   multi-scan
_exptl_absorpt_process_details
;
(SADABS; Bruker, 2004)
;
_exptl_crystal_colour            colourless
_exptl_crystal_density_diffrn    1.367
_exptl_crystal_description       block
_exptl_crystal_F_000             288
_exptl_crystal_size_max          0.280
_exptl_crystal_size_mid          0.240
_exptl_crystal_size_min          0.200
_refine_diff_density_max         0.228
_refine_diff_density_min         -0.205
_refine_ls_extinction_method     none
_refine_ls_goodness_of_fit_ref   1.021
_refine_ls_hydrogen_treatment    mixed
_refine_ls_matrix_type           full
_refine_ls_number_parameters     198
_refine_ls_number_reflns         3982
_refine_ls_number_restraints     0
_refine_ls_restrained_S_all      1.021
_refine_ls_R_factor_all          0.1254
_refine_ls_R_factor_gt           0.0594
_refine_ls_shift/su_max          0.000
_refine_ls_shift/su_mean         0.000
_refine_ls_structure_factor_coef Fsqd
_refine_ls_weighting_details
'w=1/[\s^2^(Fo^2^)+(0.0632P)^2^+0.3832P] where P=(Fo^2^+2Fc^2^)/3'
_refine_ls_weighting_scheme      calc
_refine_ls_wR_factor_gt          0.1420
_refine_ls_wR_factor_ref         0.1891
_reflns_number_gt                2056
_reflns_number_total             3982
_reflns_threshold_expression     'I > 2\s(I)'
_cod_data_source_file            bt4045sup1.cif
_cod_data_source_block           I
_cod_database_code               1545620
_shelx_space_group_comment
;
The symmetry employed for this shelxl refinement is uniquely defined
by the following loop, which should always be used as a source of
symmetry information in preference to the above space-group names.
They are only intended as comments.
;
_shelx_estimated_absorpt_t_min   0.972
_shelx_estimated_absorpt_t_max   0.980
_shelx_hkl_file
;
  -1   0   0  200.88    4.86
  -1   0   0  231.30    4.89
   1   0   0  206.87    4.87
   1   0   0  220.64    4.39
  -2   0   0   61.09    1.40
  -2   0   0   61.55    1.40
  -2   0   0   59.87    1.78
   2   0   0   61.39    1.38
   2   0   0   64.11    1.36
  -3   0   0   25.70    0.95
  -3   0   0   25.98    0.65
  -3   0   0   25.81    0.64
  -3   0   0   26.24    0.90
   3   0   0   26.30    0.74
   3   0   0   27.20    0.70
  -4   0   0    0.99    0.27
  -4   0   0    1.54    0.12
  -4   0   0    1.48    0.12
   4   0   0    1.38    0.18
   4   0   0    1.55    0.15
   4   0   0    1.45    0.21
   4   0   0    1.39    0.15
  -5   0   0    9.19    0.58
  -5   0   0    8.94    0.28
  -5   0   0    8.96    0.28
  -5   0   0    9.20    0.66
   5   0   0    9.15    0.53
   5   0   0    9.46    0.46
   5   0   0    9.22    0.33
   5   0   0   10.57    0.53
   5   0   0    9.38    0.34
  -6   0   0   13.15    0.78
  -6   0   0   14.38    0.89
   6   0   0   13.56    0.44
   6   0   0   14.11    0.62
   6   0   0   13.03    0.66
   6   0   0   12.32    0.42
   6   0   0   12.88    0.65
  -7   0   0    1.11    0.45
  -7   0   0    0.76    0.27
   7   0   0    1.31    0.39
   7   0   0    1.32    0.16
   7   0   0    1.53    0.32
  -8   0   0    0.64    0.46
   8   0   0   -0.03    0.34
   8   0   0    0.43    0.32
  -9   0   0    2.07    0.66
   9   0   0    0.44    0.45
   9   0   0    1.09    0.36
 -10   0   0    0.81    0.68
  10   0   0    0.39    0.47
  10  -1   0    1.25    0.52
 -10   1   0    1.46    0.65
   9  -1   0    1.05    0.47
   9  -1   0    0.72    0.35
  -9   1   0    0.90    0.61
   8  -1   0    0.90    0.19
   8  -1   0    1.16    0.42
   8  -1   0    1.10    0.32
  -8   1   0    1.01    0.52
   7  -1   0    0.08    0.24
   7  -1   0   -0.17    0.29
   7  -1   0    0.03    0.17
  -7   1   0    0.18    0.19
  -7   1   0    0.11    0.37
   6  -1   0    0.17    0.26
   6  -1   0    0.14    0.09
   6  -1   0    0.36    0.20
   6  -1   0    0.33    0.17
  -6   1   0    0.28    0.11
  -6   1   0    0.39    0.35
  -6   1   0    0.10    0.16
   5  -1   0   -0.02    0.10
   5  -1   0   -0.24    0.19
   5  -1   0    0.03    0.13
   5  -1   0    0.02    0.14
  -5   1   0   -0.07    0.09
  -5   1   0   -0.18    0.11
  -5   1   0   -0.35    0.20
   4  -1   0    8.97    0.45
   4  -1   0    9.86    0.41
   4  -1   0    9.92    0.37
   4  -1   0   10.30    0.39
  -4   1   0    7.89    0.46
  -4   1   0    9.80    0.35
  -4   1   0    9.66    0.36
  -4   1   0    9.16    0.56
   3  -1   0   16.66    0.53
   3  -1   0   16.57    0.50
   3  -1   0   16.71    0.51
   3  -1   0   17.03    0.50
   3  -1   0   15.87    0.65
  -3   1   0   16.73    0.68
  -3   1   0   15.97    0.57
  -3   1   0   16.53    0.49
  -3   1   0   16.71    0.48
   2  -1   0   24.42    0.65
   2  -1   0   25.54    0.62
   2  -1   0   25.03    0.64
   2  -1   0   23.87    0.79
  -2   1   0   25.36    0.81
  -2   1   0   20.32    0.65
  -2   1   0   25.33    0.63
  -2   1   0   22.94    0.70
   1  -1   0   26.43    0.74
   1  -1   0   26.67    0.79
   1  -1   0   27.72    0.60
   1  -1   0   26.25    0.67
   1  -1   0   26.44    0.68
  -1   1   0   26.19    0.68
  -1   1   0   26.73    0.67
  -1   1   0   27.54    0.74
  -1   1   0   26.66    0.79
   0  -1   0    0.04    0.01
   0  -1   0    0.02    0.02
   0  -1   0    0.02    0.02
   0  -1   0    0.02    0.02
   0  -1   0    0.03    0.03
   0   1   0    0.03    0.02
   0   1   0    0.06    0.02
   0   1   0    0.00    0.02
   0   1   0    0.05    0.03
  -1  -1   0  288.96    6.60
  -1  -1   0  285.82    7.35
  -1  -1   0  291.64    6.64
   1   1   0  284.36    6.62
   1   1   0  291.65    6.01
   1   1   0  294.94    6.05
   1   1   0  283.87    6.79
  -2  -1   0  152.22    3.41
  -2  -1   0  150.30    3.60
  -2  -1   0  153.39    3.49
   2   1   0  158.02    3.24
   2   1   0  148.79    3.52
   2   1   0  156.65    3.21
   2   1   0  153.38    3.49
  -3  -1   0    2.11    0.08
  -3  -1   0    2.10    0.08
   3   1   0    2.10    0.11
   3   1   0    1.93    0.23
   3   1   0    2.09    0.19
   3   1   0    2.12    0.11
  -4  -1   0   37.50    1.34
   4   1   0   37.29    0.99
   4   1   0   35.20    0.87
   4   1   0   37.31    1.06
  -5  -1   0    6.50    0.58
  -5  -1   0    6.47    0.60
   5   1   0    5.88    0.19
   5   1   0    6.12    0.20
   5   1   0    6.42    0.46
   5   1   0    6.73    0.47
   5   1   0    6.36    0.39
  -6  -1   0    9.66    0.71
  -6  -1   0   10.55    0.82
   6   1   0    9.27    0.56
   6   1   0   10.20    0.54
   6   1   0    9.13    0.61
  -7  -1   0    0.44    0.28
  -7  -1   0    1.35    0.52
   7   1   0    0.91    0.28
   7   1   0    0.95    0.32
   7   1   0    0.53    0.35
  -8  -1   0    0.67    0.34
  -8  -1   0    0.91    0.52
  -8  -1   0    0.40    0.19
   8   1   0    0.82    0.37
   8   1   0    0.72    0.32
   8   1   0    0.46    0.40
  -9  -1   0    0.91    0.56
   9   1   0    0.13    0.40
   9   1   0    0.18    0.33
 -10  -1   0    0.50    0.62
  10   1   0    0.06    0.40
  10   1   0    0.05    0.46
  10  -2   0    0.63    0.50
 -10   2   0    0.30    0.59
   9  -2   0    0.75    0.41
   9  -2   0    0.76    0.37
  -9   2   0    1.08    0.60
   8  -2   0   -0.31    0.27
   8  -2   0   -0.21    0.35
   8  -2   0   -0.05    0.23
  -8   2   0   -0.36    0.45
   7  -2   0    0.02    0.30
   7  -2   0    0.24    0.25
   7  -2   0    0.18    0.22
  -7   2   0   -0.18    0.37
   6  -2   0   -0.14    0.18
   6  -2   0   -0.24    0.17
   6  -2   0   -0.28    0.15
  -6   2   0   -0.06    0.10
  -6   2   0   -0.13    0.29
  -6   2   0   -0.05    0.12
   5  -2   0    0.15    0.15
   5  -2   0    0.03    0.17
   5  -2   0   -0.07    0.18
   5  -2   0   -0.02    0.14
  -5   2   0    0.02    0.09
  -5   2   0    0.05    0.12
  -5   2   0    0.05    0.23
   4  -2   0    5.28    0.35
   4  -2   0    5.45    0.34
   4  -2   0    6.12    0.36
  -4   2   0    5.97    0.28
  -4   2   0    6.10    0.38
  -4   2   0    5.54    0.46
  -4   2   0    6.07    0.32
   3  -2   0    2.23    0.20
   3  -2   0    2.16    0.20
   3  -2   0    2.18    0.21
   3  -2   0    2.53    0.25
  -3   2   0    2.44    0.19
  -3   2   0    2.46    0.28
  -3   2   0    2.32    0.24
  -3   2   0    1.89    0.22
  -3   2   0    2.39    0.12
   2  -2   0  156.85    3.63
   2  -2   0  155.51    3.61
   2  -2   0  155.15    4.26
   2  -2   0  159.19    3.27
   2  -2   0  155.58    3.97
  -2   2   0  157.01    3.97
  -2   2   0  157.20    3.62
  -2   2   0  157.69    4.25
  -2   2   0  157.69    3.60
   1  -2   0   34.06    1.00
   1  -2   0   32.57    0.86
   1  -2   0   33.42    0.96
   1  -2   0   33.80    0.88
  -1   2   0   32.27    0.87
  -1   2   0   35.23    1.00
  -1   2   0   34.24    0.96
  -1   2   0   30.22    0.85
  -1   2   0   32.82    0.91
   0  -2   0    4.24    0.19
   0  -2   0    4.14    0.20
   0  -2   0    4.16    0.16
   0  -2   0    4.31    0.16
   0  -2   0    4.07    0.23
   0   2   0    4.38    0.16
   0   2   0    4.37    0.16
   0   2   0    4.33    0.19
   0   2   0    4.04    0.20
   0   2   0    4.24    0.23
  -1  -2   0   26.93    0.82
  -1  -2   0   27.07    0.70
  -1  -2   0   27.07    0.65
  -1  -2   0   26.41    0.69
   1   2   0   26.30    0.70
   1   2   0   27.10    0.65
   1   2   0   26.54    0.81
   1   2   0   26.36    0.69
  -2  -2   0   10.50    0.32
  -2  -2   0   10.51    0.31
  -2  -2   0   10.34    0.44
   2   2   0   10.65    0.36
   2   2   0   10.38    0.38
   2   2   0   10.38    0.31
   2   2   0   10.10    0.32
  -3  -2   0   30.32    0.74
  -3  -2   0   30.80    0.73
  -3  -2   0   30.34    0.99
   3   2   0   30.26    0.76
   3   2   0   30.94    0.87
   3   2   0   29.93    0.75
   3   2   0   30.67    0.82
  -4  -2   0    0.24    0.17
  -4  -2   0    0.15    0.10
   4   2   0    0.50    0.21
   4   2   0    0.30    0.07
   4   2   0    0.10    0.16
   4   2   0    0.36    0.08
  -5  -2   0    1.21    0.27
  -5  -2   0    0.79    0.16
   5   2   0    1.14    0.29
   5   2   0    1.79    0.33
   5   2   0    1.24    0.22
  -6  -2   0    0.46    0.41
  -6  -2   0    0.81    0.28
  -6  -2   0    0.59    0.17
   6   2   0    0.44    0.23
   6   2   0    0.90    0.31
   6   2   0    0.75    0.33
  -7  -2   0    0.35    0.30
  -7  -2   0    0.10    0.17
  -7  -2   0    0.15    0.44
   7   2   0   -0.04    0.29
   7   2   0   -0.18    0.24
   7   2   0    0.09    0.27
  -8  -2   0    0.32    0.48
  -8  -2   0    0.06    0.33
  -8  -2   0   -0.09    0.18
   8   2   0    0.00    0.30
   8   2   0   -0.05    0.37
   8   2   0   -0.04    0.32
  -9  -2   0    0.53    0.55
  -9  -2   0   -0.06    0.32
   9   2   0   -0.02    0.35
   9   2   0    0.23    0.40
   9   2   0    0.24    0.42
  10  -3   0    0.93    0.54
   9  -3   0    1.52    0.49
   9  -3   0    0.99    0.38
  -9   3   0    1.32    0.46
  -9   3   0    0.52    0.58
   8  -3   0    0.23    0.31
   8  -3   0    0.22    0.28
   8  -3   0    0.27    0.37
  -8   3   0   -0.07    0.52
   7  -3   0    1.45    0.36
   7  -3   0    1.81    0.34
   7  -3   0    1.56    0.32
  -7   3   0    1.08    0.48
   6  -3   0    0.22    0.26
   6  -3   0    0.10    0.22
   6  -3   0    0.28    0.25
   6  -3   0    0.36    0.23
  -6   3   0    0.27    0.19
  -6   3   0    0.42    0.34
   5  -3   0    7.17    0.48
   5  -3   0    6.74    0.43
   5  -3   0    6.55    0.42
  -5   3   0    6.96    0.58
  -5   3   0    7.06    0.41
   4  -3   0   46.08    1.30
   4  -3   0   45.01    1.19
   4  -3   0   45.89    1.32
  -4   3   0   46.35    1.44
  -4   3   0   48.48    1.29
  -4   3   0   46.63    1.56
   3  -3   0   15.22    0.57
   3  -3   0   15.30    0.49
   3  -3   0   15.28    0.59
   3  -3   0   16.06    0.68
  -3   3   0   15.89    0.63
  -3   3   0   15.74    0.56
  -3   3   0   15.94    0.68
   2  -3   0   22.00    0.71
   2  -3   0   23.57    0.73
   2  -3   0   24.24    0.83
   2  -3   0   23.31    0.80
   2  -3   0   22.44    0.64
  -2   3   0   22.70    0.72
  -2   3   0   23.18    0.82
  -2   3   0   22.12    0.75
  -2   3   0   23.09    0.78
  -2   3   0   23.00    0.71
   1  -3   0  111.65    2.87
   1  -3   0  109.64    3.03
   1  -3   0  111.60    2.95
   1  -3   0  107.52    2.59
   1  -3   0  109.94    2.62
  -1   3   0  106.82    2.61
  -1   3   0  108.13    2.59
  -1   3   0  108.13    2.52
  -1   3   0  110.38    2.86
  -1   3   0  107.05    3.02
  -1   3   0  109.07    2.73
   0  -3   0   10.65    0.46
   0  -3   0   10.76    0.34
   0  -3   0   10.82    0.41
   0  -3   0   10.70    0.34
   0  -3   0   10.87    0.39
   0   3   0   10.94    0.34
   0   3   0   10.70    0.40
   0   3   0   10.36    0.45
   0   3   0   10.68    0.33
   0   3   0   10.53    0.38
  -1  -3   0   49.89    1.18
  -1  -3   0   50.71    1.28
  -1  -3   0   50.70    1.46
  -1  -3   0   50.12    1.29
  -1  -3   0   49.93    1.26
   1   3   0   51.28    1.18
   1   3   0   50.34    1.46
   1   3   0   50.55    1.27
   1   3   0   49.75    1.28
  -2  -3   0    9.51    0.36
  -2  -3   0    9.23    0.32
  -2  -3   0   10.01    0.49
  -2  -3   0    9.58    0.34
   2   3   0    9.81    0.37
   2   3   0    9.47    0.35
   2   3   0    9.85    0.38
  -3  -3   0   54.76    1.64
  -3  -3   0   54.32    1.31
  -3  -3   0   53.87    1.83
  -3  -3   0   54.40    1.34
  -3  -3   0   54.30    1.33
   3   3   0   53.84    1.37
   3   3   0   53.62    1.32
  -4  -3   0    0.73    0.11
  -4  -3   0    0.31    0.20
  -4  -3   0    0.45    0.13
  -4  -3   0    0.64    0.09
   4   3   0    0.78    0.12
   4   3   0    0.78    0.23
   4   3   0    0.84    0.12
   4   3   0    0.81    0.19
  -5  -3   0    1.43    0.32
   5   3   0    2.13    0.29
   5   3   0    2.48    0.15
   5   3   0    2.16    0.32
  -6  -3   0    0.46    0.29
  -6  -3   0    0.46    0.18
   6   3   0    0.08    0.31
   6   3   0    0.61    0.25
   6   3   0    0.42    0.33
  -7  -3   0    1.53    0.26
  -7  -3   0    2.43    0.46
   7   3   0    2.25    0.48
   7   3   0    3.10    0.52
  -8  -3   0    0.39    0.52
  -8  -3   0    0.26    0.35
   8   3   0    0.13    0.38
   8   3   0    0.10    0.38
  -9  -3   0    1.08    0.59
  -9  -3   0   -0.01    0.40
   9   3   0    0.16    0.40
   9   3   0   -0.23    0.36
   9  -4   0    0.65    0.34
   9  -4   0    0.57    0.43
   9  -4   0   -0.02    0.32
  -9   4   0    0.53    0.46
   8  -4   0    1.13    0.37
   8  -4   0    1.05    0.39
   8  -4   0    1.51    0.39
  -8   4   0    0.36    0.53
  -8   4   0    0.89    0.39
   7  -4   0    2.26    0.40
   7  -4   0    2.00    0.34
   7  -4   0    2.57    0.42
  -7   4   0    1.64    0.50
  -7   4   0    1.08    0.38
   6  -4   0    8.70    0.60
   6  -4   0    7.49    0.50
  -6   4   0    7.86    0.51
  -6   4   0    8.20    0.73
   5  -4   0    2.21    0.29
   5  -4   0    1.76    0.30
   5  -4   0    1.78    0.34
  -5   4   0    1.84    0.28
  -5   4   0    2.04    0.41
   4  -4   0    0.50    0.16
   4  -4   0    0.47    0.21
   4  -4   0    0.60    0.20
  -4   4   0    0.40    0.18
  -4   4   0    0.63    0.27
  -4   4   0    0.68    0.21
   3  -4   0    0.05    0.17
   3  -4   0    0.08    0.15
   3  -4   0   -0.03    0.10
  -3   4   0   -0.03    0.16
  -3   4   0   -0.04    0.20
  -3   4   0    0.00    0.12
   2  -4   0   -0.02    0.06
   2  -4   0    0.07    0.10
   2  -4   0   -0.03    0.14
   2  -4   0   -0.06    0.12
   2  -4   0   -0.13    0.13
  -2   4   0   -0.07    0.14
  -2   4   0    0.05    0.10
  -2   4   0   -0.09    0.09
  -2   4   0    0.10    0.16
  -2   4   0    0.06    0.08
   1  -4   0   18.55    0.74
   1  -4   0   18.12    0.67
   1  -4   0   17.75    0.63
   1  -4   0   18.63    0.68
   1  -4   0   18.33    0.72
  -1   4   0   18.69    0.71
  -1   4   0   18.03    0.64
  -1   4   0   18.01    0.57
  -1   4   0   18.32    0.59
  -1   4   0   17.48    0.63
   0  -4   0   32.83    1.11
   0  -4   0   33.50    0.99
   0  -4   0   33.50    0.96
   0  -4   0   33.80    0.92
   0  -4   0   34.89    1.14
   0   4   0   31.88    1.09
   0   4   0   34.41    0.97
   0   4   0   34.42    0.92
   0   4   0   33.30    0.87
   0   4   0   32.71    0.98
  -1  -4   0    8.83    0.50
  -1  -4   0    9.21    0.42
  -1  -4   0    9.05    0.33
  -1  -4   0    8.71    0.38
  -1  -4   0    9.46    0.32
   1   4   0    9.06    0.40
   1   4   0    8.91    0.41
   1   4   0    9.15    0.31
   1   4   0    9.17    0.49
  -2  -4   0  119.70    2.99
  -2  -4   0  119.93    2.70
  -2  -4   0  120.16    2.84
  -2  -4   0  117.85    3.23
   2   4   0  116.96    2.81
   2   4   0  121.16    2.62
   2   4   0  117.61    2.84
  -3  -4   0    0.23    0.13
  -3  -4   0    0.55    0.14
  -3  -4   0    0.25    0.18
  -3  -4   0    0.57    0.10
   3   4   0    0.44    0.14
   3   4   0    0.51    0.14
   3   4   0    0.55    0.12
   3   4   0    0.61    0.19
  -4  -4   0    0.50    0.12
  -4  -4   0    0.46    0.24
  -4  -4   0    0.13    0.14
  -4  -4   0    0.56    0.13
   4   4   0    0.37    0.23
   4   4   0    0.55    0.14
  -5  -4   0    7.26    0.42
  -5  -4   0    7.34    0.59
  -5  -4   0    7.06    0.76
   5   4   0    7.27    0.54
   5   4   0    7.30    0.32
   5   4   0    8.19    0.33
  -6  -4   0    8.65    0.92
  -6  -4   0    8.20    0.67
  -6  -4   0    7.40    0.50
   6   4   0    8.62    0.66
   6   4   0    7.00    0.72
  -7  -4   0    0.42    0.36
  -7  -4   0    0.13    0.21
  -7  -4   0    0.11    0.19
   7   4   0   -0.09    0.37
   7   4   0    0.09    0.37
  -8  -4   0    2.00    0.66
  -8  -4   0    1.57    0.46
   8   4   0    1.48    0.47
   8   4   0    0.99    0.48
  -9  -4   0    1.46    0.68
  -9  -4   0    0.26    0.43
   9   4   0    0.31    0.42
   9   4   0   -0.09    0.40
   9  -5   0    0.53    0.39
   9  -5   0    0.20    0.46
   9  -5   0    0.42    0.42
  -9   5   0    0.48    0.43
   8  -5   0   -0.39    0.33
   8  -5   0    0.16    0.35
   8  -5   0    0.06    0.38
  -8   5   0   -0.08    0.35
   7  -5   0   -0.11    0.34
   7  -5   0   -0.13    0.31
  -7   5   0   -0.13    0.32
   6  -5   0    1.18    0.30
   6  -5   0    1.20    0.37
  -6   5   0    0.88    0.48
  -6   5   0    0.77    0.32
  -6   5   0    1.50    0.33
   5  -5   0   -0.33    0.25
  -5   5   0   -0.32    0.20
  -5   5   0    0.22    0.33
  -5   5   0   -0.35    0.21
   4  -5   0    0.69    0.27
  -4   5   0    0.82    0.31
  -4   5   0    0.62    0.21
  -4   5   0    0.81    0.25
   3  -5   0   15.06    0.75
   3  -5   0   13.85    0.43
   3  -5   0   14.51    0.68
  -3   5   0   14.00    0.72
  -3   5   0   14.81    0.67
  -3   5   0   14.48    0.64
   2  -5   0   30.40    1.02
   2  -5   0   31.10    1.13
   2  -5   0   29.90    0.98
  -2   5   0   30.69    0.97
  -2   5   0   29.22    1.10
  -2   5   0   28.52    0.95
   1  -5   0   40.32    1.23
   1  -5   0   41.04    1.38
   1  -5   0   42.43    1.36
  -1   5   0   41.81    1.22
  -1   5   0   41.30    1.16
  -1   5   0   40.74    1.11
   0  -5   0    8.38    0.34
   0  -5   0    8.51    0.52
   0  -5   0    8.25    0.51
   0  -5   0    9.00    0.47
   0   5   0    8.74    0.35
   0   5   0    8.49    0.45
   0   5   0    8.04    0.34
   0   5   0    8.64    0.45
  -1  -5   0   55.46    1.74
  -1  -5   0   54.64    1.45
  -1  -5   0   55.32    1.35
  -1  -5   0   55.62    1.52
  -1  -5   0   55.97    1.87
   1   5   0   54.73    1.52
   1   5   0   55.62    1.50
   1   5   0   55.74    1.35
  -2  -5   0   14.05    0.72
  -2  -5   0   13.99    0.49
  -2  -5   0   13.95    0.57
  -2  -5   0   14.82    0.81
  -2  -5   0   14.16    0.44
   2   5   0   14.31    0.51
   2   5   0   13.78    0.56
   2   5   0   13.98    0.56
  -3  -5   0   24.97    0.69
  -3  -5   0   23.59    0.78
  -3  -5   0   23.94    0.79
  -3  -5   0   24.58    1.03
  -3  -5   0   24.12    1.17
   3   5   0   24.19    0.80
   3   5   0   23.81    0.79
   3   5   0   23.21    0.75
   3   5   0   23.91    0.77
  -4  -5   0    7.94    0.62
  -4  -5   0    7.63    0.77
  -4  -5   0    8.48    0.38
  -4  -5   0    7.91    0.39
   4   5   0    7.15    0.50
   4   5   0    7.73    0.41
   4   5   0    8.32    0.41
  -5  -5   0    1.52    0.27
  -5  -5   0    1.71    0.22
  -5  -5   0    1.60    0.41
   5   5   0    2.33    0.40
  -6  -5   0   17.55    0.75
  -6  -5   0   19.63    1.06
  -6  -5   0   20.62    1.32
   6   5   0   18.57    0.55
   6   5   0   18.49    0.91
  -7  -5   0    1.33    0.45
  -7  -5   0    0.76    0.26
   7   5   0    1.09    0.47
   7   5   0    1.39    0.45
  -8  -5   0    2.38    0.56
   8   5   0    2.20    0.54
   8   5   0    2.56    0.64
   9  -6   0    0.07    0.40
   8  -6   0    0.10    0.43
   8  -6   0    0.13    0.33
  -8   6   0   -0.02    0.35
   7  -6   0    0.19    0.42
  -7   6   0   -0.31    0.32
   6  -6   0    0.26    0.35
  -6   6   0   -0.70    0.44
  -6   6   0   -0.19    0.29
  -6   6   0   -0.19    0.27
   5  -6   0   -0.32    0.30
  -5   6   0   -0.33    0.26
  -5   6   0   -0.12    0.38
   4  -6   0    0.69    0.20
   4  -6   0    0.67    0.33
  -4   6   0    1.19    0.36
  -4   6   0    0.67    0.31
  -4   6   0    0.57    0.25
   3  -6   0    2.44    0.38
   3  -6   0    3.09    0.48
   3  -6   0    2.40    0.21
  -3   6   0    2.42    0.38
  -3   6   0    2.04    0.34
  -3   6   0    2.58    0.45
   2  -6   0    0.53    0.17
   2  -6   0    0.84    0.27
   2  -6   0    0.55    0.14
  -2   6   0    0.60    0.24
  -2   6   0    0.50    0.16
   1  -6   0   -0.27    0.19
   1  -6   0   -0.08    0.12
   1  -6   0   -0.06    0.12
  -1   6   0   -0.22    0.18
  -1   6   0   -0.07    0.10
   0  -6   0   17.14    0.58
   0  -6   0   16.50    0.83
   0  -6   0   16.54    0.72
   0  -6   0   16.53    0.82
   0   6   0   17.19    0.70
   0   6   0   16.87    0.56
   0   6   0   17.51    0.58
  -1  -6   0   33.98    1.11
  -1  -6   0   34.36    1.30
  -1  -6   0   33.81    0.97
  -1  -6   0   34.23    1.37
   1   6   0   35.48    1.10
   1   6   0   33.42    1.10
   1   6   0   33.97    0.91
   1   6   0   33.64    0.88
  -2  -6   0   21.60    1.09
  -2  -6   0   21.13    0.63
  -2  -6   0   21.53    0.81
  -2  -6   0   22.22    1.02
  -2  -6   0   21.08    0.68
   2   6   0   20.98    0.79
   2   6   0   21.32    0.77
   2   6   0   21.72    0.69
  -3  -6   0   11.63    0.79
  -3  -6   0   10.47    0.47
  -3  -6   0   11.24    0.41
  -3  -6   0   11.05    0.53
  -3  -6   0   10.86    0.87
   3   6   0   10.02    0.55
   3   6   0   11.16    0.54
   3   6   0   11.44    0.55
  -4  -6   0    1.42    0.40
  -4  -6   0    2.32    0.26
  -4  -6   0    1.47    0.27
   4   6   0    1.90    0.39
   4   6   0    2.63    0.38
  -5  -6   0    1.62    0.30
  -5  -6   0    1.88    0.45
   5   6   0    2.61    0.43
  -6  -6   0    5.25    0.69
  -6  -6   0    5.35    0.89
   6   6   0    4.99    0.36
   6   6   0    5.52    0.62
  -7  -6   0    0.07    0.23
  -7  -6   0    0.28    0.39
   7   6   0   -0.25    0.41
   7   6   0    0.59    0.43
  -8  -6   0    0.54    0.46
   8   6   0   -0.24    0.45
   8   6   0    0.17    0.44
   8  -7   0    1.23    0.50
  -8   7   0    0.69    0.40
   7  -7   0    2.02    0.53
  -7   7   0    0.97    0.38
  -7   7   0    0.45    0.57
   6  -7   0    3.40    0.57
  -6   7   0    2.68    0.45
  -6   7   0    1.68    0.40
  -6   7   0    1.88    0.59
   5  -7   0    0.33    0.40
  -5   7   0   -0.01    0.26
  -5   7   0    0.05    0.42
  -5   7   0   -0.01    0.32
   4  -7   0   -0.42    0.31
   4  -7   0   -0.10    0.18
  -4   7   0    0.02    0.33
  -4   7   0   -0.32    0.29
  -4   7   0   -0.23    0.19
   3  -7   0    3.63    0.30
   3  -7   0    3.44    0.50
   3  -7   0    2.51    0.34
  -3   7   0    3.44    0.44
  -3   7   0    2.59    0.43
   2  -7   0    0.97    0.20
   2  -7   0    1.28    0.36
   2  -7   0    0.78    0.23
  -2   7   0    0.79    0.32
  -2   7   0    1.25    0.21
   1  -7   0    1.76    0.27
   1  -7   0    3.03    0.39
   1  -7   0    2.49    0.43
  -1   7   0    2.38    0.37
  -1   7   0    3.40    0.30
   0  -7   0   -0.14    0.16
   0  -7   0   -0.22    0.17
   0  -7   0   -0.40    0.20
   0  -7   0    0.09    0.08
   0   7   0   -0.06    0.18
   0   7   0   -0.03    0.10
   0   7   0    0.02    0.10
   0   7   0   -0.05    0.09
  -1  -7   0    4.08    0.25
  -1  -7   0    3.33    0.41
   1   7   0    3.87    0.25
   1   7   0    3.18    0.27
   1   7   0    3.54    0.42
  -2  -7   0    1.92    0.32
  -2  -7   0    0.86    0.25
  -2  -7   0    0.89    0.34
   2   7   0    1.49    0.25
   2   7   0    1.58    0.32
   2   7   0    1.64    0.33
  -3  -7   0   -0.31    0.27
  -3  -7   0   -0.08    0.10
  -3  -7   0   -0.06    0.21
   3   7   0   -0.23    0.23
  -4  -7   0    1.44    0.43
  -4  -7   0    0.99    0.30
   4   7   0    2.10    0.31
   4   7   0    1.99    0.38
  -5  -7   0   -0.01    0.32
  -5  -7   0   -0.15    0.19
   5   7   0    0.01    0.22
   5   7   0   -0.24    0.30
  -6  -7   0    0.30    0.37
  -6  -7   0    0.24    0.24
   6   7   0    0.47    0.21
   6   7   0    0.03    0.36
  -7  -7   0    0.10    0.24
  -7  -7   0   -0.11    0.41
   7   7   0    0.07    0.42
   7   7   0    0.22    0.49
  -8   8   0    0.71    0.45
  -7   8   0    5.09    0.78
  -7   8   0    3.71    0.75
   6  -8   0    1.25    0.51
  -6   8   0    0.49    0.37
  -6   8   0    0.81    0.41
  -6   8   0    0.23    0.47
   5  -8   0    0.90    0.46
  -5   8   0    1.00    0.44
  -5   8   0    0.59    0.29
  -5   8   0    0.18    0.37
   4  -8   0    3.56    0.57
  -4   8   0    3.88    0.56
  -4   8   0    3.07    0.50
   3  -8   0    8.10    0.76
   3  -8   0    8.09    0.83
   3  -8   0    7.46    0.47
  -3   8   0    8.11    0.57
  -3   8   0    8.40    0.71
   2  -8   0    0.01    0.22
   2  -8   0   -0.16    0.31
   2  -8   0   -0.03    0.16
  -2   8   0    0.10    0.15
  -2   8   0   -0.07    0.31
   1  -8   0   16.32    0.89
   1  -8   0   15.37    0.87
   1  -8   0   16.09    1.01
  -1   8   0   15.25    0.62
  -1   8   0   15.18    0.78
   0  -8   0    3.50    0.60
   0  -8   0    3.71    0.45
   0   8   0    4.20    0.55
   0   8   0    4.36    0.32
  -1  -8   0    7.40    0.80
  -1  -8   0    7.09    0.59
  -1  -8   0    7.11    0.81
   1   8   0    7.15    0.61
  -2  -8   0    9.94    0.88
  -2  -8   0    9.54    0.62
  -2  -8   0    8.73    0.88
   2   8   0    9.67    0.64
   2   8   0    9.86    0.49
  -3  -8   0    1.05    0.40
   3   8   0    1.63    0.34
   3   8   0    1.85    0.32
  -4  -8   0   -0.05    0.22
  -4  -8   0   -0.20    0.31
   4   8   0   -0.59    0.23
   4   8   0    0.05    0.25
  -5  -8   0    0.05    0.22
  -5  -8   0   -0.12    0.34
   5   8   0    0.22    0.26
   5   8   0   -0.11    0.35
  -6  -8   0    0.14    0.40
  -6  -8   0    0.03    0.23
   6   8   0    0.22    0.40
   6   8   0   -0.01    0.38
  -7  -8   0    0.52    0.29
   7   8   0    1.04    0.50
   7   8   0    0.44    0.46
   7  -9   0    1.04    0.58
  -7   9   0    0.61    0.41
  -7   9   0    0.60    0.56
   6  -9   0    1.15    0.54
  -6   9   0    1.11    0.51
  -6   9   0    0.46    0.35
   5  -9   0    0.77    0.48
  -5   9   0    0.09    0.26
  -5   9   0    0.52    0.41
   4  -9   0    0.98    0.32
   4  -9   0    1.71    0.45
  -4   9   0    1.50    0.45
  -4   9   0    1.09    0.30
   3  -9   0    0.92    0.44
   3  -9   0    0.18    0.28
  -3   9   0    0.68    0.22
  -3   9   0    0.94    0.41
   2  -9   0    0.02    0.36
   2  -9   0   -0.03    0.26
   2  -9   0    0.06    0.18
  -2   9   0    0.17    0.37
  -2   9   0   -0.12    0.16
   1  -9   0    0.04    0.26
   1  -9   0    0.12    0.35
   1  -9   0    0.16    0.23
  -1   9   0    0.05    0.14
  -1   9   0    0.16    0.35
   0  -9   0    9.24    0.76
   0  -9   0    8.44    0.78
   0  -9   0    9.00    0.91
   0   9   0   10.10    0.76
  -1  -9   0    0.22    0.26
  -1  -9   0    0.18    0.29
  -1  -9   0    0.01    0.23
   1   9   0   -0.21    0.29
  -2  -9   0    0.83    0.29
  -2  -9   0    1.18    0.38
   2   9   0    0.77    0.33
  -3  -9   0   -0.07    0.31
  -3  -9   0    0.02    0.26
   3   9   0   -0.31    0.30
   3   9   0    0.25    0.28
  -4  -9   0    0.18    0.38
  -4  -9   0    0.09    0.25
   4   9   0   -0.37    0.28
   4   9   0   -0.39    0.30
  -5  -9   0    0.22    0.27
  -5  -9   0    0.36    0.41
   5   9   0    0.32    0.30
   5   9   0   -0.22    0.35
  -6  -9   0    1.31    0.35
   6   9   0    2.20    0.69
   6   9   0    1.49    0.48
   5 -10   0    2.96    0.66
  -5  10   0    2.34    0.56
   4 -10   0    0.37    0.47
   4 -10   0   -0.04    0.28
  -4  10   0    0.55    0.45
   3 -10   0    5.44    0.93
   3 -10   0    8.00    0.90
  -3  10   0    7.40    0.82
   2 -10   0    1.53    0.50
  -2  10   0    1.58    0.47
   1 -10   0    0.06    0.24
   1 -10   0    0.39    0.39
   1 -10   0    0.00    0.28
  -1  10   0    0.08    0.38
   0 -10   0   -0.20    0.25
   0 -10   0   -0.23    0.23
   0 -10   0    0.21    0.34
   0  10   0    0.29    0.35
  -1 -10   0    0.34    0.31
  -1 -10   0    0.18    0.32
  -1 -10   0   -0.22    0.24
   1  10   0    0.24    0.36
  -2 -10   0    0.29    0.30
  -2 -10   0    1.10    0.39
   2  10   0    1.19    0.43
  -3 -10   0    0.12    0.34
  -3 -10   0    0.05    0.28
   3  10   0   -0.21    0.34
  -4 -10   0   -0.19    0.26
  -4 -10   0    0.29    0.39
   4  10   0   -0.08    0.32
  -5 -10   0    1.10    0.37
   5  10   0    2.18    0.42
  -5  11   0    1.45    0.56
   4 -11   0    0.20    0.34
   4 -11   0    1.44    0.59
  -4  11   0    0.70    0.49
   3 -11   0   -0.20    0.32
   3 -11   0   -0.47    0.29
  -3  11   0    0.41    0.45
   2 -11   0    0.25    0.43
   2 -11   0   -0.38    0.29
  -2  11   0    0.27    0.45
   1 -11   0    0.69    0.45
  -1  11   0    0.51    0.42
   0 -11   0    0.50    0.33
   0 -11   0    0.18    0.34
   0 -11   0    0.90    0.42
   0  11   0    0.55    0.43
  -1 -11   0   -0.08    0.31
  -1 -11   0    0.15    0.32
   1  11   0   -0.03    0.38
  -2 -11   0   -0.29    0.32
  -2 -11   0    0.03    0.33
   2  11   0    0.05    0.43
  -3 -11   0    0.28    0.37
  -3 -11   0   -0.22    0.33
   3  11   0    0.25    0.41
   4  11   0    0.66    0.41
   3 -12   0   -0.13    0.51
  -3  12   0    0.16    0.52
   2 -12   0   -0.18    0.43
   2 -12   0   -0.58    0.34
  -2  12   0   -0.23    0.46
   1 -12   0    0.20    0.40
   1 -12   0    0.83    0.49
  -1  12   0    1.10    0.54
  -1 -12   0    0.66    0.41
  -2 -12   0    0.18    0.44
  -2 -12   1    1.10    0.50
  -1 -12   1    0.54    0.42
  -1  12  -1    0.28    0.48
   1 -12   1    0.54    0.47
  -2  12  -1   -0.04    0.47
   2 -12   1    0.68    0.49
  -3  12  -1   -0.24    0.48
   3 -12   1    0.61    0.53
   3  11  -1    0.49    0.40
  -3 -11   1   -0.09    0.32
  -3 -11   1   -0.05    0.39
   2  11  -1    0.52    0.46
  -2 -11   1   -0.22    0.29
  -2 -11   1    0.23    0.36
   1  11  -1    2.00    0.51
  -1 -11   1    0.81    0.39
  -1 -11   1    1.30    0.43
   0  11  -1   -0.10    0.39
   0 -11   1    0.01    0.27
   0 -11   1   -0.44    0.29
   0 -11   1   -0.15    0.40
  -1  11  -1   -0.18    0.38
   1 -11   1   -0.08    0.40
   1 -11   1   -0.23    0.31
  -2  11  -1    0.40    0.44
   2 -11   1   -0.33    0.31
   2 -11   1   -0.08    0.42
  -3  11  -1   -0.26    0.32
   3 -11   1   -0.27    0.29
   3 -11   1   -0.28    0.33
  -4  11  -1    0.32    0.39
   4 -11   1    0.30    0.36
   4 -11   1    0.78    0.55
  -5  11  -1    2.10    0.59
   5  10  -1    0.12    0.37
  -5 -10   1    0.00    0.29
   4  10  -1    2.03    0.44
  -4 -10   1    1.00    0.35
  -4 -10   1    1.46    0.50
   3  10  -1   -0.12    0.36
  -3 -10   1    0.40    0.38
  -3 -10   1    0.18    0.30
   2  10  -1    1.34    0.45
  -2 -10   1    0.36    0.30
  -2 -10   1    1.05    0.39
   1  10  -1    6.88    0.70
  -1 -10   1    5.72    0.66
  -1 -10   1    6.33    0.98
  -1 -10   1    6.30    0.85
   0  10  -1   -0.05    0.34
   0 -10   1   -0.41    0.23
   0 -10   1    0.53    0.36
   0 -10   1    0.02    0.27
  -1  10  -1    0.49    0.38
   1 -10   1    0.22    0.38
   1 -10   1    0.06    0.23
   1 -10   1   -0.09    0.28
  -2  10  -1    1.44    0.46
   2 -10   1    1.46    0.49
  -3  10  -1    2.04    0.51
   3 -10   1    1.73    0.53
  -4  10  -1    0.86    0.45
  -4  10  -1    0.12    0.27
   4 -10   1    0.41    0.33
   4 -10   1    0.99    0.52
  -5  10  -1    0.40    0.34
  -5  10  -1    0.03    0.41
   5 -10   1    0.44    0.50
  -6  10  -1    0.34    0.37
   6   9  -1   -0.48    0.44
  -6  -9   1   -0.11    0.25
   5   9  -1    0.19    0.32
   5   9  -1   -0.03    0.37
  -5  -9   1    0.34    0.40
  -5  -9   1    0.34    0.26
   4   9  -1   -0.04    0.29
   4   9  -1   -0.25    0.30
  -4  -9   1    0.00    0.25
  -4  -9   1   -0.06    0.32
   3   9  -1   -0.17    0.32
   3   9  -1   -0.12    0.27
  -3  -9   1    0.12    0.26
  -3  -9   1    0.15    0.32
   2   9  -1   -0.20    0.28
  -2  -9   1    0.17    0.32
  -2  -9   1    0.03    0.23
  -2  -9   1    0.03    0.26
   1   9  -1   -0.23    0.29
  -1  -9   1    0.33    0.27
  -1  -9   1    0.12    0.23
  -1  -9   1   -0.08    0.29
   0   9  -1    7.56    0.69
   0   9  -1    6.41    0.44
   0  -9   1    6.00    0.75
   0  -9   1    6.84    0.84
   0  -9   1    7.35    0.70
  -1   9  -1   32.57    1.28
  -1   9  -1   29.11    1.06
   1  -9   1   31.88    1.33
   1  -9   1   33.28    1.55
   1  -9   1   29.04    1.34
  -2   9  -1    0.39    0.30
  -2   9  -1    0.16    0.20
   2  -9   1    0.27    0.37
   2  -9   1    0.20    0.19
   2  -9   1   -0.10    0.25
  -3   9  -1    9.54    0.80
  -3   9  -1    7.69    0.62
   3  -9   1    8.50    0.94
   3  -9   1    9.75    0.87
  -4   9  -1    7.04    0.75
  -4   9  -1    5.22    0.64
   4  -9   1    5.66    0.95
   4  -9   1    6.73    0.83
  -5   9  -1    0.07    0.31
  -5   9  -1    0.77    0.41
   5  -9   1    0.40    0.47
  -6   9  -1    0.17    0.33
   6  -9   1    0.82    0.51
  -7   9  -1    1.09    0.43
   7   8  -1    0.19    0.46
   7   8  -1    0.82    0.49
   6   8  -1    0.15    0.26
   6   8  -1   -0.03    0.39
  -6  -8   1    0.12    0.39
  -6  -8   1   -0.20    0.22
   5   8  -1   -0.18    0.33
   5   8  -1   -0.23    0.25
  -5  -8   1   -0.21    0.33
  -5  -8   1   -0.19    0.22
   4   8  -1    1.78    0.37
   4   8  -1    2.14    0.39
  -4  -8   1    1.70    0.47
   3   8  -1   -0.11    0.24
   3   8  -1   -0.13    0.28
  -3  -8   1   -0.37    0.28
  -3  -8   1   -0.16    0.20
   2   8  -1    4.04    0.41
   2   8  -1    4.19    0.53
  -2  -8   1    2.94    0.49
  -2  -8   1    3.79    0.52
   1   8  -1    1.79    0.37
  -1  -8   1    1.31    0.34
  -1  -8   1    0.72    0.28
  -1  -8   1    1.75    0.38
   0   8  -1    0.53    0.31
   0   8  -1    0.34    0.15
   0  -8   1    0.14    0.23
   0  -8   1    0.49    0.32
   0  -8   1    0.19    0.23
  -1   8  -1    0.43    0.33
  -1   8  -1    0.43    0.17
   1  -8   1    0.33    0.23
   1  -8   1    0.18    0.22
   1  -8   1    0.33    0.32
  -2   8  -1    3.77    0.49
  -2   8  -1    3.77    0.44
   2  -8   1    3.92    0.53
   2  -8   1    4.00    0.46
  -3   8  -1    0.21    0.35
  -3   8  -1    0.20    0.23
   3  -8   1    0.08    0.23
   3  -8   1    0.27    0.15
   3  -8   1    0.14    0.38
  -4   8  -1    0.31    0.36
  -4   8  -1    0.32    0.25
   4  -8   1    0.60    0.42
   4  -8   1    0.25    0.24
  -5   8  -1    0.98    0.39
  -5   8  -1    0.86    0.34
   5  -8   1    1.21    0.48
  -6   8  -1    7.50    0.86
  -6   8  -1    6.74    0.79
   6  -8   1    8.85    0.89
  -7   8  -1    5.43    0.90
   7  -8   1    6.01    0.85
  -8   8  -1    0.76    0.43
   8   7  -1    1.33    0.54
   7   7  -1    0.12    0.43
  -7  -7   1    0.19    0.23
  -7  -7   1    0.27    0.45
   6   7  -1    0.51    0.24
   6   7  -1    0.57    0.39
  -6  -7   1    0.28    0.40
  -6  -7   1    0.16    0.22
   5   7  -1    1.30    0.39
  -5  -7   1    0.72    0.25
  -5  -7   1    0.72    0.40
   4   7  -1    1.10    0.33
  -4  -7   1    0.22    0.23
  -4  -7   1    0.46    0.36
   3   7  -1    4.42    0.49
   3   7  -1    3.56    0.45
  -3  -7   1    3.02    0.50
  -3  -7   1    4.09    0.43
   2   7  -1    6.91    0.50
   2   7  -1    4.72    0.42
  -2  -7   1    5.69    0.72
  -2  -7   1    6.40    0.37
  -2  -7   1    6.04    0.66
  -2  -7   1    6.49    0.49
   1   7  -1    8.40    0.55
   1   7  -1    8.63    0.33
  -1  -7   1    8.54    0.41
  -1  -7   1    7.45    0.72
  -1  -7   1    8.51    0.71
  -1  -7   1    7.95    0.55
   0   7  -1   -0.11    0.11
   0   7  -1   -0.03    0.09
   0   7  -1   -0.47    0.21
   0  -7   1    0.08    0.08
   0  -7   1   -0.42    0.20
   0  -7   1   -0.21    0.15
  -1   7  -1   10.08    0.51
  -1   7  -1   10.64    0.64
   1  -7   1   10.39    0.66
   1  -7   1   10.18    0.62
   1  -7   1    9.60    0.75
  -2   7  -1   15.33    0.75
  -2   7  -1   16.48    0.71
   2  -7   1   16.12    0.72
   2  -7   1   15.56    0.79
   2  -7   1   15.60    0.93
  -3   7  -1   -0.09    0.31
  -3   7  -1    0.35    0.21
   3  -7   1   -0.28    0.32
   3  -7   1    0.07    0.11
   3  -7   1   -0.04    0.19
  -4   7  -1    0.10    0.25
  -4   7  -1    0.18    0.31
  -4   7  -1    1.10    0.38
   4  -7   1    0.61    0.37
  -5   7  -1   18.48    1.04
  -5   7  -1   17.74    0.91
  -5   7  -1   16.81    0.98
   5  -7   1   19.96    1.05
  -6   7  -1    0.42    0.33
  -6   7  -1    0.03    0.46
   6  -7   1    1.31    0.46
  -7   7  -1    0.31    0.36
  -7   7  -1   -0.77    0.50
   7  -7   1    0.67    0.44
  -8   7  -1    0.29    0.40
   8  -7   1    0.21    0.43
   8   6  -1    2.06    0.56
   8   6  -1    1.14    0.55
  -8  -6   1    0.84    0.50
   7   6  -1    0.39    0.42
  -7  -6   1    0.02    0.40
  -7  -6   1    0.21    0.22
   6   6  -1    1.40    0.43
   6   6  -1    1.59    0.26
  -6  -6   1    1.06    0.43
   5   6  -1   -0.55    0.31
   5   6  -1    0.66    0.23
  -5  -6   1    0.14    0.20
  -5  -6   1   -0.01    0.34
   4   6  -1   -0.27    0.26
   4   6  -1    0.31    0.22
  -4  -6   1   -0.35    0.30
  -4  -6   1   -0.01    0.18
   3   6  -1    0.06    0.22
   3   6  -1    0.33    0.21
   3   6  -1    0.34    0.22
  -3  -6   1    0.11    0.22
  -3  -6   1    0.12    0.18
  -3  -6   1    0.40    0.07
  -3  -6   1    0.39    0.19
   2   6  -1   -0.30    0.19
   2   6  -1   -0.12    0.19
  -2  -6   1   -0.11    0.08
  -2  -6   1   -0.24    0.16
  -2  -6   1    0.10    0.21
  -2  -6   1   -0.04    0.14
   1   6  -1    2.68    0.32
   1   6  -1    2.99    0.34
   1   6  -1    3.04    0.18
  -1  -6   1    3.13    0.25
  -1  -6   1    3.07    0.41
  -1  -6   1    2.80    0.37
  -1  -6   1    2.88    0.45
   0   6  -1   -0.17    0.09
   0   6  -1   -0.13    0.17
   0   6  -1   -0.08    0.08
   0  -6   1   -0.02    0.07
   0  -6   1   -0.18    0.17
   0  -6   1   -0.07    0.13
   0  -6   1   -0.10    0.13
  -1   6  -1    8.92    0.44
  -1   6  -1    8.17    0.48
  -1   6  -1    8.41    0.39
   1  -6   1    9.02    0.55
   1  -6   1    9.20    0.55
   1  -6   1    9.53    0.64
   1  -6   1    9.23    0.45
  -2   6  -1    5.17    0.40
  -2   6  -1    4.78    0.40
   2  -6   1    5.62    0.54
   2  -6   1    5.48    0.37
   2  -6   1    5.24    0.46
  -3   6  -1    3.32    0.43
  -3   6  -1    2.88    0.39
  -3   6  -1    3.05    0.43
   3  -6   1    3.71    0.50
   3  -6   1    2.96    0.45
   3  -6   1    2.87    0.24
  -4   6  -1    7.01    0.61
  -4   6  -1    7.77    0.62
  -4   6  -1    7.34    0.58
   4  -6   1    7.65    0.64
  -5   6  -1    0.19    0.31
  -5   6  -1   -0.21    0.25
  -5   6  -1   -0.14    0.35
   5  -6   1    0.06    0.32
  -6   6  -1   -0.31    0.42
  -6   6  -1    0.52    0.32
  -6   6  -1    0.84    0.30
   6  -6   1    0.98    0.39
  -7   6  -1    0.09    0.34
   7  -6   1   -0.14    0.39
  -8   6  -1    0.01    0.36
   8  -6   1   -0.14    0.37
   8  -6   1    0.17    0.42
   9  -6   1    0.01    0.41
   9  -6   1   -0.16    0.42
   9   5  -1    0.21    0.45
  -9  -5   1    0.60    0.48
   8   5  -1    2.50    0.61
   8   5  -1    2.51    0.56
  -8  -5   1    3.31    0.79
  -8  -5   1    2.22    0.56
   7   5  -1    2.49    0.51
  -7  -5   1    2.26    0.51
   6   5  -1    4.65    0.59
   6   5  -1    4.39    0.37
  -6  -5   1    2.72    0.53
  -6  -5   1    4.30    0.56
   5   5  -1   20.50    0.69
   5   5  -1   17.90    0.84
  -5  -5   1   18.99    0.63
  -5  -5   1   20.33    0.99
  -5  -5   1   19.37    1.23
   4   5  -1    6.22    0.39
   4   5  -1    5.47    0.47
   4   5  -1    6.60    0.40
  -4  -5   1    6.35    0.38
  -4  -5   1    6.72    0.60
  -4  -5   1    6.67    0.29
  -4  -5   1    5.94    0.66
   3   5  -1   44.42    1.28
   3   5  -1   43.72    1.26
   3   5  -1   44.18    1.25
   3   5  -1   45.57    1.23
  -3  -5   1   46.51    1.53
  -3  -5   1   43.96    1.07
  -3  -5   1   46.43    1.76
  -3  -5   1   46.93    1.28
  -3  -5   1   43.80    1.32
   2   5  -1   16.19    0.61
   2   5  -1   16.23    0.63
  -2  -5   1   16.46    0.64
  -2  -5   1   16.15    0.59
  -2  -5   1   16.57    0.77
  -2  -5   1   16.96    0.88
   1   5  -1   20.44    0.73
   1   5  -1   22.03    0.77
   1   5  -1   21.56    0.57
   1   5  -1   21.54    0.71
  -1  -5   1   22.27    0.97
  -1  -5   1   22.10    0.90
  -1  -5   1   21.20    0.77
  -1  -5   1   21.67    0.69
   0   5  -1   -0.10    0.08
   0   5  -1   -0.11    0.11
   0   5  -1   -0.12    0.14
   0  -5   1   -0.19    0.13
   0  -5   1   -0.07    0.06
   0  -5   1   -0.10    0.10
   0  -5   1    0.00    0.11
  -1   5  -1   11.60    0.53
  -1   5  -1   10.98    0.48
  -1   5  -1   10.95    0.43
   1  -5   1   11.78    0.64
   1  -5   1   11.50    0.56
   1  -5   1   12.20    0.49
   1  -5   1   10.99    0.55
  -2   5  -1   51.60    1.46
  -2   5  -1   52.42    1.51
   2  -5   1   50.56    1.52
   2  -5   1   49.73    1.48
   2  -5   1   52.10    1.66
  -3   5  -1    4.97    0.46
  -3   5  -1    4.75    0.41
  -3   5  -1    4.85    0.40
   3  -5   1    4.30    0.20
   3  -5   1    4.46    0.41
   3  -5   1    4.49    0.47
  -4   5  -1    4.39    0.51
  -4   5  -1    3.55    0.41
  -4   5  -1    3.13    0.44
   4  -5   1    3.75    0.44
  -5   5  -1    0.57    0.35
  -5   5  -1    0.31    0.25
  -5   5  -1    0.53    0.25
   5  -5   1    0.10    0.31
  -6   5  -1    1.12    0.34
  -6   5  -1    1.56    0.47
  -6   5  -1    1.66    0.32
   6  -5   1    1.98    0.43
  -7   5  -1   -0.11    0.32
   7  -5   1   -0.28    0.34
  -8   5  -1    0.21    0.37
   8  -5   1    0.64    0.37
   8  -5   1    0.04    0.34
  -9   5  -1    0.22    0.41
   9  -5   1   -0.08    0.35
   9  -5   1   -0.07    0.37
   9   4  -1    0.64    0.44
   9   4  -1   -0.05    0.39
  -9  -4   1    0.52    0.43
  -9  -4   1    1.08    0.68
   8   4  -1    1.37    0.48
   8   4  -1    1.66    0.48
  -8  -4   1    2.84    0.71
  -8  -4   1    1.18    0.45
   7   4  -1    0.58    0.41
   7   4  -1    1.14    0.35
  -7  -4   1    0.71    0.22
  -7  -4   1    0.88    0.40
   6   4  -1    1.82    0.42
  -6  -4   1    1.19    0.22
  -6  -4   1    1.35    0.42
   5   4  -1    0.26    0.28
   5   4  -1    0.38    0.12
   5   4  -1    0.59    0.16
  -5  -4   1    0.32    0.16
  -5  -4   1    0.16    0.13
  -5  -4   1    0.17    0.27
   4   4  -1   20.42    0.65
   4   4  -1   18.72    0.64
   4   4  -1   19.60    0.75
  -4  -4   1   19.85    0.64
  -4  -4   1   20.24    1.06
  -4  -4   1   19.97    0.87
  -4  -4   1   18.73    0.59
   3   4  -1   13.23    0.49
   3   4  -1   13.01    0.49
   3   4  -1   13.69    0.55
   3   4  -1   12.90    0.50
  -3  -4   1   13.72    0.51
  -3  -4   1   13.00    0.40
  -3  -4   1   13.13    0.53
  -3  -4   1   13.40    0.66
  -3  -4   1   13.72    0.78
   2   4  -1   15.91    0.56
   2   4  -1   15.71    0.58
  -2  -4   1   16.05    0.56
  -2  -4   1   16.05    0.80
  -2  -4   1   16.13    0.59
  -2  -4   1   15.49    0.69
  -2  -4   1   15.60    0.41
   1   4  -1   34.50    1.13
   1   4  -1   33.37    0.97
   1   4  -1   34.30    0.98
   1   4  -1   34.40    1.00
   1   4  -1   34.18    0.81
  -1  -4   1   34.76    1.02
  -1  -4   1   34.34    1.24
  -1  -4   1   33.72    0.97
  -1  -4   1   34.02    1.13
  -1  -4   1   33.71    1.00
   0   4  -1  134.55    3.20
   0   4  -1  127.36    3.54
   0   4  -1  134.27    3.23
   0   4  -1  131.22    3.03
   0   4  -1  139.21    3.37
   0  -4   1  131.52    3.56
   0  -4   1  137.25    3.36
   0  -4   1  136.24    3.76
   0  -4   1  135.91    3.24
   0  -4   1  139.22    3.21
  -1   4  -1  126.68    3.37
  -1   4  -1  126.26    3.20
  -1   4  -1  128.38    3.05
  -1   4  -1  126.71    3.07
   1  -4   1  126.99    3.08
   1  -4   1  124.13    3.03
   1  -4   1  128.24    3.47
   1  -4   1  124.17    3.52
   1  -4   1  128.46    3.40
   1  -4   1  126.52    3.22
  -2   4  -1    0.48    0.13
  -2   4  -1    0.70    0.18
  -2   4  -1    0.78    0.18
   2  -4   1    0.69    0.18
   2  -4   1    0.47    0.17
   2  -4   1    0.62    0.20
   2  -4   1    0.34    0.12
   2  -4   1    0.56    0.09
  -3   4  -1    9.39    0.53
  -3   4  -1    9.39    0.46
  -3   4  -1    8.99    0.51
   3  -4   1    8.80    0.48
   3  -4   1    8.85    0.45
   3  -4   1    9.16    0.49
  -4   4  -1   -0.07    0.16
  -4   4  -1    0.18    0.17
  -4   4  -1   -0.02    0.22
   4  -4   1    0.04    0.19
   4  -4   1    0.01    0.15
  -5   4  -1    1.94    0.32
  -5   4  -1    2.61    0.46
  -5   4  -1    2.35    0.33
   5  -4   1    2.18    0.33
   5  -4   1    2.47    0.32
   5  -4   1    2.37    0.33
  -6   4  -1    0.09    0.20
  -6   4  -1   -0.18    0.36
  -6   4  -1   -0.03    0.26
   6  -4   1   -0.12    0.25
   6  -4   1   -0.07    0.28
  -7   4  -1    1.26    0.39
  -7   4  -1    1.36    0.50
   7  -4   1    1.95    0.39
   7  -4   1    2.14    0.40
   7  -4   1    1.82    0.36
  -8   4  -1    0.50    0.37
  -8   4  -1   -0.68    0.47
   8  -4   1    0.21    0.31
   8  -4   1   -0.32    0.33
   8  -4   1   -0.20    0.35
  -9   4  -1    0.30    0.39
   9  -4   1    0.52    0.32
   9  -4   1    0.46    0.45
   9  -4   1    0.13    0.39
   9   3  -1   -0.02    0.39
   9   3  -1    0.04    0.37
  -9  -3   1    0.17    0.40
  -9  -3   1   -0.06    0.57
   8   3  -1    1.93    0.48
   8   3  -1    2.53    0.51
  -8  -3   1    2.75    0.71
  -8  -3   1    1.67    0.48
   7   3  -1    2.77    0.52
   7   3  -1    3.46    0.47
  -7  -3   1    5.14    0.84
  -7  -3   1    5.06    0.83
  -7  -3   1    3.97    0.55
   6   3  -1   -0.08    0.10
   6   3  -1   -0.12    0.28
   6   3  -1    0.02    0.09
  -6  -3   1    0.14    0.14
  -6  -3   1   -0.01    0.26
   5   3  -1   -0.19    0.23
   5   3  -1    0.15    0.11
   5   3  -1    0.05    0.12
  -5  -3   1   -0.03    0.23
  -5  -3   1    0.10    0.09
  -5  -3   1   -0.09    0.11
   4   3  -1   15.86    0.64
   4   3  -1   15.27    0.50
  -4  -3   1   14.94    0.49
  -4  -3   1   15.71    0.86
  -4  -3   1   14.51    0.66
   3   3  -1   19.82    0.67
   3   3  -1   19.37    0.61
   3   3  -1   19.62    0.60
  -3  -3   1   19.72    0.61
  -3  -3   1   19.36    0.58
  -3  -3   1   20.65    0.92
  -3  -3   1   20.62    0.77
   2   3  -1  112.58    2.74
   2   3  -1  114.01    2.66
   2   3  -1  112.86    2.68
   2   3  -1  114.05    3.00
  -2  -3   1  113.65    3.01
  -2  -3   1  111.83    2.65
  -2  -3   1  114.31    3.30
  -2  -3   1  112.31    2.68
  -2  -3   1  115.70    2.52
  -2  -3   1  114.97    2.88
   1   3  -1   -0.10    0.08
   1   3  -1   -0.04    0.06
   1   3  -1   -0.02    0.06
   1   3  -1   -0.02    0.08
   1   3  -1    0.00    0.02
  -1  -3   1    0.07    0.06
  -1  -3   1   -0.04    0.08
  -1  -3   1   -0.01    0.06
  -1  -3   1   -0.04    0.07
  -1  -3   1   -0.05    0.10
   0   3  -1    9.73    0.39
   0   3  -1   10.15    0.43
   0   3  -1   10.01    0.36
   0   3  -1    9.89    0.38
   0   3  -1    9.87    0.30
   0  -3   1   10.13    0.38
   0  -3   1    9.70    0.44
   0  -3   1   10.12    0.36
   0  -3   1    9.88    0.45
   0  -3   1    9.61    0.39
  -1   3  -1    5.77    0.28
  -1   3  -1    5.84    0.29
  -1   3  -1    6.06    0.34
  -1   3  -1    5.48    0.28
   1  -3   1    6.16    0.36
   1  -3   1    5.92    0.29
   1  -3   1    6.08    0.29
   1  -3   1    6.16    0.32
   1  -3   1    5.78    0.29
   1  -3   1    5.89    0.31
  -2   3  -1   98.67    2.40
  -2   3  -1   97.59    2.76
  -2   3  -1   99.19    2.67
  -2   3  -1   99.07    2.42
  -2   3  -1   99.18    2.60
   2  -3   1   99.09    2.43
   2  -3   1   97.74    2.40
   2  -3   1   99.74    2.78
   2  -3   1  101.84    2.63
   2  -3   1  101.76    2.69
  -3   3  -1    0.14    0.16
  -3   3  -1   -0.10    0.11
  -3   3  -1   -0.13    0.12
  -3   3  -1    0.01    0.08
   3  -3   1    0.03    0.10
   3  -3   1   -0.15    0.11
   3  -3   1   -0.23    0.15
   3  -3   1   -0.15    0.12
  -4   3  -1   45.94    1.47
  -4   3  -1   44.16    1.20
  -4   3  -1   43.83    1.43
   4  -3   1   44.15    1.26
   4  -3   1   41.57    1.13
   4  -3   1   41.83    1.44
   4  -3   1   41.56    1.21
  -5   3  -1    1.44    0.27
  -5   3  -1    2.20    0.37
  -5   3  -1    1.76    0.13
  -5   3  -1    2.35    0.29
  -5   3  -1    2.13    0.13
   5  -3   1    2.21    0.31
   5  -3   1    2.48    0.36
   5  -3   1    2.61    0.36
  -6   3  -1    4.93    0.63
  -6   3  -1    5.45    0.37
  -6   3  -1    4.36    0.61
  -6   3  -1    4.72    0.25
   6  -3   1    5.77    0.48
   6  -3   1    4.82    0.46
   6  -3   1    4.99    0.44
  -7   3  -1   -0.10    0.30
  -7   3  -1   -0.35    0.38
   7  -3   1   -0.23    0.25
   7  -3   1    0.31    0.27
   7  -3   1    0.22    0.29
  -8   3  -1    1.15    0.41
  -8   3  -1    0.63    0.53
   8  -3   1    1.04    0.42
   8  -3   1    1.46    0.31
   8  -3   1    1.40    0.41
  -9   3  -1    0.23    0.40
  -9   3  -1    0.09    0.58
   9  -3   1   -0.12    0.41
   9  -3   1    0.21    0.35
   9   2  -1    0.14    0.42
   9   2  -1    0.15    0.41
  -9  -2   1    0.71    0.60
  -9  -2   1    0.70    0.41
   8   2  -1    1.36    0.43
   8   2  -1    1.23    0.46
   8   2  -1    1.62    0.34
  -8  -2   1    1.17    0.41
  -8  -2   1    1.71    0.62
   7   2  -1   -0.07    0.34
   7   2  -1    0.03    0.22
   7   2  -1    0.00    0.26
  -7  -2   1    0.09    0.14
  -7  -2   1   -0.23    0.27
  -7  -2   1   -0.03    0.43
   6   2  -1   -0.15    0.20
   6   2  -1   -0.40    0.26
   6   2  -1   -0.16    0.08
  -6  -2   1   -0.08    0.23
  -6  -2   1   -0.04    0.12
  -6  -2   1   -0.29    0.13
   5   2  -1    9.06    0.53
   5   2  -1    8.34    0.33
   5   2  -1    8.68    0.43
   5   2  -1    8.58    0.33
  -5  -2   1    8.21    0.26
  -5  -2   1    8.66    0.51
  -5  -2   1    8.76    0.38
  -5  -2   1    8.21    0.28
  -5  -2   1    9.58    0.69
   4   2  -1    1.74    0.23
   4   2  -1    1.38    0.18
   4   2  -1    1.33    0.23
  -4  -2   1    1.44    0.16
  -4  -2   1    1.33    0.19
  -4  -2   1    1.65    0.27
  -4  -2   1    1.38    0.13
  -4  -2   1    0.82    0.22
   3   2  -1   92.28    2.52
   3   2  -1  111.80    2.53
   3   2  -1  114.57    2.47
  -3  -2   1  107.21    2.62
  -3  -2   1  110.48    2.51
  -3  -2   1  113.59    3.21
  -3  -2   1  112.31    2.54
  -3  -2   1  113.80    2.88
   2   2  -1   69.82    1.68
   2   2  -1   70.85    1.74
   2   2  -1   72.58    1.90
   2   2  -1   70.40    1.69
  -2  -2   1   72.69    1.90
  -2  -2   1   71.09    2.12
  -2  -2   1   70.38    1.67
  -2  -2   1   69.78    1.69
   1   2  -1  158.91    3.67
   1   2  -1  163.64    4.37
   1   2  -1  164.73    4.06
   1   2  -1  161.41    3.69
  -1  -2   1  156.44    3.67
  -1  -2   1  164.06    3.96
  -1  -2   1  163.75    4.38
  -1  -2   1  159.25    3.69
  -1  -2   1  164.07    4.06
   0   2  -1  107.29    2.46
   0   2  -1  104.12    2.72
   0   2  -1  106.78    2.48
   0   2  -1  107.32    2.63
   0   2  -1  106.22    2.88
   0  -2   1  105.62    2.73
   0  -2   1  109.46    2.47
   0  -2   1  105.99    2.88
   0  -2   1  100.04    2.48
   0  -2   1  109.16    2.63
  -1   2  -1   46.31    1.20
  -1   2  -1   48.29    1.29
  -1   2  -1   49.02    1.35
  -1   2  -1   49.07    1.34
  -1   2  -1   48.78    1.22
  -1   2  -1   48.00    1.36
   1  -2   1   48.64    1.30
   1  -2   1   49.02    1.20
   1  -2   1   48.49    1.35
   1  -2   1   48.69    1.34
   1  -2   1   48.42    1.37
   1  -2   1   48.04    1.22
  -2   2  -1   18.61    0.67
  -2   2  -1   19.13    0.58
  -2   2  -1   19.63    0.56
  -2   2  -1   18.94    0.57
  -2   2  -1   19.81    0.65
  -2   2  -1   19.41    0.66
   2  -2   1   19.09    0.65
   2  -2   1   18.63    0.52
   2  -2   1   18.88    0.57
   2  -2   1   19.39    0.59
  -3   2  -1    4.35    0.25
  -3   2  -1    4.37    0.32
  -3   2  -1    4.13    0.25
  -3   2  -1    4.44    0.32
   3  -2   1    4.22    0.30
   3  -2   1    4.26    0.26
   3  -2   1    4.17    0.27
   3  -2   1    4.12    0.24
  -4   2  -1    0.27    0.13
  -4   2  -1    0.34    0.20
   4  -2   1    0.22    0.15
   4  -2   1    0.23    0.15
   4  -2   1    0.49    0.19
   4  -2   1    0.46    0.15
  -5   2  -1    2.51    0.26
  -5   2  -1    2.42    0.40
  -5   2  -1    2.36    0.23
   5  -2   1    2.56    0.29
   5  -2   1    2.36    0.31
   5  -2   1    2.63    0.34
   5  -2   1    2.27    0.27
  -6   2  -1    0.03    0.29
  -6   2  -1    0.09    0.13
  -6   2  -1    0.10    0.12
   6  -2   1    0.01    0.21
   6  -2   1    0.05    0.26
   6  -2   1    0.09    0.16
   6  -2   1    0.27    0.20
  -7   2  -1    4.59    0.72
   7  -2   1    4.49    0.48
   7  -2   1    4.71    0.43
   7  -2   1    4.72    0.53
  -8   2  -1    1.06    0.41
  -8   2  -1    1.44    0.56
   8  -2   1    1.28    0.25
   8  -2   1    1.33    0.36
   8  -2   1    1.26    0.36
  -9   2  -1    0.75    0.43
  -9   2  -1    0.02    0.50
   9  -2   1    0.05    0.36
   9  -2   1    0.60    0.42
  10  -2   1    1.86    0.56
  10  -2   1    0.62    0.43
  10   1  -1   -0.43    0.42
 -10  -1   1    0.60    0.63
   9   1  -1    0.15    0.34
   9   1  -1   -0.33    0.38
  -9  -1   1    0.41    0.54
   8   1  -1    0.02    0.26
   8   1  -1   -0.27    0.28
   8   1  -1   -0.05    0.24
  -8  -1   1   -0.26    0.28
  -8  -1   1   -0.15    0.47
   7   1  -1   -0.15    0.25
   7   1  -1   -0.10    0.25
   7   1  -1    0.03    0.23
   7   1  -1   -0.13    0.10
  -7  -1   1    0.15    0.14
  -7  -1   1    0.04    0.27
  -7  -1   1    0.05    0.41
  -7  -1   1    0.09    0.16
   6   1  -1    8.85    0.60
   6   1  -1    8.48    0.59
   6   1  -1    9.95    0.50
   6   1  -1    8.29    0.34
  -6  -1   1    8.57    0.79
  -6  -1   1    7.61    0.24
  -6  -1   1    9.30    0.69
  -6  -1   1    9.77    0.54
   5   1  -1    7.09    0.49
   5   1  -1    6.82    0.30
   5   1  -1    6.85    0.31
   5   1  -1    7.12    0.39
  -5  -1   1    6.86    0.59
  -5  -1   1    6.52    0.63
  -5  -1   1    6.40    0.25
  -5  -1   1    6.66    0.24
   4   1  -1    0.39    0.11
   4   1  -1    0.40    0.14
   4   1  -1    0.11    0.16
   4   1  -1    0.22    0.06
  -4  -1   1    0.39    0.10
  -4  -1   1    0.45    0.09
   3   1  -1    0.47    0.10
   3   1  -1    0.55    0.15
   3   1  -1    0.59    0.10
  -3  -1   1    0.62    0.09
  -3  -1   1    0.75    0.10
  -3  -1   1    0.41    0.14
  -3  -1   1    0.34    0.07
   2   1  -1    0.01    0.06
   2   1  -1   -0.05    0.08
  -2  -1   1   -0.17    0.06
  -2  -1   1   -0.13    0.09
  -2  -1   1   -0.20    0.07
  -2  -1   1    0.13    0.07
  -2  -1   1    0.06    0.04
   1   1  -1    3.39    0.21
   1   1  -1    3.31    0.15
   1   1  -1    3.28    0.14
   1   1  -1    3.38    0.15
   1   1  -1    3.27    0.15
  -1  -1   1    3.34    0.21
  -1  -1   1    3.42    0.14
  -1  -1   1    3.33    0.15
  -1  -1   1    3.30    0.15
  -1  -1   1    3.20    0.14
   0   1  -1  838.04   19.18
   0   1  -1  845.15   21.00
   0  -1   1  836.79   20.99
   0  -1   1  856.46   19.21
  -1   1  -1   34.04    0.94
  -1   1  -1   35.07    0.95
  -1   1  -1   33.67    0.84
  -1   1  -1   34.97    0.95
  -1   1  -1   34.32    0.85
   1  -1   1   35.21    0.94
   1  -1   1   34.29    0.85
   1  -1   1   33.67    0.95
   1  -1   1   34.35    0.84
  -2   1  -1   24.85    0.78
  -2   1  -1   23.96    0.63
  -2   1  -1   24.40    0.64
   2  -1   1   23.57    0.77
   2  -1   1   24.50    0.65
   2  -1   1   24.38    0.63
   2  -1   1   24.42    0.63
  -3   1  -1    0.49    0.15
  -3   1  -1    0.64    0.09
   3  -1   1    0.54    0.10
   3  -1   1    0.62    0.15
   3  -1   1    0.49    0.10
   3  -1   1    0.71    0.14
  -4   1  -1    4.01    0.22
  -4   1  -1    4.13    0.20
  -4   1  -1    3.56    0.40
   4  -1   1    3.94    0.23
   4  -1   1    3.76    0.30
   4  -1   1    4.11    0.33
  -5   1  -1    2.87    0.42
  -5   1  -1    3.01    0.18
  -5   1  -1    3.09    0.35
   5  -1   1    3.15    0.25
   5  -1   1    3.29    0.33
   5  -1   1    2.88    0.30
  -6   1  -1    4.68    0.57
  -6   1  -1    3.47    0.44
  -6   1  -1    3.98    0.21
   6  -1   1    3.43    0.40
   6  -1   1    4.12    0.28
   6  -1   1    3.81    0.46
   6  -1   1    4.38    0.30
  -7   1  -1    2.99    0.46
  -7   1  -1    2.19    0.53
   7  -1   1    1.93    0.40
   7  -1   1    2.40    0.27
   7  -1   1    1.99    0.35
  -8   1  -1   -0.12    0.44
   8  -1   1    0.88    0.42
   8  -1   1    0.00    0.30
  -9   1  -1    1.33    0.46
  -9   1  -1    2.16    0.68
   9  -1   1    1.46    0.49
   9  -1   1    1.95    0.46
  10  -1   1    1.08    0.43
  10  -1   1    1.44    0.52
  10   0  -1    0.45    0.49
 -10   0   1    0.36    0.67
   9   0  -1   -0.01    0.31
   9   0  -1   -0.29    0.39
  -9   0   1    0.49    0.54
   8   0  -1    2.51    0.37
   8   0  -1    2.27    0.48
  -8   0   1    2.78    0.64
   7   0  -1    4.47    0.44
   7   0  -1    3.89    0.42
   7   0  -1    4.58    0.54
   7   0  -1    4.72    0.34
  -7   0   1    4.11    0.57
  -7   0   1    5.61    0.82
   6   0  -1    1.79    0.27
   6   0  -1    1.60    0.31
   6   0  -1    1.80    0.30
   6   0  -1    1.65    0.25
   6   0  -1    1.77    0.23
  -6   0   1    1.75    0.18
  -6   0   1    1.75    0.45
  -6   0   1    1.12    0.26
   5   0  -1    3.35    0.37
   5   0  -1    3.50    0.32
   5   0  -1    3.02    0.27
  -5   0   1    3.06    0.21
  -5   0   1    2.75    0.40
  -5   0   1    2.82    0.43
   4   0  -1   10.15    0.47
   4   0  -1   10.39    0.39
   4   0  -1   10.03    0.38
   4   0  -1    8.47    0.35
  -4   0   1   10.51    0.35
  -4   0   1   10.22    0.34
  -4   0   1    8.88    0.54
  -4   0   1    8.48    0.61
   3   0  -1   25.71    0.70
   3   0  -1   26.50    0.67
   3   0  -1   26.38    0.71
   3   0  -1   27.16    0.74
  -3   0   1   26.00    0.69
  -3   0   1   26.46    0.90
  -3   0   1   25.81    0.96
  -3   0   1   26.38    0.70
   2   0  -1  623.87   16.77
   2   0  -1  636.69   12.89
   2   0  -1  608.69   14.00
   2   0  -1  609.31   14.15
  -2   0   1  606.60   16.47
  -2   0   1  626.19   14.07
  -2   0   1  616.20   14.16
  -2   0   1  624.65   17.09
   1   0  -1   20.23    0.55
   1   0  -1   20.62    0.55
   1   0  -1   20.19    0.68
   1   0  -1   20.90    0.65
  -1   0   1   21.19    0.54
  -1   0   1   20.44    0.68
  -1   0   1   20.63    0.55
  -1   0   1   19.87    0.55
  -1   0   1   20.14    0.65
   0   0  -1   23.83    0.61
   0   0   1   21.48    0.59
   0   0   1   28.95    0.61
   0   0   1   26.71    0.65
  -1   0  -1  558.63   14.14
   1   0   1  572.66   11.95
   1   0   1  576.09   11.96
  -2   0  -1   84.04    1.89
  -2   0  -1   84.04    1.86
   2   0   1   87.21    1.82
   2   0   1   83.91    1.91
   2   0   1   86.71    1.84
   2   0   1   72.25    1.86
  -3   0  -1   18.17    0.45
  -3   0  -1   19.00    0.73
  -3   0  -1   18.46    0.44
   3   0   1   18.84    0.59
   3   0   1   18.40    0.47
   3   0   1   18.46    0.47
   3   0   1   19.19    0.58
  -4   0  -1    1.74    0.07
  -4   0  -1    2.15    0.08
   4   0   1    2.35    0.14
   4   0   1    3.07    0.32
   4   0   1    2.40    0.29
   4   0   1    2.10    0.14
   4   0   1    2.09    0.28
  -5   0  -1    6.19    0.54
   5   0   1    5.65    0.21
   5   0   1    5.62    0.43
   5   0   1    5.82    0.40
   5   0   1    5.99    0.22
   5   0   1    6.35    0.45
  -6   0  -1    5.18    0.57
   6   0   1    5.46    0.45
   6   0   1    6.94    0.49
  -7   0  -1    4.31    0.61
  -7   0  -1    4.49    0.76
   7   0   1    4.06    0.54
   7   0   1    3.39    0.46
  -8   0  -1    5.21    0.87
   8   0   1    2.47    0.51
   8   0   1    3.93    0.53
  -9   0  -1    0.95    0.59
   9   0   1    0.46    0.43
   9   0   1    0.19    0.40
 -10   0  -1    0.63    0.67
  10   0   1    0.93    0.50
  10   0   1    0.42    0.42
  10  -1  -1   -0.21    0.46
 -10   1   1    0.47    0.62
   9  -1  -1   -0.09    0.42
   9  -1  -1    0.35    0.33
  -9   1   1    0.93    0.57
   8  -1  -1    0.43    0.35
   8  -1  -1    0.27    0.25
   8  -1  -1    0.52    0.22
  -8   1   1    0.47    0.47
   7  -1  -1    0.12    0.31
   7  -1  -1   -0.14    0.19
   7  -1  -1   -0.01    0.21
  -7   1   1    0.29    0.41
  -7   1   1   -0.03    0.18
   6  -1  -1    0.58    0.20
   6  -1  -1    0.53    0.20
   6  -1  -1    0.12    0.27
   6  -1  -1    0.68    0.18
  -6   1   1    0.38    0.18
  -6   1   1    0.59    0.14
  -6   1   1    0.47    0.35
   5  -1  -1    6.49    0.37
   5  -1  -1    6.66    0.37
   5  -1  -1    6.72    0.36
   5  -1  -1    6.02    0.43
  -5   1   1    6.54    0.58
  -5   1   1    6.64    0.33
  -5   1   1    6.71    0.45
   4  -1  -1   19.91    0.68
   4  -1  -1   20.13    0.64
   4  -1  -1   20.71    0.60
  -4   1   1   20.00    0.75
  -4   1   1   20.55    0.62
  -4   1   1   19.12    0.86
  -4   1   1   20.48    0.63
   3  -1  -1   51.76    1.14
   3  -1  -1   47.80    1.56
   3  -1  -1   48.32    1.26
   3  -1  -1   50.16    1.20
  -3   1   1   53.33    1.26
  -3   1   1   50.56    1.59
  -3   1   1   47.23    1.43
  -3   1   1   49.27    1.25
   1  -1  -1  210.24    5.73
   1  -1  -1  211.41    5.45
   1  -1  -1  204.77    4.81
   1  -1  -1  212.11    5.80
   1  -1  -1  212.91    4.73
   1  -1  -1  212.23    4.93
  -1   1   1  208.46    5.40
  -1   1   1  210.25    4.73
  -1   1   1  212.73    4.66
  -1   1   1  211.89    5.83
  -1   1   1  209.72    4.73
   0  -1  -1   23.26    0.61
   0  -1  -1   25.94    0.63
   0  -1  -1   24.11    0.69
   0  -1  -1   23.44    0.62
   0  -1  -1   26.66    0.74
   0   1   1   25.50    0.61
   0   1   1   25.15    0.62
   0   1   1   24.62    0.61
   0   1   1   23.57    0.56
   0   1   1   25.85    0.73
   0   1   1   24.53    0.62
   0   1   1   25.59    0.70
  -1  -1  -1    3.91    0.18
  -1  -1  -1    4.08    0.15
   1   1   1    3.78    0.18
   1   1   1    3.55    0.15
   1   1   1    3.74    0.17
   2   1   1   26.38    0.60
   2   1   1   26.44    0.70
   2   1   1   26.57    0.69
   2   1   1   25.63    0.59
   3   1   1   73.49    1.73
   3   1   1   72.87    1.75
   3   1   1   78.99    2.14
   4   1   1  156.23    3.46
   4   1   1  151.59    3.49
   4   1   1  165.79    4.23
   5   1   1    2.26    0.33
   5   1   1    2.44    0.32
   5   1   1    2.23    0.33
   6   1   1    1.93    0.36
   6   1   1    1.30    0.30
  -7  -1  -1    6.60    0.77
  -7  -1  -1    7.46    0.73
   7   1   1    6.19    0.61
   7   1   1    5.94    0.54
   7   1   1    6.18    0.60
  -8  -1  -1    1.94    0.57
  -8  -1  -1    0.97    0.35
   8   1   1    1.26    0.45
   8   1   1    0.91    0.39
  -9  -1  -1    0.84    0.60
   9   1   1    0.32    0.35
   9   1   1    0.17    0.36
  10  -2  -1    0.29    0.49
 -10   2   1    0.11    0.63
   9  -2  -1   -0.25    0.38
  -9   2   1    0.57    0.55
   8  -2  -1    0.33    0.26
   8  -2  -1   -0.07    0.35
   8  -2  -1    0.20    0.27
  -8   2   1    0.37    0.47
   7  -2  -1   -0.29    0.17
   7  -2  -1   -0.16    0.23
   7  -2  -1   -0.35    0.28
  -7   2   1   -0.24    0.13
  -7   2   1   -0.32    0.38
   6  -2  -1    0.84    0.22
   6  -2  -1    0.54    0.20
   6  -2  -1    0.24    0.27
   6  -2  -1    0.34    0.23
  -6   2   1    0.99    0.38
  -6   2   1    0.40    0.14
  -6   2   1    0.69    0.18
   5  -2  -1    0.04    0.19
   5  -2  -1    0.06    0.15
   5  -2  -1    0.13    0.19
   5  -2  -1    0.25    0.17
  -5   2   1    0.07    0.14
  -5   2   1    0.06    0.10
  -5   2   1    0.00    0.10
  -5   2   1    0.27    0.27
   4  -2  -1    0.52    0.18
   4  -2  -1    0.75    0.21
   4  -2  -1    0.49    0.19
  -4   2   1    0.38    0.10
  -4   2   1    0.73    0.26
  -4   2   1    0.68    0.18
  -4   2   1    0.21    0.10
   3  -2  -1    0.50    0.14
   3  -2  -1    0.53    0.15
   3  -2  -1    0.44    0.13
   3  -2  -1    0.45    0.17
  -3   2   1    0.37    0.15
  -3   2   1    0.25    0.08
  -3   2   1    0.46    0.15
  -3   2   1    0.58    0.20
  -3   2   1    0.74    0.12
   2  -2  -1  294.21    7.77
   2  -2  -1  283.94    6.55
   2  -2  -1  293.67    6.54
   2  -2  -1  288.27    7.72
   2  -2  -1  290.90    5.94
   2  -2  -1  290.06    7.36
  -2   2   1  287.83    7.72
  -2   2   1  293.53    6.46
  -2   2   1  283.87    7.12
  -2   2   1  286.02    6.53
  -2   2   1  290.23    6.54
   1  -2  -1  457.90   10.42
   1  -2  -1  450.02   12.73
   1  -2  -1  456.86   10.76
   1  -2  -1  476.02   10.65
   1  -2  -1  460.52   11.84
  -1   2   1  465.12   10.50
  -1   2   1  456.69   12.73
  -1   2   1  463.91   11.71
  -1   2   1  458.88   10.55
  -1   2   1  447.26   10.57
   0  -2  -1  199.87    5.32
   0  -2  -1  189.43    4.89
   0  -2  -1  188.96    4.39
   0  -2  -1  193.80    4.45
   0  -2  -1  207.33    4.45
   0   2   1  193.93    4.90
   0   2   1  201.06    4.44
   0   2   1  195.30    4.40
  -1  -2  -1    4.84    0.20
  -1  -2  -1    5.38    0.29
  -1  -2  -1    4.85    0.20
  -1  -2  -1    4.96    0.21
   1   2   1    5.01    0.20
   1   2   1    5.14    0.22
   1   2   1    5.08    0.20
   1   2   1    4.74    0.20
  -2  -2  -1   65.24    1.48
  -2  -2  -1   63.68    1.79
  -2  -2  -1   64.94    1.54
  -2  -2  -1   64.47    1.49
   2   2   1   63.03    1.47
   2   2   1   64.77    1.47
   2   2   1   62.05    1.50
   2   2   1   63.85    1.48
   3   2   1    0.60    0.18
   3   2   1    0.73    0.20
   3   2   1    0.83    0.17
   3   2   1    0.72    0.09
   4   2   1    3.28    0.33
   4   2   1    3.98    0.40
   4   2   1    4.49    0.36
   5   2   1    0.27    0.20
   5   2   1    0.06    0.19
   5   2   1    0.12    0.18
  -6  -2  -1    3.23    0.47
  -6  -2  -1    3.96    0.57
   6   2   1    3.72    0.44
   6   2   1    3.17    0.45
   6   2   1    2.87    0.44
  -7  -2  -1    1.02    0.47
  -7  -2  -1    0.23    0.20
  -7  -2  -1    0.52    0.31
   7   2   1    0.45    0.38
   7   2   1    0.60    0.35
   7   2   1    0.14    0.29
  -8  -2  -1   -0.05    0.28
  -8  -2  -1   -0.05    0.19
  -8  -2  -1    0.07    0.49
   8   2   1   -0.22    0.28
   8   2   1   -0.19    0.33
   8   2   1   -0.53    0.34
  -9  -2  -1    0.81    0.57
   9   2   1    0.16    0.42
   9   2   1   -0.18    0.36
  10  -3  -1    0.30    0.46
 -10   3   1   -0.81    0.65
   9  -3  -1    0.18    0.29
   9  -3  -1    0.30    0.43
  -9   3   1   -0.16    0.56
   8  -3  -1    0.51    0.32
   8  -3  -1    0.09    0.35
   8  -3  -1    0.25    0.28
  -8   3   1    0.15    0.49
   7  -3  -1    0.63    0.26
   7  -3  -1    0.57    0.31
   7  -3  -1    0.49    0.31
  -7   3   1    0.15    0.43
   6  -3  -1    0.21    0.27
   6  -3  -1   -0.09    0.24
   6  -3  -1    0.22    0.19
   6  -3  -1    0.12    0.22
  -6   3   1    0.00    0.08
  -6   3   1    0.24    0.20
  -6   3   1    0.46    0.38
   5  -3  -1    0.04    0.19
   5  -3  -1   -0.02    0.17
   5  -3  -1    0.25    0.20
  -5   3   1    0.29    0.29
  -5   3   1    0.11    0.16
  -5   3   1   -0.09    0.10
   4  -3  -1   28.96    0.95
   4  -3  -1   27.90    0.92
   4  -3  -1   27.05    0.81
  -4   3   1   27.91    0.95
  -4   3   1   27.06    0.88
  -4   3   1   28.72    1.12
   3  -3  -1   36.82    1.11
   3  -3  -1   35.40    1.03
   3  -3  -1   34.62    0.87
   3  -3  -1   34.16    1.04
   3  -3  -1   33.87    1.21
  -3   3   1   34.99    1.08
  -3   3   1   34.98    1.22
  -3   3   1   35.16    1.02
   2  -3  -1   11.16    0.31
   2  -3  -1   11.47    0.46
   2  -3  -1   11.61    0.51
   2  -3  -1   10.91    0.47
   2  -3  -1   10.84    0.52
  -2   3   1   10.80    0.46
  -2   3   1   10.93    0.47
  -2   3   1   11.59    0.54
  -2   3   1   10.66    0.45
  -2   3   1   11.31    0.44
   1  -3  -1    6.10    0.32
   1  -3  -1    6.15    0.38
   1  -3  -1    6.40    0.35
   1  -3  -1    6.34    0.29
   1  -3  -1    6.36    0.31
  -1   3   1    6.67    0.29
  -1   3   1    6.33    0.27
  -1   3   1    6.65    0.32
  -1   3   1    6.35    0.34
  -1   3   1    6.33    0.38
   0  -3  -1   86.40    2.12
   0  -3  -1   83.80    2.34
   0  -3  -1   87.34    2.03
   0  -3  -1   88.83    2.49
   0  -3  -1   89.64    2.11
   0   3   1   89.09    2.11
   0   3   1   87.58    2.15
   0   3   1   87.08    2.12
   0   3   1   88.51    2.03
   0   3   1   85.55    2.34
  -1  -3  -1   52.72    1.30
  -1  -3  -1   51.38    1.32
  -1  -3  -1   52.63    1.27
  -1  -3  -1   51.64    1.53
  -1  -3  -1   52.81    1.31
   1   3   1   51.93    1.52
   1   3   1   51.70    1.32
   1   3   1   52.65    1.17
   1   3   1   51.02    1.30
   1   3   1   53.91    1.27
  -2  -3  -1   43.10    1.34
  -2  -3  -1   43.06    1.08
  -2  -3  -1   43.75    1.09
  -2  -3  -1   42.93    1.09
   2   3   1   42.21    1.08
   2   3   1   42.39    1.09
   2   3   1   42.41    1.06
  -3  -3  -1   -0.16    0.09
  -3  -3  -1   -0.07    0.07
  -3  -3  -1   -0.05    0.07
  -3  -3  -1    0.15    0.09
   3   3   1   -0.08    0.07
   3   3   1   -0.08    0.12
  -4  -3  -1    6.45    0.37
  -4  -3  -1    6.63    0.50
   4   3   1    7.15    0.42
   4   3   1    6.52    0.23
   4   3   1    6.95    0.23
   4   3   1    6.66    0.44
   4   3   1    6.76    0.51
  -5  -3  -1    0.18    0.22
  -5  -3  -1    0.01    0.14
   5   3   1    0.15    0.16
   5   3   1    0.04    0.26
   5   3   1    0.19    0.21
  -6  -3  -1    0.21    0.26
  -6  -3  -1    0.08    0.17
   6   3   1   -0.10    0.31
   6   3   1   -0.08    0.24
   6   3   1   -0.53    0.27
  -7  -3  -1    0.97    0.24
  -7  -3  -1    1.57    0.41
   7   3   1    1.74    0.45
   7   3   1    1.73    0.37
   7   3   1    1.59    0.48
  -8  -3  -1    0.22    0.22
  -8  -3  -1    0.38    0.38
  -8  -3  -1    0.87    0.54
   8   3   1    0.10    0.39
   8   3   1    0.16    0.43
   8   3   1    0.11    0.39
  -9  -3  -1    1.46    0.59
  -9  -3  -1    0.29    0.37
   9   3   1   -0.38    0.39
   9   3   1    0.24    0.43
   9  -4  -1    0.10    0.40
   9  -4  -1    1.10    0.38
  -9   4   1    0.61    0.43
   8  -4  -1   -0.48    0.25
   8  -4  -1    0.02    0.33
   8  -4  -1    0.25    0.35
   7  -4  -1    1.05    0.28
   7  -4  -1    0.81    0.33
   7  -4  -1    1.10    0.33
  -7   4   1    0.76    0.50
   6  -4  -1    4.17    0.42
   6  -4  -1    5.56    0.55
  -6   4   1    4.98    0.47
  -6   4   1    5.07    0.67
   5  -4  -1    2.35    0.30
   5  -4  -1    2.38    0.36
   5  -4  -1    2.35    0.35
  -5   4   1    2.23    0.31
  -5   4   1    2.95    0.53
   4  -4  -1    0.97    0.18
   4  -4  -1    1.08    0.27
   4  -4  -1    1.06    0.24
  -4   4   1    1.06    0.31
  -4   4   1    0.72    0.22
   3  -4  -1    1.16    0.24
   3  -4  -1    0.78    0.22
   3  -4  -1    0.69    0.13
   3  -4  -1    0.68    0.08
   3  -4  -1    0.47    0.12
  -3   4   1    0.58    0.26
  -3   4   1    0.41    0.11
  -3   4   1    0.66    0.21
   2  -4  -1   21.99    0.76
   2  -4  -1   23.27    0.84
   2  -4  -1   21.31    0.76
  -2   4   1   21.89    0.87
  -2   4   1   23.01    0.82
  -2   4   1   21.88    0.74
  -2   4   1   22.52    0.77
  -2   4   1   22.25    0.76
   1  -4  -1   -0.10    0.16
   1  -4  -1   -0.04    0.08
  -1   4   1   -0.05    0.08
  -1   4   1   -0.16    0.11
  -1   4   1   -0.09    0.16
  -1   4   1    0.00    0.06
  -1   4   1    0.01    0.07
   0  -4  -1  149.84    3.48
   0  -4  -1  150.40    3.62
   0  -4  -1  147.00    4.00
   0  -4  -1  156.54    3.60
   0  -4  -1  156.27    4.25
   0   4   1  146.79    3.99
   0   4   1  155.22    3.60
   0   4   1  158.10    3.12
   0   4   1  156.21    3.75
   0   4   1  151.56    3.62
   0   4   1  150.41    3.48
  -1  -4  -1  132.03    3.62
  -1  -4  -1  143.03    3.29
  -1  -4  -1  134.33    3.34
  -1  -4  -1  135.17    3.10
  -1  -4  -1  138.59    3.24
   1   4   1  133.23    3.20
   1   4   1  135.03    3.23
   1   4   1  135.56    2.87
   1   4   1  136.34    3.11
  -2  -4  -1   16.74    0.52
  -2  -4  -1   16.56    0.74
  -2  -4  -1   15.96    0.51
  -2  -4  -1   16.19    0.56
   2   4   1   16.01    0.57
   2   4   1   15.78    0.55
   2   4   1   16.72    0.54
  -3  -4  -1    7.03    0.52
  -3  -4  -1    7.52    0.33
  -3  -4  -1    7.89    0.36
   3   4   1    7.35    0.29
   3   4   1    7.12    0.34
   3   4   1    7.69    0.40
   3   4   1    7.06    0.32
  -4  -4  -1    9.45    0.33
  -4  -4  -1    9.00    0.63
  -4  -4  -1    9.54    0.44
   4   4   1    9.44    0.52
   4   4   1    9.70    0.36
  -5  -4  -1   10.26    0.74
  -5  -4  -1    9.20    0.84
  -5  -4  -1    8.05    0.49
   5   4   1    9.03    0.68
   5   4   1    8.37    0.28
   5   4   1    9.36    0.60
   5   4   1    9.28    0.28
  -6  -4  -1    0.95    0.26
  -6  -4  -1    1.09    0.40
  -6  -4  -1    1.15    0.23
   6   4   1    1.08    0.38
   6   4   1    1.63    0.41
  -7  -4  -1    0.55    0.21
  -7  -4  -1    0.38    0.36
  -7  -4  -1    0.13    0.22
   7   4   1    1.12    0.40
   7   4   1    0.23    0.42
  -8  -4  -1    0.59    0.26
  -8  -4  -1    1.87    0.61
  -8  -4  -1    1.43    0.49
   8   4   1    0.51    0.47
   8   4   1    1.02    0.47
  -9  -4  -1    0.59    0.42
  -9  -4  -1    1.68    0.62
   9   4   1    0.36    0.45
   9   4   1   -0.08    0.45
   9  -5  -1    0.81    0.42
   9  -5  -1    0.94    0.47
  -9   5   1    0.38    0.41
   8  -5  -1    0.52    0.38
   8  -5  -1    1.20    0.45
   8  -5  -1    1.05    0.32
  -8   5   1   -0.50    0.63
  -8   5   1    0.65    0.39
   7  -5  -1    0.19    0.34
   7  -5  -1    0.57    0.29
  -7   5   1   -0.07    0.31
  -7   5   1   -0.40    0.47
   6  -5  -1    1.62    0.40
   6  -5  -1    1.68    0.29
  -6   5   1    1.19    0.48
  -6   5   1    1.25    0.31
   5  -5  -1   -0.38    0.16
   5  -5  -1   -0.12    0.28
  -5   5   1    0.06    0.39
  -5   5   1   -0.30    0.22
   4  -5  -1    0.05    0.13
   4  -5  -1   -0.08    0.23
   4  -5  -1    0.01    0.13
  -4   5   1    0.40    0.31
  -4   5   1   -0.10    0.20
  -4   5   1   -0.02    0.16
   3  -5  -1   17.74    0.58
   3  -5  -1   18.30    0.78
   3  -5  -1   18.25    0.82
  -3   5   1   18.71    0.75
  -3   5   1   17.90    0.73
  -3   5   1   18.15    0.86
   2  -5  -1    0.16    0.13
   2  -5  -1    0.36    0.21
  -2   5   1    0.28    0.12
  -2   5   1    0.36    0.24
  -2   5   1    0.57    0.21
   1  -5  -1    7.67    0.46
   1  -5  -1    7.71    0.52
  -1   5   1    7.51    0.38
  -1   5   1    7.02    0.33
  -1   5   1    7.64    0.46
   0  -5  -1  103.30    2.48
   0  -5  -1  105.18    2.64
   0  -5  -1   99.56    2.91
   0   5   1  104.13    2.48
   0   5   1  107.03    2.17
   0   5   1  104.42    2.63
   0   5   1  108.08    2.58
   0   5   1  105.64    2.61
  -1  -5  -1    1.15    0.21
  -1  -5  -1    1.53    0.20
  -1  -5  -1    1.18    0.11
   1   5   1    1.18    0.21
   1   5   1    1.31    0.17
   1   5   1    1.28    0.18
   1   5   1    1.07    0.21
  -2  -5  -1    0.10    0.09
  -2  -5  -1    0.00    0.12
  -2  -5  -1   -0.01    0.13
  -2  -5  -1   -0.01    0.06
   2   5   1   -0.16    0.14
   2   5   1   -0.15    0.15
   2   5   1   -0.19    0.15
  -3  -5  -1    7.83    0.39
  -3  -5  -1    8.15    0.37
  -3  -5  -1    8.84    0.39
  -3  -5  -1    7.84    0.61
   3   5   1    7.65    0.41
   3   5   1    7.54    0.45
   3   5   1    7.90    0.41
  -4  -5  -1    0.96    0.17
  -4  -5  -1    0.91    0.17
  -4  -5  -1    0.53    0.19
   4   5   1    0.94    0.18
   4   5   1    0.82    0.27
  -5  -5  -1   -0.24    0.16
  -5  -5  -1    0.15    0.20
  -5  -5  -1    0.02    0.31
   5   5   1   -0.08    0.38
   5   5   1    0.34    0.31
  -6  -5  -1   12.54    0.62
  -6  -5  -1   11.99    0.88
  -6  -5  -1   12.93    1.10
   6   5   1   13.77    0.80
   6   5   1    9.98    0.91
  -7  -5  -1    0.62    0.38
  -7  -5  -1    0.41    0.25
   7   5   1   -0.19    0.42
   7   5   1    0.74    0.41
  -8  -5  -1    0.09    0.25
  -8  -5  -1   -0.37    0.36
   8   5   1    0.25    0.43
   8   5   1   -0.27    0.46
   9  -6  -1    0.21    0.45
  -9   6   1    0.45    0.43
   8  -6  -1    0.21    0.33
   8  -6  -1    0.71    0.48
   8  -6  -1   -0.10    0.35
  -8   6   1    0.48    0.41
   7  -6  -1    0.06    0.30
   7  -6  -1    0.20    0.43
  -7   6   1   -0.70    0.49
  -7   6   1    0.23    0.34
   6  -6  -1    0.10    0.35
  -6   6   1   -0.31    0.28
  -6   6   1   -0.14    0.27
  -6   6   1   -0.35    0.44
   5  -6  -1    1.17    0.39
  -5   6   1    0.96    0.42
  -5   6   1    0.11    0.27
  -5   6   1    0.62    0.31
   4  -6  -1    0.47    0.32
   4  -6  -1    0.44    0.19
  -4   6   1    0.96    0.37
  -4   6   1    0.32    0.28
  -4   6   1    0.36    0.21
   3  -6  -1   11.01    0.69
   3  -6  -1    9.79    0.65
   3  -6  -1   10.13    0.45
  -3   6   1   10.11    0.61
  -3   6   1   10.55    0.70
  -3   6   1   10.67    0.57
   2  -6  -1   -0.11    0.21
   2  -6  -1    0.03    0.10
   2  -6  -1    0.07    0.13
  -2   6   1   -0.07    0.21
  -2   6   1    0.03    0.11
   1  -6  -1   15.54    0.70
   1  -6  -1   16.57    0.81
  -1   6   1   15.71    0.54
  -1   6   1   16.37    0.71
   0  -6  -1    0.00    0.18
   0  -6  -1   -0.16    0.10
   0  -6  -1   -0.12    0.12
   0   6   1   -0.14    0.17
   0   6   1   -0.04    0.06
   0   6   1    0.02    0.05
   0   6   1   -0.08    0.09
  -1  -6  -1   29.17    0.99
  -1  -6  -1   28.34    0.78
  -1  -6  -1   30.00    0.86
  -1  -6  -1   29.67    1.18
   1   6   1   29.00    0.84
   1   6   1   28.79    0.96
   1   6   1   28.59    0.75
   1   6   1   28.48    0.98
  -2  -6  -1    6.99    0.62
  -2  -6  -1    6.76    0.29
  -2  -6  -1    7.07    0.43
  -2  -6  -1    6.95    0.36
   2   6   1    7.07    0.33
   2   6   1    7.21    0.38
   2   6   1    7.03    0.44
   2   6   1    6.57    0.43
  -3  -6  -1    5.69    0.32
  -3  -6  -1    5.98    0.35
  -3  -6  -1    5.69    0.39
  -3  -6  -1    5.69    0.64
   3   6   1    6.24    0.43
   3   6   1    5.61    0.44
  -4  -6  -1   44.41    1.93
  -4  -6  -1   45.98    1.25
  -4  -6  -1   44.93    1.72
   4   6   1   46.61    1.29
   4   6   1   44.80    1.34
  -5  -6  -1    2.56    0.37
  -5  -6  -1    1.98    0.45
  -5  -6  -1    1.53    0.30
   5   6   1    2.66    0.51
  -6  -6  -1    7.91    0.79
  -6  -6  -1    8.55    0.99
   6   6   1    7.77    0.67
   6   6   1    5.84    0.70
  -7  -6  -1    0.31    0.39
  -7  -6  -1    0.24    0.23
   7   6   1    0.15    0.37
   7   6   1    0.79    0.43
  -8  -6  -1    0.53    0.46
   8   6   1    0.29    0.53
   8   6   1    0.43    0.47
   8  -7  -1    0.52    0.51
  -8   7   1    0.50    0.41
   7  -7  -1    0.46    0.54
  -7   7   1   -1.05    0.53
  -7   7   1    0.11    0.37
   6  -7  -1   -0.30    0.39
  -6   7   1   -0.13    0.29
  -6   7   1   -0.44    0.30
  -6   7   1   -0.29    0.53
   5  -7  -1   -0.51    0.34
  -5   7   1   -0.37    0.31
  -5   7   1   -0.52    0.38
  -5   7   1   -0.31    0.24
   4  -7  -1   -0.48    0.32
   4  -7  -1    0.04    0.20
  -4   7   1   -0.02    0.21
  -4   7   1   -0.31    0.30
  -4   7   1    0.10    0.37
   3  -7  -1    4.12    0.35
   3  -7  -1    4.28    0.61
   3  -7  -1    4.00    0.51
  -3   7   1    3.35    0.46
  -3   7   1    4.47    0.61
  -3   7   1    4.13    0.44
   2  -7  -1   10.65    0.70
   2  -7  -1   10.98    0.77
   2  -7  -1   10.32    0.61
  -2   7   1   10.94    0.51
  -2   7   1   10.36    0.67
   1  -7  -1    5.96    0.62
   1  -7  -1    5.59    0.54
   1  -7  -1    6.42    0.56
  -1   7   1    6.68    0.34
  -1   7   1    5.60    0.52
   0  -7  -1    3.92    0.58
   0  -7  -1    4.85    0.48
   0   7   1    4.81    0.47
  -1  -7  -1    1.41    0.19
  -1  -7  -1    1.42    0.30
  -1  -7  -1    0.92    0.24
   1   7   1    1.53    0.31
   1   7   1    1.60    0.20
  -2  -7  -1    0.53    0.31
  -2  -7  -1    1.20    0.18
  -2  -7  -1    1.21    0.27
  -2  -7  -1    0.51    0.24
   2   7   1    1.19    0.28
   2   7   1    1.12    0.28
   2   7   1    1.00    0.23
  -3  -7  -1   -0.27    0.20
  -3  -7  -1   -0.02    0.21
  -3  -7  -1   -0.45    0.26
   3   7   1   -0.38    0.23
   3   7   1   -0.10    0.22
  -4  -7  -1    0.38    0.24
  -4  -7  -1    0.07    0.32
   4   7   1    0.85    0.25
   4   7   1    0.73    0.31
  -5  -7  -1   -0.16    0.20
  -5  -7  -1   -0.24    0.32
   5   7   1   -0.02    0.20
   5   7   1    0.12    0.31
   5   7   1    0.17    0.33
  -6  -7  -1    0.33    0.27
  -6  -7  -1    0.50    0.39
   6   7   1    1.06    0.44
   6   7   1    1.08    0.51
  -7  -7  -1    0.28    0.43
  -7  -7  -1   -0.11    0.24
   7   7   1    0.41    0.53
   7   7   1    0.23    0.44
  -8   8   1   -0.99    0.63
  -8   8   1    0.54    0.41
   7  -8  -1    0.24    0.49
  -7   8   1   -1.19    0.58
  -7   8   1   -0.02    0.34
   6  -8  -1    0.62    0.47
  -6   8   1    0.32    0.37
  -6   8   1    0.21    0.32
  -6   8   1    0.25    0.52
   5  -8  -1    0.50    0.44
  -5   8   1   -0.02    0.24
  -5   8   1    0.25    0.37
  -5   8   1    0.71    0.46
   4  -8  -1    0.53    0.33
   4  -8  -1    0.29    0.24
  -4   8   1    0.44    0.25
  -4   8   1    0.83    0.43
  -4   8   1    1.33    0.41
   3  -8  -1    2.48    0.49
   3  -8  -1    2.06    0.33
  -3   8   1    2.41    0.39
  -3   8   1    2.14    0.44
   2  -8  -1   -0.28    0.19
   2  -8  -1   -0.49    0.29
   2  -8  -1   -0.25    0.16
  -2   8   1   -0.08    0.12
  -2   8   1   -0.50    0.29
   1  -8  -1    0.94    0.28
   1  -8  -1    1.86    0.42
   1  -8  -1    1.23    0.29
  -1   8   1    1.73    0.40
  -1   8   1    1.90    0.26
   0  -8  -1    0.13    0.23
   0  -8  -1    0.36    0.27
   0  -8  -1    0.66    0.33
   0   8   1    0.55    0.33
  -1  -8  -1   -0.03    0.27
  -1  -8  -1    0.05    0.26
  -1  -8  -1    0.31    0.23
   1   8   1   -0.01    0.29
  -2  -8  -1    0.33    0.31
  -2  -8  -1    0.88    0.29
  -2  -8  -1    0.40    0.25
  -2  -8  -1    0.46    0.16
   2   8   1    0.41    0.31
   2   8   1    0.53    0.20
  -3  -8  -1   -0.40    0.27
  -3  -8  -1   -0.01    0.21
   3   8   1   -0.40    0.21
   3   8   1    0.14    0.22
  -4  -8  -1   -0.10    0.21
  -4  -8  -1   -0.08    0.33
   4   8   1   -0.33    0.27
   4   8   1   -0.36    0.23
  -5  -8  -1   -0.16    0.34
  -5  -8  -1    0.15    0.25
   5   8   1   -0.13    0.22
   5   8   1   -0.33    0.41
   5   8   1   -0.05    0.37
  -6  -8  -1   -0.01    0.25
  -6  -8  -1    0.39    0.45
   6   8   1   -0.08    0.38
   6   8   1    0.14    0.44
  -7  -8  -1    0.16    0.27
   7   8   1    0.14    0.45
   7   8   1    0.55    0.48
   7  -9  -1    1.25    0.61
  -7   9   1    0.33    0.56
  -7   9   1    0.62    0.36
   6  -9  -1    0.82    0.53
  -6   9   1    0.41    0.53
  -6   9   1    0.46    0.44
  -6   9   1    0.50    0.32
   5  -9  -1    1.32    0.34
   5  -9  -1    3.27    0.62
  -5   9   1    2.96    0.54
  -5   9   1    1.85    0.37
   4  -9  -1    0.70    0.44
   4  -9  -1   -0.21    0.24
  -4   9   1    0.04    0.23
  -4   9   1    0.17    0.29
   3  -9  -1    5.59    0.83
   3  -9  -1    8.63    0.83
  -3   9   1    8.23    0.76
  -3   9   1    6.56    0.51
   2  -9  -1   -0.19    0.24
   2  -9  -1    0.20    0.37
   2  -9  -1    0.07    0.18
  -2   9   1   -0.04    0.35
   1  -9  -1    4.60    0.68
   1  -9  -1    3.79    0.59
  -1   9   1    3.65    0.53
   0  -9  -1   14.87    0.88
   0  -9  -1   14.15    0.99
   0  -9  -1   15.16    1.07
   0   9   1   15.84    0.88
  -1  -9  -1    0.85    0.32
  -1  -9  -1    0.98    0.34
  -1  -9  -1    0.45    0.28
   1   9   1    1.13    0.37
  -2  -9  -1    0.63    0.34
  -2  -9  -1    0.43    0.26
   2   9   1    0.72    0.33
  -3  -9  -1   -0.30    0.23
  -3  -9  -1   -0.08    0.29
   3   9   1   -0.37    0.24
  -4  -9  -1    0.20    0.26
  -4  -9  -1    0.18    0.35
   4   9   1    0.09    0.29
  -5  -9  -1    0.09    0.30
  -5  -9  -1    0.73    0.44
   5   9   1    0.29    0.35
   5   9   1    0.02    0.50
   5   9   1    0.16    0.27
  -6  -9  -1    0.23    0.30
   6   9   1    0.43    0.42
   6   9   1   -0.32    0.53
   5 -10  -1    0.82    0.54
  -5  10   1    0.49    0.45
   4 -10  -1    0.59    0.49
   4 -10  -1   -0.13    0.28
  -4  10   1    0.32    0.44
   3 -10  -1    0.94    0.48
  -3  10   1    1.11    0.48
   2 -10  -1    5.46    0.76
  -2  10   1    5.73    0.76
   1 -10  -1    0.15    0.23
   1 -10  -1    0.51    0.37
   1 -10  -1   -0.04    0.27
  -1  10   1    0.34    0.39
   0 -10  -1   -0.22    0.25
   0 -10  -1    0.33    0.29
   0 -10  -1   -0.11    0.31
   0  10   1    0.03    0.36
  -1 -10  -1    0.01    0.27
  -1 -10  -1    0.36    0.30
   1  10   1   -0.05    0.34
  -2 -10  -1    0.33    0.31
  -2 -10  -1    0.55    0.35
   2  10   1    0.61    0.37
  -3 -10  -1   -0.31    0.28
  -3 -10  -1    0.08    0.33
   3  10   1   -0.48    0.31
  -4 -10  -1    0.78    0.35
  -4 -10  -1    1.49    0.49
   4  10   1    0.87    0.46
   4  10   1    1.69    0.42
   5  10   1    0.51    0.34
   5  10   1    0.36    0.57
  -5  11   1    1.56    0.58
   4 -11  -1   -0.24    0.33
   4 -11  -1    0.42    0.52
  -4  11   1    0.27    0.39
   3 -11  -1    0.17    0.47
   3 -11  -1   -0.65    0.32
  -3  11   1    0.03    0.36
   2 -11  -1   -0.36    0.31
   2 -11  -1    0.39    0.44
  -2  11   1    0.33    0.46
   1 -11  -1   -0.25    0.38
   1 -11  -1   -0.43    0.28
  -1  11   1    0.14    0.42
   0 -11  -1    1.18    0.37
   0 -11  -1    0.53    0.35
   0  11   1    1.24    0.47
  -1 -11  -1    0.11    0.30
  -1 -11  -1   -0.32    0.27
   1  11   1    0.00    0.44
  -2 -11  -1    0.25    0.37
  -2 -11  -1   -0.22    0.31
   2  11   1   -0.63    0.38
  -3 -11  -1    1.55    0.50
  -3 -11  -1    1.12    0.42
   3  11   1    1.87    0.49
   3 -12  -1   -0.09    0.50
   2 -12  -1    0.51    0.50
  -2  12   1    0.47    0.51
   1 -12  -1    0.20    0.50
  -1 -12  -1    0.37    0.38
  -2 -12  -1    0.46    0.44
  -2 -12   2    1.04    0.45
  -1 -12   2    0.47    0.39
  -1  12  -2    1.33    0.55
   1 -12   2    1.58    0.57
  -2  12  -2    0.39    0.51
   2 -12   2    0.47    0.52
  -3  12  -2    0.62    0.51
   3  11  -2    0.32    0.41
  -3 -11   2    0.42    0.42
   2  11  -2    0.02    0.43
  -2 -11   2   -0.33    0.30
  -2 -11   2    0.19    0.40
   1  11  -2   -0.03    0.39
  -1 -11   2   -0.32    0.31
  -1 -11   2    0.00    0.33
   0  11  -2    0.55    0.45
   0 -11   2   -0.20    0.35
   0 -11   2    0.41    0.31
   0 -11   2    0.38    0.46
  -1  11  -2   -0.11    0.39
   1 -11   2   -0.02    0.41
   1 -11   2   -0.36    0.29
  -2  11  -2    0.66    0.46
   2 -11   2    0.61    0.48
   2 -11   2    0.28    0.35
  -3  11  -2    0.40    0.45
   3 -11   2   -0.04    0.29
   3 -11   2    0.59    0.49
  -4  11  -2    0.12    0.44
   4 -11   2    0.12    0.52
  -5  11  -2   -0.38    0.44
   5  10  -2   -0.14    0.36
   5  10  -2    0.14    0.43
  -5 -10   2    0.03    0.28
   4  10  -2    0.53    0.40
  -4 -10   2   -0.04    0.28
  -4 -10   2   -0.01    0.39
   3  10  -2    0.38    0.39
  -3 -10   2    0.09    0.28
  -3 -10   2    0.47    0.39
   2  10  -2   -0.23    0.32
  -2 -10   2   -0.34    0.25
  -2 -10   2    0.22    0.32
   1  10  -2    0.33    0.36
  -1 -10   2   -0.03    0.27
  -1 -10   2    0.31    0.39
  -1 -10   2    0.30    0.29
   0  10  -2    0.02    0.35
   0 -10   2    0.37    0.34
   0 -10   2    0.38    0.30
   0 -10   2   -0.07    0.27
  -1  10  -2    0.14    0.36
   1 -10   2    0.23    0.39
   1 -10   2   -0.13    0.28
   1 -10   2   -0.13    0.22
  -2  10  -2    1.95    0.33
  -2  10  -2    3.34    0.55
   2 -10   2    3.58    0.61
   2 -10   2    2.11    0.42
  -3  10  -2    7.51    0.73
  -3  10  -2   10.12    0.86
   3 -10   2    9.26    0.82
   3 -10   2    8.90    1.03
  -4  10  -2    0.92    0.34
  -4  10  -2    1.63    0.49
   4 -10   2    2.34    0.60
  -5  10  -2    0.53    0.44
  -5  10  -2    0.26    0.34
   5 -10   2    0.41    0.52
  -6  10  -2    0.34    0.37
   6   9  -2    1.07    0.37
   6   9  -2    1.50    0.50
  -6  -9   2    0.77    0.32
   5   9  -2    0.25    0.38
   5   9  -2    0.64    0.37
  -5  -9   2    0.19    0.40
  -5  -9   2    0.53    0.30
   4   9  -2    1.52    0.41
   4   9  -2    1.02    0.39
  -4  -9   2    0.95    0.43
  -4  -9   2    0.82    0.29
   3   9  -2    7.12    0.66
   3   9  -2    7.06    0.57
  -3  -9   2    8.29    0.96
  -3  -9   2    8.44    0.87
   2   9  -2    0.12    0.24
   2   9  -2   -0.31    0.30
  -2  -9   2   -0.05    0.23
  -2  -9   2   -0.19    0.29
  -2  -9   2   -0.02    0.29
   1   9  -2   -0.33    0.30
  -1  -9   2    0.01    0.26
  -1  -9   2   -0.12    0.30
  -1  -9   2   -0.07    0.23
   0   9  -2    0.10    0.17
   0   9  -2    0.28    0.34
   0  -9   2    0.07    0.34
   0  -9   2   -0.16    0.26
   0  -9   2   -0.15    0.24
  -1   9  -2   -0.12    0.18
  -1   9  -2    0.09    0.35
   1  -9   2    0.10    0.23
   1  -9   2   -0.11    0.34
   1  -9   2   -0.16    0.24
  -2   9  -2   -0.13    0.21
  -2   9  -2    0.18    0.35
   2  -9   2   -0.17    0.25
   2  -9   2    0.28    0.39
   2  -9   2   -0.07    0.18
  -3   9  -2    1.79    0.34
  -3   9  -2    2.77    0.51
   3  -9   2    2.59    0.49
   3  -9   2    1.59    0.36
  -4   9  -2    1.74    0.46
  -4   9  -2    1.52    0.37
   4  -9   2    1.99    0.53
  -5   9  -2    1.33    0.37
  -5   9  -2    1.48    0.45
   5  -9   2    2.01    0.55
  -6   9  -2   -0.05    0.37
   6  -9   2    0.36    0.50
  -7   9  -2    0.65    0.44
   7   8  -2   -0.42    0.42
   6   8  -2    0.74    0.31
   6   8  -2    0.12    0.43
  -6  -8   2    0.49    0.44
  -6  -8   2    0.09    0.25
   5   8  -2   -0.25    0.33
   5   8  -2    0.11    0.29
  -5  -8   2   -0.18    0.20
  -5  -8   2   -0.18    0.34
   4   8  -2    1.09    0.35
   4   8  -2    1.08    0.35
  -4  -8   2    0.59    0.27
  -4  -8   2    0.46    0.38
   3   8  -2    2.25    0.37
   3   8  -2    2.08    0.38
  -3  -8   2    1.45    0.43
  -3  -8   2    1.03    0.28
   2   8  -2    6.87    0.61
  -2  -8   2    6.49    0.58
  -2  -8   2    6.82    0.83
  -2  -8   2    6.73    0.82
   1   8  -2   71.08    2.05
  -1  -8   2   68.28    2.09
  -1  -8   2   69.18    2.50
  -1  -8   2   69.98    2.38
   0   8  -2    0.33    0.25
   0   8  -2   -0.05    0.16
   0  -8   2    0.47    0.32
   0  -8   2   -0.23    0.22
   0  -8   2   -0.01    0.22
  -1   8  -2   18.31    0.80
   1  -8   2   18.05    0.95
   1  -8   2   17.75    1.10
   1  -8   2   18.54    0.95
  -2   8  -2   15.36    0.78
  -2   8  -2   15.96    0.87
   2  -8   2   15.69    0.93
   2  -8   2   15.10    1.04
   2  -8   2   15.33    0.79
  -3   8  -2    0.40    0.24
  -3   8  -2    0.57    0.37
   3  -8   2    0.36    0.24
   3  -8   2    0.16    0.17
   3  -8   2    0.34    0.36
  -4   8  -2    2.12    0.43
  -4   8  -2    1.36    0.34
   4  -8   2    2.34    0.45
  -5   8  -2   10.33    0.79
  -5   8  -2   10.73    0.91
   5  -8   2   11.02    0.92
  -6   8  -2    0.75    0.38
   6  -8   2    1.76    0.56
  -7   8  -2    0.63    0.40
   7  -8   2    0.76    0.55
   8   7  -2    0.55    0.51
   7   7  -2   -0.02    0.39
  -7  -7   2    0.37    0.45
   6   7  -2    0.30    0.26
   6   7  -2   -0.19    0.35
  -6  -7   2   -0.07    0.22
  -6  -7   2   -0.01    0.39
   5   7  -2    0.18    0.34
   5   7  -2    0.72    0.29
  -5  -7   2    0.03    0.20
  -5  -7   2    0.20    0.38
   4   7  -2   -0.14    0.27
   4   7  -2   -0.27    0.31
  -4  -7   2   -0.32    0.29
  -4  -7   2   -0.35    0.18
   3   7  -2    0.91    0.29
  -3  -7   2    0.85    0.27
  -3  -7   2    0.62    0.34
   2   7  -2    5.95    0.51
  -2  -7   2    5.48    0.64
  -2  -7   2    5.34    0.50
  -2  -7   2    5.70    0.73
   1   7  -2    3.76    0.36
   1   7  -2    3.48    0.18
   1   7  -2    3.09    0.39
  -1  -7   2    2.66    0.40
  -1  -7   2    2.14    0.41
   0   7  -2    5.11    0.29
   0   7  -2    5.72    0.42
   0   7  -2    4.62    0.48
   0  -7   2    4.86    0.61
   0  -7   2    4.51    0.44
   0  -7   2    4.69    0.58
  -1   7  -2    0.02    0.26
  -1   7  -2    0.15    0.16
   1  -7   2   -0.15    0.18
   1  -7   2   -0.08    0.17
   1  -7   2    0.06    0.27
  -2   7  -2    1.09    0.34
  -2   7  -2    1.03    0.23
   2  -7   2    0.83    0.24
   2  -7   2    1.25    0.32
   2  -7   2    0.90    0.21
  -3   7  -2   12.53    0.75
  -3   7  -2   12.58    0.72
   3  -7   2   12.52    0.89
   3  -7   2   12.69    0.83
   3  -7   2   11.08    0.57
  -4   7  -2   17.28    0.86
  -4   7  -2   15.16    0.89
   4  -7   2   17.47    0.96
  -5   7  -2    7.78    0.75
  -5   7  -2    8.48    0.67
  -5   7  -2    7.95    0.72
   5  -7   2   10.05    0.82
  -6   7  -2    5.17    0.72
  -6   7  -2    3.39    0.56
   6  -7   2    5.78    0.75
  -7   7  -2    0.52    0.38
   7  -7   2    0.44    0.43
  -8   7  -2    0.32    0.39
   8  -7   2    0.28    0.42
   8   6  -2    0.61    0.50
   8   6  -2    0.35    0.46
  -8  -6   2    1.40    0.70
  -8  -6   2    0.41    0.46
   7   6  -2   -0.19    0.39
  -7  -6   2    0.32    0.40
   6   6  -2    0.23    0.36
   6   6  -2    1.00    0.26
  -6  -6   2    0.49    0.40
  -6  -6   2    0.28    0.22
   5   6  -2    0.04    0.33
  -5  -6   2    0.20    0.35
  -5  -6   2    0.15    0.19
   4   6  -2    1.35    0.35
   4   6  -2    1.67    0.31
  -4  -6   2    1.84    0.30
   3   6  -2    0.83    0.25
   3   6  -2    0.61    0.24
  -3  -6   2    0.49    0.19
  -3  -6   2    0.72    0.23
  -3  -6   2    0.04    0.29
   2   6  -2    6.60    0.47
   2   6  -2    7.36    0.47
  -2  -6   2    7.22    0.67
  -2  -6   2    7.71    0.61
  -2  -6   2    7.73    0.51
   1   6  -2   12.15    0.35
   1   6  -2   12.57    0.55
   1   6  -2   11.88    0.58
  -1  -6   2   11.85    0.52
  -1  -6   2   12.10    0.76
  -1  -6   2   12.21    0.73
  -1  -6   2   12.00    0.61
   0   6  -2   22.23    0.66
   0   6  -2   23.68    0.82
   0   6  -2   22.88    0.85
   0  -6   2   21.94    0.88
   0  -6   2   21.73    0.99
   0  -6   2   24.30    0.88
   0  -6   2   22.69    1.01
  -1   6  -2   10.66    0.53
  -1   6  -2   10.16    0.43
  -1   6  -2   11.08    0.58
   1  -6   2   11.08    0.70
   1  -6   2   10.56    0.58
   1  -6   2   10.81    0.61
  -2   6  -2    0.13    0.16
  -2   6  -2    0.45    0.22
   2  -6   2    0.33    0.24
   2  -6   2    0.23    0.16
   2  -6   2    0.22    0.13
  -3   6  -2   15.13    0.78
  -3   6  -2   15.11    0.73
   3  -6   2   14.93    0.77
   3  -6   2   14.53    0.58
   3  -6   2   15.56    0.87
  -4   6  -2    5.86    0.64
  -4   6  -2    5.36    0.53
  -4   6  -2    6.14    0.52
   4  -6   2    5.73    0.61
  -5   6  -2    2.23    0.41
  -5   6  -2    2.34    0.44
  -5   6  -2    3.39    0.47
   5  -6   2    3.09    0.47
  -6   6  -2   -0.37    0.31
  -6   6  -2   -0.53    0.36
   6  -6   2    0.28    0.38
  -7   6  -2   -0.52    0.44
  -7   6  -2    0.20    0.36
   7  -6   2    0.95    0.41
  -8   6  -2    0.00    0.39
   8  -6   2    0.45    0.40
   8  -6   2    0.11    0.40
   9  -6   2    0.48    0.44
   9  -6   2    0.23    0.48
   9   5  -2    0.23    0.48
  -9  -5   2    0.59    0.49
   8   5  -2    0.66    0.45
   8   5  -2    0.26    0.44
  -8  -5   2    0.92    0.46
  -8  -5   2    1.12    0.65
   7   5  -2    2.08    0.49
  -7  -5   2    2.48    0.53
   6   5  -2    1.59    0.44
  -6  -5   2    1.68    0.47
  -6  -5   2    1.22    0.24
   5   5  -2    0.99    0.24
   5   5  -2   -0.22    0.31
  -5  -5   2   -0.02    0.31
  -5  -5   2    0.32    0.16
  -5  -5   2    0.54    0.11
   4   5  -2   -0.11    0.15
   4   5  -2    0.02    0.17
   4   5  -2   -0.21    0.23
  -4  -5   2   -0.33    0.25
  -4  -5   2    0.03    0.17
  -4  -5   2   -0.11    0.13
   3   5  -2    0.03    0.14
   3   5  -2   -0.05    0.17
  -3  -5   2   -0.04    0.15
  -3  -5   2   -0.02    0.21
  -3  -5   2   -0.10    0.12
   2   5  -2    1.18    0.21
   2   5  -2    1.09    0.21
  -2  -5   2    0.67    0.14
  -2  -5   2    0.97    0.25
  -2  -5   2    1.19    0.22
  -2  -5   2    0.66    0.16
   1   5  -2    3.61    0.32
   1   5  -2    3.96    0.31
   1   5  -2    3.80    0.14
   1   5  -2    3.36    0.31
  -1  -5   2    3.86    0.34
  -1  -5   2    3.92    0.40
  -1  -5   2    3.98    0.44
  -1  -5   2    4.10    0.28
   0   5  -2   -0.14    0.06
   0   5  -2    0.02    0.15
   0   5  -2   -0.13    0.10
   0  -5   2   -0.04    0.12
   0  -5   2    0.02    0.08
   0  -5   2   -0.03    0.08
   0  -5   2   -0.03    0.13
  -1   5  -2   14.09    0.59
  -1   5  -2   13.87    0.58
   1  -5   2   14.21    0.64
   1  -5   2   13.98    0.63
   1  -5   2   14.03    0.57
   1  -5   2   13.68    0.63
   1  -5   2   13.86    0.71
  -2   5  -2   17.29    0.69
  -2   5  -2   17.59    0.71
   2  -5   2   17.11    0.72
   2  -5   2   17.67    0.81
   2  -5   2   16.67    0.72
   2  -5   2   17.37    0.68
  -3   5  -2    0.21    0.16
  -3   5  -2    0.03    0.18
  -3   5  -2    0.15    0.19
   3  -5   2   -0.03    0.15
   3  -5   2   -0.01    0.20
  -4   5  -2    5.42    0.44
  -4   5  -2    5.29    0.53
  -4   5  -2    5.51    0.51
   4  -5   2    5.76    0.51
  -5   5  -2    0.06    0.24
  -5   5  -2   -0.07    0.20
  -5   5  -2   -0.17    0.28
   5  -5   2   -0.12    0.29
  -6   5  -2   -0.25    0.35
  -6   5  -2    0.13    0.30
   6  -5   2    0.65    0.36
  -7   5  -2   -0.33    0.31
   7  -5   2   -0.18    0.34
  -8   5  -2    0.48    0.38
   8  -5   2    0.37    0.35
   8  -5   2   -0.14    0.37
   9  -5   2    0.51    0.37
   9  -5   2   -0.42    0.42
   9   4  -2    0.29    0.44
   9   4  -2    0.96    0.50
  -9  -4   2    1.87    0.81
  -9  -4   2    0.61    0.44
   8   4  -2    2.22    0.51
   8   4  -2    2.06    0.55
  -8  -4   2    2.30    0.56
  -8  -4   2    3.68    0.79
   7   4  -2    6.99    0.69
   7   4  -2    6.78    0.38
  -7  -4   2    8.78    1.03
  -7  -4   2    8.14    0.95
  -7  -4   2    7.21    0.64
   6   4  -2   -0.45    0.29
   6   4  -2    0.16    0.18
  -6  -4   2   -0.53    0.29
  -6  -4   2    0.04    0.14
   5   4  -2    8.94    0.60
   5   4  -2    8.76    0.44
   5   4  -2   10.06    0.47
  -5  -4   2    9.47    0.44
  -5  -4   2   10.14    0.62
  -5  -4   2    9.65    0.86
   4   4  -2   11.75    0.50
   4   4  -2   11.18    0.49
   4   4  -2   11.00    0.58
  -4  -4   2   11.77    0.61
  -4  -4   2   11.80    0.83
  -4  -4   2   10.56    0.37
  -4  -4   2   11.52    0.49
   3   4  -2   41.59    1.19
   3   4  -2   42.59    1.18
   3   4  -2   41.83    1.19
  -3  -4   2   41.02    1.19
  -3  -4   2   42.77    1.60
  -3  -4   2   41.98    0.95
  -3  -4   2   43.21    1.37
   2   4  -2   12.75    0.50
   2   4  -2   12.58    0.58
   2   4  -2   12.71    0.50
   2   4  -2   12.91    0.52
  -2  -4   2   12.68    0.51
  -2  -4   2   12.79    0.52
  -2  -4   2   13.03    0.73
  -2  -4   2   12.51    0.60
   1   4  -2    0.06    0.02
   1   4  -2   -0.06    0.08
   1   4  -2    0.04    0.13
   1   4  -2    0.01    0.12
   1   4  -2   -0.02    0.07
   1   4  -2    0.01    0.08
  -1  -4   2   -0.03    0.13
  -1  -4   2    0.01    0.13
  -1  -4   2   -0.05    0.07
  -1  -4   2   -0.05    0.08
   0   4  -2  166.50    3.95
   0   4  -2  161.78    4.36
   0   4  -2  170.95    4.20
   0   4  -2  165.35    4.62
   0   4  -2  169.02    3.99
   0  -4   2  167.75    4.39
   0  -4   2  169.21    4.00
   0  -4   2  169.57    4.20
   0  -4   2  172.88    3.96
   0  -4   2  167.17    4.63
  -1   4  -2   33.75    1.01
  -1   4  -2   35.28    1.05
  -1   4  -2   34.97    1.12
  -1   4  -2   34.59    1.05
   1  -4   2   32.95    1.04
   1  -4   2   34.69    1.05
   1  -4   2   34.17    1.12
   1  -4   2   36.18    1.18
   1  -4   2   34.49    1.10
   1  -4   2   33.58    1.00
  -2   4  -2   43.11    1.29
  -2   4  -2   43.97    1.23
  -2   4  -2   43.41    1.32
   2  -4   2   42.52    1.22
   2  -4   2   41.82    1.27
   2  -4   2   44.65    1.30
   2  -4   2   44.65    1.36
   2  -4   2   43.94    1.42
  -3   4  -2    3.04    0.30
  -3   4  -2    3.30    0.35
  -3   4  -2    2.99    0.18
  -3   4  -2    2.71    0.36
   3  -4   2    2.83    0.28
   3  -4   2    2.68    0.28
   3  -4   2    2.77    0.33
  -4   4  -2   15.73    0.77
  -4   4  -2   14.87    0.61
  -4   4  -2   15.71    0.72
   4  -4   2   15.31    0.67
   4  -4   2   14.60    0.61
   4  -4   2   15.11    0.68
  -5   4  -2    4.49    0.37
  -5   4  -2    4.51    0.53
  -5   4  -2    4.66    0.55
   5  -4   2    4.52    0.49
   5  -4   2    4.40    0.40
  -6   4  -2    0.21    0.29
  -6   4  -2    0.34    0.36
   6  -4   2    0.21    0.27
  -7   4  -2   -0.27    0.28
  -7   4  -2   -0.44    0.37
   7  -4   2    0.37    0.34
   7  -4   2   -0.06    0.30
   7  -4   2    0.19    0.29
  -8   4  -2    0.23    0.36
   8  -4   2   -0.15    0.38
   8  -4   2    0.12    0.31
  -9   4  -2    0.45    0.39
   9  -4   2    0.05    0.39
   9   3  -2    0.77    0.47
   9   3  -2    0.57    0.40
  -9  -3   2    0.80    0.42
  -9  -3   2    1.53    0.69
   8   3  -2    0.20    0.36
   8   3  -2   -0.05    0.36
  -8  -3   2    0.30    0.35
  -8  -3   2    0.40    0.58
   7   3  -2    0.83    0.40
   7   3  -2    1.12    0.19
  -7  -3   2    1.66    0.60
  -7  -3   2    0.83    0.18
  -7  -3   2    1.19    0.42
   6   3  -2    1.62    0.33
  -6  -3   2    1.22    0.36
  -6  -3   2    1.29    0.52
  -6  -3   2    0.86    0.17
   5   3  -2   -0.13    0.24
   5   3  -2    0.00    0.12
   5   3  -2    0.19    0.16
  -5  -3   2   -0.01    0.11
  -5  -3   2    0.06    0.13
  -5  -3   2    0.07    0.23
   4   3  -2    0.23    0.17
   4   3  -2    0.18    0.13
   4   3  -2    0.28    0.15
  -4  -3   2    0.27    0.20
  -4  -3   2    0.26    0.14
  -4  -3   2    0.16    0.10
   3   3  -2    4.72    0.32
   3   3  -2    3.98    0.28
   3   3  -2    4.15    0.26
  -3  -3   2    4.69    0.47
  -3  -3   2    4.34    0.34
  -3  -3   2    4.25    0.29
   2   3  -2   57.46    1.50
   2   3  -2   55.69    1.83
   2   3  -2   57.91    1.63
   2   3  -2   55.89    1.45
   2   3  -2   58.42    1.49
  -2  -3   2   57.43    1.86
  -2  -3   2   59.88    1.49
  -2  -3   2   56.98    1.57
  -2  -3   2   56.57    1.44
  -2  -3   2   57.54    1.63
   1   3  -2   85.03    2.09
   1   3  -2   86.32    2.32
   1   3  -2   86.34    2.12
   1   3  -2   87.79    2.24
   1   3  -2   87.09    2.52
  -1  -3   2   84.61    2.22
  -1  -3   2   85.78    2.12
  -1  -3   2   85.07    2.08
  -1  -3   2   87.76    2.54
  -1  -3   2   86.79    2.32
   0   3  -2  120.73    3.38
   0   3  -2  122.12    2.91
   0   3  -2  116.80    3.18
   0   3  -2  122.27    2.89
   0   3  -2  122.87    3.08
   0  -3   2  121.72    3.38
   0  -3   2  126.13    3.08
   0  -3   2  123.73    2.88
   0  -3   2  122.51    3.20
   0  -3   2  122.00    2.92
  -1   3  -2   44.63    1.21
  -1   3  -2   43.81    1.26
  -1   3  -2   43.56    1.32
  -1   3  -2   44.42    1.18
  -1   3  -2   45.14    1.34
   1  -3   2   44.32    1.18
   1  -3   2   46.00    1.36
   1  -3   2   44.34    1.30
   1  -3   2   44.81    1.26
   1  -3   2   44.69    1.33
   1  -3   2   43.24    1.21
  -2   3  -2   50.06    1.43
  -2   3  -2   49.27    1.40
  -2   3  -2   49.48    1.43
  -2   3  -2   49.27    1.33
  -2   3  -2   48.45    1.48
  -2   3  -2   48.61    1.29
   2  -3   2   48.64    1.43
   2  -3   2   49.39    1.44
   2  -3   2   48.83    1.30
   2  -3   2   48.36    1.33
   2  -3   2   50.66    1.40
  -3   3  -2   18.63    0.60
  -3   3  -2   19.42    0.70
  -3   3  -2   19.15    0.64
  -3   3  -2   18.84    0.75
   3  -3   2   18.44    0.70
   3  -3   2   18.20    0.66
   3  -3   2   18.31    0.63
  -4   3  -2    1.13    0.24
  -4   3  -2    0.70    0.21
  -4   3  -2    0.93    0.16
  -4   3  -2    1.05    0.18
   4  -3   2    0.96    0.21
   4  -3   2    1.05    0.23
   4  -3   2    0.99    0.19
   4  -3   2    1.60    0.24
  -5   3  -2   26.57    1.09
  -5   3  -2   24.60    0.79
  -5   3  -2   25.06    1.00
  -5   3  -2   22.49    0.77
   5  -3   2   26.50    0.89
   5  -3   2   24.06    0.82
   5  -3   2   25.54    0.86
  -6   3  -2   -0.30    0.24
  -6   3  -2    0.08    0.09
  -6   3  -2   -0.19    0.29
   6  -3   2   -0.21    0.22
   6  -3   2   -0.10    0.22
   6  -3   2    0.05    0.26
  -7   3  -2    4.01    0.66
  -7   3  -2    4.26    0.70
   7  -3   2    3.60    0.48
   7  -3   2    4.03    0.52
   7  -3   2    4.52    0.54
  -8   3  -2    0.87    0.39
  -8   3  -2    0.94    0.49
   8  -3   2    1.24    0.42
   8  -3   2    1.26    0.39
   8  -3   2    1.01    0.29
  -9   3  -2    0.50    0.42
   9  -3   2   -0.33    0.34
   9  -3   2    0.46    0.46
   9   2  -2    0.83    0.48
  -9  -2   2    0.55    0.37
  -9  -2   2    0.77    0.68
   8   2  -2   -0.16    0.25
   8   2  -2   -0.51    0.35
  -8  -2   2    0.08    0.30
  -8  -2   2    0.13    0.50
   7   2  -2    0.22    0.34
  -7  -2   2    0.17    0.32
  -7  -2   2    0.30    0.19
  -7  -2   2    0.23    0.45
  -7  -2   2    0.17    0.14
   6   2  -2   -0.10    0.28
   6   2  -2    0.03    0.13
   6   2  -2   -0.05    0.15
  -6  -2   2   -0.02    0.11
  -6  -2   2   -0.04    0.16
  -6  -2   2   -0.08    0.22
   5   2  -2    0.11    0.15
   5   2  -2   -0.03    0.23
   5   2  -2    0.02    0.08
  -5  -2   2    0.04    0.12
  -5  -2   2    0.12    0.21
  -5  -2   2    0.06    0.09
  -5  -2   2    0.08    0.15
  -5  -2   2   -0.29    0.30
   4   2  -2   31.03    0.86
   4   2  -2   30.12    0.93
   4   2  -2   29.76    0.86
  -4  -2   2   30.78    0.97
  -4  -2   2   30.04    0.91
  -4  -2   2   30.24    0.85
  -4  -2   2   31.76    1.25
   3   2  -2    0.55    0.16
   3   2  -2    0.71    0.13
   3   2  -2    0.66    0.14
  -3  -2   2    0.41    0.17
  -3  -2   2    0.62    0.13
  -3  -2   2    0.69    0.14
  -3  -2   2    0.73    0.12
   2   2  -2    1.44    0.15
   2   2  -2    1.30    0.16
   2   2  -2    1.39    0.16
   2   2  -2    1.68    0.25
   2   2  -2    1.18    0.15
  -2  -2   2    1.53    0.27
  -2  -2   2    1.36    0.09
  -2  -2   2    1.29    0.15
  -2  -2   2    1.14    0.16
  -2  -2   2    1.26    0.18
  -2  -2   2    1.12    0.16
  -2  -2   2    1.25    0.17
   1   2  -2   49.96    1.32
   1   2  -2   48.59    1.24
   1   2  -2   49.35    1.48
   1   2  -2   49.57    1.23
   1   2  -2   41.23    1.06
   1   2  -2   47.86    1.21
   1   2  -2   49.20    1.30
  -1  -2   2   50.13    1.33
  -1  -2   2   48.95    1.30
  -1  -2   2   47.66    1.47
  -1  -2   2   48.42    1.20
  -1  -2   2   45.80    1.22
   0   2  -2  194.81    4.38
   0   2  -2  192.66    4.40
   0   2  -2  193.07    5.12
   0   2  -2  188.83    4.96
   0   2  -2  189.26    4.82
   0  -2   2  189.04    5.12
   0  -2   2  195.54    4.71
   0  -2   2  193.37    4.41
   0  -2   2  198.28    4.83
   0  -2   2  190.00    4.37
  -1   2  -2   24.84    0.76
  -1   2  -2   24.64    0.78
  -1   2  -2   25.48    0.81
  -1   2  -2   24.35    0.69
  -1   2  -2   24.90    0.71
   1  -2   2   23.96    0.68
   1  -2   2   24.18    0.72
   1  -2   2   25.12    0.76
   1  -2   2   25.22    0.79
   1  -2   2   25.10    0.73
  -2   2  -2   59.47    1.49
  -2   2  -2   61.77    1.71
  -2   2  -2   60.42    1.66
  -2   2  -2   58.54    1.65
  -2   2  -2   59.80    1.66
  -2   2  -2   58.57    1.46
   2  -2   2   60.13    1.66
   2  -2   2   58.45    1.47
   2  -2   2   58.33    1.50
   2  -2   2   58.79    1.66
  -3   2  -2    0.46    0.12
  -3   2  -2    0.54    0.15
  -3   2  -2    0.54    0.14
  -3   2  -2    0.29    0.14
  -3   2  -2    0.49    0.10
   3  -2   2    0.60    0.13
   3  -2   2    0.47    0.14
   3  -2   2    0.51    0.12
   3  -2   2    0.53    0.13
  -4   2  -2   32.46    1.18
  -4   2  -2   35.92    1.17
  -4   2  -2   33.32    0.92
   4  -2   2   33.71    0.98
   4  -2   2   33.96    0.97
   4  -2   2   32.92    0.94
  -5   2  -2    0.28    0.13
  -5   2  -2    0.21    0.24
  -5   2  -2    0.16    0.20
   5  -2   2    0.14    0.21
   5  -2   2    0.61    0.21
   5  -2   2    0.33    0.18
   5  -2   2    0.18    0.15
  -6   2  -2    3.45    0.35
  -6   2  -2    1.66    0.36
  -6   2  -2    2.78    0.44
   6  -2   2    2.74    0.36
   6  -2   2    2.38    0.35
   6  -2   2    3.24    0.44
  -7   2  -2    0.10    0.30
  -7   2  -2    0.56    0.37
   7  -2   2    0.17    0.21
   7  -2   2    0.91    0.35
   7  -2   2    0.74    0.32
  -8   2  -2    0.53    0.37
  -8   2  -2    0.97    0.46
   8  -2   2    0.89    0.41
   8  -2   2    0.31    0.35
  -9   2  -2    0.61    0.42
   9  -2   2    0.28    0.37
   9  -2   2    0.19    0.43
  10   1  -2   -0.36    0.39
   9   1  -2   -0.41    0.39
  -9  -1   2    0.14    0.56
   8   1  -2    0.33    0.27
   8   1  -2   -0.09    0.37
  -8  -1   2    0.13    0.30
  -8  -1   2    0.18    0.54
   7   1  -2    0.21    0.22
   7   1  -2    0.19    0.25
   7   1  -2    0.03    0.33
  -7  -1   2    0.16    0.12
  -7  -1   2    0.08    0.24
  -7  -1   2    0.35    0.21
  -7  -1   2    0.20    0.46
   6   1  -2    0.13    0.22
   6   1  -2    0.07    0.06
   6   1  -2    0.32    0.16
   6   1  -2    0.42    0.18
  -6  -1   2    0.17    0.10
  -6  -1   2    0.22    0.12
  -6  -1   2   -0.31    0.28
  -6  -1   2    0.28    0.22
   5   1  -2   25.10    0.74
   5   1  -2   23.64    0.85
   5   1  -2   26.23    0.77
   5   1  -2   25.02    0.76
  -5  -1   2   25.26    1.19
  -5  -1   2   26.42    1.10
  -5  -1   2   24.87    0.74
  -5  -1   2   25.98    0.84
   4   1  -2   91.51    2.18
   4   1  -2   89.71    1.99
   4   1  -2   92.99    2.15
   4   1  -2   90.28    2.18
  -4  -1   2   86.31    2.80
  -4  -1   2   90.82    2.35
  -4  -1   2   89.16    2.14
  -4  -1   2   92.83    2.73
  -4  -1   2   89.62    2.17
   3   1  -2   20.21    0.60
   3   1  -2   19.95    0.79
   3   1  -2   20.18    0.61
  -3  -1   2   20.54    0.61
  -3  -1   2   20.56    0.81
  -3  -1   2   18.93    0.84
  -3  -1   2   20.22    0.61
  -3  -1   2   20.62    0.58
   2   1  -2  159.47    3.71
   2   1  -2  163.09    4.09
   2   1  -2  163.88    4.40
   2   1  -2  154.40    3.69
  -2  -1   2  164.83    4.41
  -2  -1   2  161.34    3.71
  -2  -1   2  163.97    3.99
  -2  -1   2  161.02    3.69
  -2  -1   2  167.59    3.61
  -2  -1   2  158.90    3.83
   1   1  -2   63.02    1.81
   1   1  -2   62.06    1.56
   1   1  -2   62.10    1.53
   1   1  -2   64.85    1.43
   1   1  -2   61.46    1.51
   1   1  -2   65.12    1.65
   1   1  -2   64.21    1.62
  -1  -1   2   60.60    1.56
  -1  -1   2   66.73    1.84
  -1  -1   2   62.43    1.53
  -1  -1   2   63.23    1.51
  -1  -1   2   62.70    1.43
  -1  -1   2   64.05    1.62
  -1  -1   2   64.20    1.64
   0   1  -2  115.01    3.05
   0   1  -2  110.27    2.85
   0   1  -2  113.47    2.62
   0   1  -2  125.58    2.82
   0   1  -2  110.52    2.58
   0   1  -2  114.52    2.60
   0  -1   2  114.18    2.60
   0  -1   2  113.35    2.80
   0  -1   2   99.99    2.61
   0  -1   2  114.71    3.05
  -1   1  -2  103.14    2.78
  -1   1  -2  104.72    2.60
  -1   1  -2  106.55    2.40
  -1   1  -2  103.64    2.38
  -1   1  -2  101.51    2.76
   1  -1   2  102.18    2.38
   1  -1   2  103.01    2.40
   1  -1   2  102.76    2.60
  -2   1  -2   -0.03    0.06
  -2   1  -2   -0.06    0.06
  -2   1  -2    0.04    0.06
  -2   1  -2    0.02    0.08
   2  -1   2    0.15    0.08
   2  -1   2    0.00    0.06
   2  -1   2    0.00    0.09
  -3   1  -2    2.29    0.29
  -3   1  -2    3.16    0.18
  -3   1  -2    2.98    0.17
  -3   1  -2    3.08    0.26
   3  -1   2    3.03    0.19
   3  -1   2    2.89    0.18
   3  -1   2    2.63    0.25
   3  -1   2    3.08    0.24
  -4   1  -2    3.72    0.19
  -4   1  -2    3.60    0.38
  -4   1  -2    3.26    0.39
   4  -1   2    4.02    0.24
   4  -1   2    2.99    0.32
   4  -1   2    3.49    0.29
  -5   1  -2    4.98    0.22
  -5   1  -2    5.47    0.51
  -5   1  -2    4.55    0.50
   5  -1   2    4.66    0.26
   5  -1   2    5.46    0.30
   5  -1   2    5.20    0.43
   5  -1   2    5.51    0.41
  -6   1  -2    6.14    0.63
  -6   1  -2    4.79    0.62
   6  -1   2    5.33    0.29
   6  -1   2    5.96    0.50
   6  -1   2    6.04    0.32
   6  -1   2    5.15    0.51
  -7   1  -2    0.32    0.20
  -7   1  -2    0.09    0.38
  -7   1  -2    0.01    0.28
   7  -1   2   -0.07    0.29
   7  -1   2   -0.07    0.26
   7  -1   2    0.20    0.11
  -8   1  -2    2.03    0.54
  -8   1  -2    2.06    0.46
   8  -1   2    2.05    0.48
   8  -1   2    2.03    0.42
  -9   1  -2    0.70    0.42
  -9   1  -2    1.45    0.58
   9  -1   2    0.70    0.45
   9  -1   2    1.62    0.46
  10   0  -2   -0.10    0.46
 -10   0   2    0.64    0.67
   9   0  -2    0.00    0.42
  -9   0   2    0.39    0.57
   8   0  -2    3.61    0.42
   8   0  -2    2.86    0.52
   8   0  -2    3.28    0.39
  -8   0   2    3.10    0.67
   7   0  -2    0.80    0.24
   7   0  -2    0.74    0.35
   7   0  -2    0.93    0.31
   7   0  -2    1.06    0.24
  -7   0   2    0.31    0.25
  -7   0   2    0.65    0.45
   6   0  -2   -0.05    0.15
   6   0  -2    0.12    0.17
   6   0  -2    0.00    0.25
   6   0  -2    0.25    0.16
  -6   0   2   -0.70    0.34
  -6   0   2    0.12    0.13
   5   0  -2    1.28    0.27
   5   0  -2    1.47    0.21
   5   0  -2    1.18    0.20
   5   0  -2    1.03    0.17
  -5   0   2    1.08    0.18
  -5   0   2    0.84    0.20
  -5   0   2    0.80    0.34
   4   0  -2   48.21    1.25
   4   0  -2   48.29    1.27
   4   0  -2   47.56    1.26
   4   0  -2   45.88    1.12
  -4   0   2   47.01    1.69
  -4   0   2   47.93    1.23
  -4   0   2   50.28    1.57
  -4   0   2   48.23    1.25
   3   0  -2    0.09    0.11
   3   0  -2    0.15    0.07
   3   0  -2    0.18    0.11
   3   0  -2    0.08    0.12
  -3   0   2    0.07    0.10
  -3   0   2    0.15    0.11
  -3   0   2    0.07    0.18
  -3   0   2    0.09    0.10
   2   0  -2  840.87   19.46
   2   0  -2  852.56   19.32
   2   0  -2  856.94   22.80
   2   0  -2  816.97   22.67
  -2   0   2  854.97   23.24
  -2   0   2  833.60   22.59
  -2   0   2  857.34   19.47
  -2   0   2  861.98   19.01
  -2   0   2  831.28   19.27
   1   0  -2    0.67    0.10
   1   0  -2    0.85    0.13
   1   0  -2    0.72    0.10
   1   0  -2    0.73    0.12
  -1   0   2    0.71    0.10
  -1   0   2    0.92    0.09
  -1   0   2    0.63    0.10
  -1   0   2    1.04    0.15
  -1   0   2    0.70    0.11
   0   0  -2   47.50    1.15
   0   0  -2   48.38    1.21
   0   0  -2   46.57    1.13
   0   0  -2   48.67    1.35
   0   0  -2   46.98    1.29
   0   0  -2   45.57    1.12
   0   0   2   49.71    1.35
   0   0   2   45.55    1.11
   0   0   2   47.38    1.21
   0   0   2   47.74    1.29
   0   0   2   47.25    1.15
   0   0   2   46.19    1.13
   0   0   2   47.20    1.16
  -1   0  -2   35.08    0.87
  -1   0  -2   35.09    0.97
  -1   0  -2   35.20    0.88
  -1   0  -2   36.09    0.88
   1   0   2   35.32    0.88
   1   0   2   37.47    0.85
   1   0   2   36.07    0.87
   1   0   2   36.56    0.98
  -2   0  -2   26.66    0.66
  -2   0  -2   26.55    0.81
  -2   0  -2   26.15    0.65
   2   0   2   26.24    0.70
   2   0   2   26.98    0.71
   2   0   2   25.64    0.66
  -3   0  -2   32.56    0.78
  -3   0  -2   32.85    0.79
   3   0   2   33.78    0.91
   3   0   2   32.79    0.81
   3   0   2   33.28    0.80
   3   0   2   34.39    0.92
  -4   0  -2   53.25    1.70
   4   0   2   50.98    1.22
   4   0   2   53.62    1.38
   4   0   2   51.21    1.23
   4   0   2   54.74    1.40
  -5   0  -2    0.94    0.30
   5   0   2    0.54    0.21
   5   0   2    0.66    0.06
   5   0   2    0.90    0.27
  -6   0  -2    1.83    0.40
   6   0   2    1.92    0.33
  -7   0  -2    5.75    0.71
  -7   0  -2    6.02    0.64
   7   0   2    5.59    0.56
   7   0   2    5.87    0.62
  -8   0  -2    5.97    0.80
  -8   0  -2    6.32    0.82
   8   0   2    5.55    0.68
   8   0   2    6.28    0.63
  -9   0  -2    1.33    0.60
  -9   0  -2    1.07    0.47
   9   0   2    1.18    0.47
   9   0   2    1.23    0.49
  10  -1  -2    0.01    0.47
 -10   1   2    1.10    0.71
   9  -1  -2    0.32    0.44
  -9   1   2    0.27    0.56
   8  -1  -2   -0.04    0.23
   8  -1  -2   -0.13    0.36
   8  -1  -2    0.06    0.25
  -8   1   2   -0.01    0.48
   7  -1  -2    1.27    0.24
   7  -1  -2    1.38    0.29
   7  -1  -2    1.20    0.36
  -7   1   2    1.63    0.53
  -7   1   2    0.68    0.23
   6  -1  -2    2.46    0.37
   6  -1  -2    1.22    0.21
   6  -1  -2    1.44    0.33
  -6   1   2    1.65    0.44
   5  -1  -2    3.01    0.25
   5  -1  -2    3.30    0.36
   5  -1  -2    3.48    0.31
  -5   1   2    3.34    0.37
  -5   1   2    3.33    0.29
  -5   1   2    2.97    0.51
  -5   1   2    2.71    0.27
   4  -1  -2  246.95    5.09
   4  -1  -2  250.25    5.24
   4  -1  -2  244.56    6.58
   4  -1  -2  238.06    5.64
   4  -1  -2  250.00    5.66
  -4   1   2  247.92    6.58
  -4   1   2  245.51    6.82
  -4   1   2  249.07    5.64
  -4   1   2  245.71    6.09
   3  -1  -2    0.00    0.06
   3  -1  -2    0.02    0.13
   3  -1  -2   -0.07    0.14
   3  -1  -2   -0.01    0.08
   3  -1  -2    0.22    0.13
  -3   1   2    0.02    0.04
  -3   1   2    0.10    0.09
  -3   1   2    0.15    0.13
  -3   1   2    0.12    0.12
  -3   1   2   -0.09    0.18
  -3   1   2    0.08    0.10
   2  -1  -2    2.30    0.27
   2  -1  -2    1.72    0.24
   2  -1  -2    1.45    0.22
  -2   1   2    1.98    0.14
  -2   1   2    1.48    0.20
  -2   1   2    2.33    0.31
   1  -1  -2  965.05   23.82
   1  -1  -2  965.93   25.59
   1  -1  -2  964.92   22.05
   1  -1  -2  979.95   26.06
   1  -1  -2  947.97   22.04
   1  -1  -2  973.25   21.67
  -1   1   2 1000.00   25.62
  -1   1   2  943.69   21.88
  -1   1   2  965.81   21.65
  -1   1   2  944.64   22.08
  -1   1   2  953.93   26.03
   0  -1  -2   42.09    1.05
   0  -1  -2   40.55    1.03
   0  -1  -2   41.60    1.02
   0  -1  -2   43.46    1.20
   0  -1  -2   41.32    1.03
   0   1   2   41.27    1.20
   0   1   2   40.33    1.03
   0   1   2   42.70    0.92
   0   1   2   39.13    1.01
   0   1   2   41.79    1.05
   0   1   2   41.41    1.04
  -1  -1  -2  105.06    2.37
  -1  -1  -2  103.07    2.53
  -1  -1  -2  102.22    2.34
   1   1   2  100.37    2.34
   1   1   2  100.06    2.34
   1   1   2  103.93    2.20
   1   1   2  104.34    2.37
   1   1   2   99.44    2.17
  -2  -1  -2  100.11    2.28
  -2  -1  -2  101.59    2.58
  -2  -1  -2  101.28    2.28
   2   1   2  103.01    2.24
   2   1   2  100.00    2.29
   2   1   2  101.84    2.22
   3   1   2   58.22    1.68
   3   1   2   52.37    1.35
   3   1   2   53.84    1.36
   4   1   2    5.24    0.43
   4   1   2    4.95    0.37
   4   1   2    4.43    0.38
   5   1   2    3.98    0.41
   5   1   2    3.84    0.41
   5   1   2    3.26    0.32
  -6  -1  -2   18.30    1.02
   6   1   2   16.64    0.76
   6   1   2   13.67    0.71
   6   1   2   15.40    0.84
  -7  -1  -2    0.61    0.45
   7   1   2   -0.09    0.26
   7   1   2    0.24    0.33
  -8  -1  -2    5.55    0.73
  -8  -1  -2    4.54    0.79
  -8  -1  -2    4.66    0.72
   8   1   2    3.02    0.49
   8   1   2    5.04    0.61
  -9  -1  -2    0.33    0.36
  -9  -1  -2    0.81    0.57
   9   1   2    0.57    0.43
   9   1   2    0.26    0.39
  10  -2  -2   -0.09    0.45
 -10   2   2    0.18    0.66
   9  -2  -2    0.70    0.30
   9  -2  -2   -0.22    0.43
  -9   2   2    0.39    0.58
   8  -2  -2   -0.09    0.33
   8  -2  -2    0.13    0.25
   8  -2  -2    0.23    0.28
  -8   2   2    0.48    0.51
   7  -2  -2    0.31    0.31
   7  -2  -2    0.37    0.20
   7  -2  -2    0.39    0.28
  -7   2   2    0.05    0.17
  -7   2   2    0.35    0.43
   6  -2  -2    3.16    0.33
   6  -2  -2    2.65    0.37
   6  -2  -2    2.58    0.36
   6  -2  -2    2.86    0.38
  -6   2   2    3.42    0.36
  -6   2   2    2.05    0.34
  -6   2   2    3.70    0.63
  -6   2   2    3.09    0.38
   5  -2  -2    6.16    0.41
   5  -2  -2    5.81    0.33
   5  -2  -2    6.39    0.45
   5  -2  -2    6.13    0.43
  -5   2   2    5.32    0.52
  -5   2   2    5.24    0.36
  -5   2   2    5.76    0.39
  -5   2   2    6.03    0.39
   4  -2  -2  266.84    5.63
   4  -2  -2  265.77    7.05
   4  -2  -2  273.08    6.17
  -4   2   2  267.94    7.36
  -4   2   2  263.98    6.13
  -4   2   2  271.22    7.04
  -4   2   2  262.87    6.63
   3  -2  -2   14.56    0.55
   3  -2  -2   14.25    0.66
   3  -2  -2   14.25    0.52
   3  -2  -2   15.31    0.47
   3  -2  -2   14.30    0.54
  -3   2   2   14.16    0.50
  -3   2   2   14.80    0.54
  -3   2   2   13.87    0.52
  -3   2   2   14.43    0.69
  -3   2   2   14.52    0.54
  -3   2   2   13.94    0.54
   2  -2  -2    6.84    0.35
   2  -2  -2    6.82    0.40
   2  -2  -2    7.26    0.33
   2  -2  -2    7.41    0.32
   2  -2  -2    7.30    0.35
  -2   2   2    7.29    0.33
  -2   2   2    6.36    0.39
  -2   2   2    6.65    0.32
  -2   2   2    7.25    0.33
  -2   2   2    6.85    0.31
   1  -2  -2  190.90    4.22
   1  -2  -2  187.89    5.05
   1  -2  -2  190.61    4.66
   1  -2  -2  181.62    4.28
   1  -2  -2  184.53    4.29
  -1   2   2  182.60    5.03
  -1   2   2  183.96    4.28
  -1   2   2  187.64    4.21
  -1   2   2  192.78    4.67
  -1   2   2  184.75    4.29
   0  -2  -2   17.11    0.52
   0  -2  -2   17.73    0.54
   0  -2  -2   18.30    0.64
   0  -2  -2   17.00    0.60
   0  -2  -2   18.29    0.54
   0   2   2   18.04    0.46
   0   2   2   17.37    0.52
   0   2   2   17.22    0.63
   0   2   2   17.27    0.53
   0   2   2   18.39    0.54
  -1  -2  -2   15.66    0.48
  -1  -2  -2   15.18    0.45
  -1  -2  -2   15.29    0.43
   1   2   2   15.08    0.46
   1   2   2   14.86    0.42
   1   2   2   15.54    0.48
   1   2   2   14.82    0.45
   1   2   2   15.03    0.46
  -2  -2  -2  383.43    9.07
  -2  -2  -2  384.02    8.95
  -2  -2  -2  392.75    8.99
   2   2   2  393.85    8.09
   2   2   2  427.65    9.89
   2   2   2  384.51    9.04
   2   2   2  387.80    8.10
  -3  -2  -2    1.27    0.19
   3   2   2    0.97    0.19
   3   2   2    0.90    0.16
   3   2   2    0.96    0.25
   3   2   2    1.07    0.10
   3   2   2    1.18    0.09
   4   2   2    8.04    0.51
   4   2   2    7.46    0.44
   4   2   2    7.39    0.42
   5   2   2   17.31    0.76
   5   2   2   16.80    0.87
   5   2   2   17.33    0.73
   6   2   2    5.13    0.54
   6   2   2    6.06    0.57
   6   2   2    4.73    0.51
  -7  -2  -2    0.62    0.42
  -7  -2  -2    0.51    0.32
   7   2   2   -0.01    0.37
   7   2   2    0.20    0.35
   7   2   2    0.14    0.30
  -8  -2  -2    0.09    0.21
  -8  -2  -2    0.67    0.49
  -8  -2  -2    0.28    0.33
   8   2   2    0.31    0.40
   8   2   2   -0.14    0.32
  -9  -2  -2    1.05    0.54
  -9  -2  -2    0.46    0.37
   9   2   2    0.22    0.39
   9   2   2    0.72    0.47
  10  -3  -2    0.12    0.47
 -10   3   2   -0.62    0.66
   9  -3  -2   -0.02    0.40
   9  -3  -2    0.35    0.32
  -9   3   2    0.25    0.59
   8  -3  -2    0.69    0.35
   8  -3  -2    0.20    0.40
  -8   3   2    0.00    0.57
   7  -3  -2    0.01    0.20
   7  -3  -2    0.04    0.31
   7  -3  -2   -0.21    0.27
  -7   3   2   -0.20    0.44
   6  -3  -2    0.15    0.25
   6  -3  -2    0.05    0.22
   6  -3  -2    0.06    0.26
   6  -3  -2    0.36    0.19
  -6   3   2    0.43    0.22
  -6   3   2    0.44    0.39
  -6   3   2    0.02    0.10
   5  -3  -2    0.10    0.21
   5  -3  -2    0.00    0.18
   5  -3  -2    0.17    0.19
  -5   3   2    0.02    0.29
  -5   3   2    0.05    0.20
  -5   3   2    0.05    0.09
   4  -3  -2   57.91    1.40
   4  -3  -2   57.81    1.60
   4  -3  -2   55.94    1.61
   4  -3  -2   59.17    1.62
  -4   3   2   58.17    1.58
  -4   3   2   57.56    1.93
  -4   3   2   57.25    1.64
   3  -3  -2  139.45    3.51
   3  -3  -2  128.57    3.25
   3  -3  -2  133.55    3.28
   3  -3  -2  138.24    3.61
   3  -3  -2  137.23    2.88
  -3   3   2  134.61    3.48
  -3   3   2  130.42    3.85
  -3   3   2  138.70    3.26
   2  -3  -2    7.61    0.35
   2  -3  -2    7.63    0.45
   2  -3  -2    7.91    0.40
   2  -3  -2    7.79    0.40
   2  -3  -2    7.77    0.39
   2  -3  -2    7.62    0.24
  -2   3   2    7.14    0.39
  -2   3   2    7.48    0.40
  -2   3   2    8.02    0.49
  -2   3   2    7.93    0.38
  -2   3   2    7.75    0.38
   1  -3  -2   24.04    0.87
   1  -3  -2   23.54    0.74
   1  -3  -2   23.75    0.80
   1  -3  -2   23.64    0.75
   1  -3  -2   23.96    0.71
  -1   3   2   23.96    0.74
  -1   3   2   24.23    0.80
  -1   3   2   23.34    0.70
  -1   3   2   23.58    0.74
  -1   3   2   23.63    0.86
   0  -3  -2    0.14    0.08
   0  -3  -2    0.39    0.16
   0  -3  -2    0.06    0.09
   0  -3  -2    0.20    0.11
   0  -3  -2    0.33    0.12
   0   3   2    0.24    0.12
   0   3   2    0.21    0.08
   0   3   2   -0.05    0.12
   0   3   2    0.11    0.07
  -1  -3  -2    1.79    0.27
  -1  -3  -2    2.17    0.09
  -1  -3  -2    1.75    0.20
  -1  -3  -2    2.11    0.19
  -1  -3  -2    1.85    0.18
   1   3   2    1.73    0.19
   1   3   2    1.63    0.21
   1   3   2    2.18    0.19
   1   3   2    2.03    0.16
   1   3   2    2.14    0.27
  -2  -3  -2    9.55    0.54
  -2  -3  -2   10.13    0.37
  -2  -3  -2   10.01    0.36
  -2  -3  -2   10.75    0.41
   2   3   2   10.13    0.38
   2   3   2   10.26    0.39
   2   3   2    9.56    0.36
   2   3   2   11.10    0.56
   2   3   2   10.01    0.41
  -3  -3  -2   -0.06    0.09
  -3  -3  -2    0.00    0.07
  -3  -3  -2   -0.06    0.06
  -3  -3  -2    0.04    0.09
   3   3   2   -0.22    0.13
   3   3   2   -0.23    0.17
   3   3   2    0.03    0.08
   3   3   2    0.01    0.10
   3   3   2   -0.02    0.08
  -4  -3  -2    5.45    0.37
  -4  -3  -2    5.63    0.51
   4   3   2    5.29    0.42
   4   3   2    5.55    0.18
   4   3   2    5.69    0.52
   4   3   2    5.86    0.42
   4   3   2    5.52    0.18
  -5  -3  -2   -0.05    0.15
   5   3   2    0.10    0.24
   5   3   2    0.10    0.24
   5   3   2    0.31    0.31
  -6  -3  -2    0.12    0.20
  -6  -3  -2    0.21    0.20
   6   3   2    0.35    0.34
   6   3   2    0.05    0.29
   6   3   2   -0.34    0.33
  -7  -3  -2   -0.02    0.29
  -7  -3  -2    0.14    0.20
  -7  -3  -2   -0.05    0.20
   7   3   2   -0.03    0.32
   7   3   2   -0.49    0.33
   7   3   2    0.23    0.36
  -8  -3  -2   -0.01    0.24
  -8  -3  -2    0.44    0.46
  -8  -3  -2   -0.01    0.34
  -8  -3  -2   -0.01    0.23
   8   3   2   -0.27    0.28
   8   3   2    0.12    0.36
   8   3   2   -0.50    0.37
  -9  -3  -2    1.25    0.56
  -9  -3  -2    0.48    0.39
  -9  -3  -2    0.18    0.33
   9   3   2   -0.50    0.41
   9   3   2    0.11    0.44
   9  -4  -2    0.62    0.39
   9  -4  -2    0.46    0.41
  -9   4   2   -0.77    0.59
   8  -4  -2    0.59    0.35
   8  -4  -2    0.84    0.38
  -8   4   2   -0.10    0.57
   7  -4  -2    0.06    0.21
   7  -4  -2    0.10    0.33
   7  -4  -2    0.17    0.30
  -7   4   2    0.11    0.49
   6  -4  -2    8.21    0.65
   6  -4  -2    7.27    0.49
  -6   4   2    8.25    0.80
  -6   4   2    7.42    0.53
   5  -4  -2   15.81    0.82
   5  -4  -2   15.89    0.61
   5  -4  -2   16.00    0.77
  -5   4   2   15.73    0.93
  -5   4   2   14.80    0.69
   4  -4  -2    8.36    0.51
   4  -4  -2    7.89    0.36
   4  -4  -2    7.77    0.29
   4  -4  -2    8.77    0.54
   4  -4  -2    8.91    0.56
  -4   4   2    8.35    0.50
  -4   4   2    8.39    0.47
  -4   4   2    8.93    0.67
   3  -4  -2    1.68    0.17
   3  -4  -2    1.67    0.30
   3  -4  -2    1.97    0.33
   3  -4  -2    1.38    0.27
  -3   4   2    1.80    0.26
  -3   4   2    1.09    0.25
  -3   4   2    1.08    0.28
   2  -4  -2   14.32    0.62
   2  -4  -2   13.91    0.60
   2  -4  -2   13.69    0.64
  -2   4   2   14.47    0.60
  -2   4   2   12.75    0.67
  -2   4   2   12.78    0.55
   1  -4  -2   19.06    0.64
   1  -4  -2   18.93    0.69
   1  -4  -2   18.98    0.75
  -1   4   2   19.21    0.73
  -1   4   2   19.00    0.67
  -1   4   2   18.26    0.67
  -1   4   2   17.93    0.56
  -1   4   2   17.59    0.75
   0  -4  -2   56.85    1.74
   0  -4  -2   58.60    1.56
   0  -4  -2   59.80    1.48
   0   4   2   59.05    1.54
   0   4   2   59.72    1.56
   0   4   2   57.22    1.82
   0   4   2   57.91    1.47
  -1  -4  -2    4.36    0.30
  -1  -4  -2    5.13    0.28
  -1  -4  -2    4.67    0.38
   1   4   2    4.19    0.30
   1   4   2    4.66    0.27
   1   4   2    4.95    0.33
   1   4   2    4.53    0.23
  -2  -4  -2    0.16    0.10
  -2  -4  -2    0.05    0.11
  -2  -4  -2    0.16    0.11
   2   4   2    0.29    0.12
   2   4   2    0.05    0.13
   2   4   2    0.05    0.09
   2   4   2    0.22    0.14
  -3  -4  -2    2.41    0.21
  -3  -4  -2    2.51    0.27
   3   4   2    2.60    0.23
   3   4   2    2.50    0.34
   3   4   2    2.14    0.27
   3   4   2    2.69    0.23
  -4  -4  -2    0.01    0.15
  -4  -4  -2    0.01    0.07
  -4  -4  -2   -0.03    0.13
   4   4   2    0.06    0.21
   4   4   2   -0.22    0.19
   4   4   2   -0.24    0.10
   4   4   2    0.01    0.10
   4   4   2   -0.16    0.27
  -5  -4  -2    5.31    0.48
  -5  -4  -2    7.84    0.74
   5   4   2    6.32    0.60
   5   4   2    6.74    0.48
   5   4   2    6.73    0.55
  -6  -4  -2   11.51    0.86
  -6  -4  -2   11.64    1.02
  -6  -4  -2   11.74    0.64
   6   4   2   10.72    0.74
   6   4   2    9.02    0.60
   6   4   2    9.75    0.85
  -7  -4  -2    0.10    0.34
  -7  -4  -2   -0.06    0.23
  -7  -4  -2    0.08    0.20
   7   4   2   -0.19    0.33
   7   4   2    0.27    0.38
   7   4   2   -0.35    0.41
  -8  -4  -2   -0.05    0.38
  -8  -4  -2    0.17    0.24
  -8  -4  -2    0.75    0.52
   8   4   2   -0.11    0.44
   8   4   2   -0.07    0.39
  -9  -4  -2    1.09    0.56
  -9  -4  -2    0.67    0.44
   9   4   2    0.46    0.48
   9  -5  -2    0.21    0.42
   9  -5  -2    0.52    0.40
  -9   5   2    0.43    0.40
   8  -5  -2    0.05    0.39
   8  -5  -2    0.17    0.37
  -8   5   2   -1.08    0.56
   7  -5  -2    0.03    0.35
   7  -5  -2   -0.01    0.29
  -7   5   2   -0.66    0.49
   6  -5  -2    0.35    0.21
   6  -5  -2    0.07    0.33
  -6   5   2    0.67    0.47
  -6   5   2    0.34    0.31
   5  -5  -2    6.05    0.61
   5  -5  -2    6.99    0.40
  -5   5   2    6.60    0.75
  -5   5   2    6.19    0.54
   4  -5  -2    6.85    0.31
   4  -5  -2    6.81    0.55
   4  -5  -2    6.69    0.53
  -4   5   2    6.07    0.45
  -4   5   2    6.78    0.65
   3  -5  -2    0.39    0.14
   3  -5  -2    0.42    0.11
   3  -5  -2    0.77    0.26
  -3   5   2    0.59    0.24
  -3   5   2    0.55    0.31
   2  -5  -2  110.59    2.91
   2  -5  -2  118.65    3.17
  -2   5   2  117.97    2.95
  -2   5   2  112.02    2.87
  -2   5   2  114.14    3.38
   1  -5  -2  100.92    2.44
   1  -5  -2  101.24    2.80
   1  -5  -2  100.34    2.56
  -1   5   2   95.15    2.47
  -1   5   2   98.83    2.52
   0  -5  -2   19.85    0.85
   0  -5  -2   19.52    0.66
   0  -5  -2   19.35    0.74
   0   5   2   20.04    0.74
   0   5   2   19.16    0.65
   0   5   2   20.30    0.73
  -1  -5  -2    7.20    0.37
  -1  -5  -2    7.58    0.41
   1   5   2    6.88    0.28
   1   5   2    6.88    0.40
   1   5   2    6.60    0.34
  -2  -5  -2   35.39    1.32
  -2  -5  -2   34.75    0.92
  -2  -5  -2   37.03    1.03
  -2  -5  -2   35.60    1.06
   2   5   2   35.34    0.95
   2   5   2   34.29    1.00
   2   5   2   36.08    1.07
   2   5   2   35.86    1.04
  -3  -5  -2    5.75    0.36
  -3  -5  -2    5.52    0.34
  -3  -5  -2    4.87    0.56
   3   5   2    5.33    0.35
   3   5   2    5.54    0.36
   3   5   2    5.62    0.41
   3   5   2    5.78    0.53
  -4  -5  -2   17.08    0.97
  -4  -5  -2   16.85    0.67
   4   5   2   17.15    0.73
   4   5   2   17.34    0.58
   4   5   2   15.47    1.00
  -5  -5  -2    5.21    0.47
   5   5   2    4.99    0.53
   5   5   2    4.31    0.27
   5   5   2    3.25    0.53
  -6  -5  -2    0.72    0.40
  -6  -5  -2    0.99    0.24
  -6  -5  -2    0.44    0.24
   6   5   2    0.80    0.48
   6   5   2    1.29    0.41
  -7  -5  -2    0.32    0.36
  -7  -5  -2    0.18    0.25
   7   5   2    0.48    0.41
   7   5   2   -0.12    0.45
  -8  -5  -2   -0.17    0.39
  -8  -5  -2    0.01    0.25
   8   5   2    0.14    0.43
   8   5   2   -0.34    0.47
   9  -6  -2    0.25    0.45
  -9   6   2    0.12    0.44
   8  -6  -2    0.65    0.49
  -8   6   2    0.39    0.37
   7  -6  -2    0.32    0.48
   7  -6  -2    0.03    0.29
  -7   6   2   -0.44    0.55
  -7   6   2    0.04    0.33
   6  -6  -2   -0.09    0.37
   6  -6  -2    0.34    0.21
  -6   6   2    0.67    0.32
  -6   6   2   -0.09    0.48
  -6   6   2    0.20    0.30
   5  -6  -2    3.08    0.30
   5  -6  -2    3.07    0.50
  -5   6   2    3.33    0.58
  -5   6   2    3.61    0.53
   4  -6  -2   -0.21    0.30
   4  -6  -2   -0.02    0.15
   4  -6  -2    0.07    0.05
   4  -6  -2   -0.02    0.05
  -4   6   2   -0.25    0.26
  -4   6   2    0.06    0.19
  -4   6   2    0.04    0.34
   3  -6  -2    4.31    0.52
   3  -6  -2    4.87    0.52
  -3   6   2    4.00    0.57
  -3   6   2    4.90    0.42
  -3   6   2    4.12    0.49
   2  -6  -2   13.47    0.76
   2  -6  -2   13.25    0.70
  -2   6   2   12.72    0.53
  -2   6   2   12.96    0.77
  -2   6   2   13.20    0.67
   1  -6  -2    1.02    0.20
   1  -6  -2    0.71    0.18
   1  -6  -2    1.31    0.28
  -1   6   2    1.25    0.27
  -1   6   2    1.21    0.16
   0  -6  -2    0.24    0.21
   0  -6  -2    0.12    0.14
   0  -6  -2    0.19    0.14
   0   6   2    0.14    0.20
  -1  -6  -2   10.98    0.58
  -1  -6  -2   10.52    0.70
  -1  -6  -2   10.31    0.48
   1   6   2   10.59    0.37
   1   6   2   10.56    0.55
  -2  -6  -2   15.79    0.61
  -2  -6  -2   16.32    0.90
  -2  -6  -2   15.46    0.66
   2   6   2   15.80    0.56
   2   6   2   15.19    0.67
   2   6   2   15.86    0.65
  -3  -6  -2    0.93    0.22
  -3  -6  -2    0.44    0.23
  -3  -6  -2    0.67    0.18
   3   6   2    0.51    0.25
   3   6   2    0.49    0.23
   3   6   2    0.89    0.25
  -4  -6  -2   33.69    1.45
  -4  -6  -2   32.96    1.04
   4   6   2   29.28    1.46
   4   6   2   34.21    1.01
   4   6   2   33.94    1.09
  -5  -6  -2    0.52    0.36
  -5  -6  -2    0.67    0.26
  -5  -6  -2    0.59    0.21
   5   6   2    1.04    0.48
   5   6   2    1.28    0.35
   5   6   2    0.96    0.20
  -6  -6  -2    0.13    0.22
  -6  -6  -2   -0.04    0.37
   6   6   2    0.47    0.37
   6   6   2    0.30    0.47
  -7  -6  -2    0.25    0.27
  -7  -6  -2    0.47    0.43
   7   6   2    0.47    0.43
   7   6   2   -0.13    0.48
  -8  -6  -2    0.02    0.27
   8   6   2    0.04    0.53
   8   6   2    0.13    0.47
   8  -7  -2    0.58    0.53
  -8   7   2    0.03    0.37
   7  -7  -2   -0.11    0.45
  -7   7   2   -1.08    0.55
  -7   7   2   -0.03    0.32
   6  -7  -2    0.03    0.42
  -6   7   2    0.13    0.28
  -6   7   2   -0.18    0.51
  -6   7   2   -0.15    0.33
   5  -7  -2    0.04    0.20
   5  -7  -2    0.03    0.39
  -5   7   2    0.12    0.25
  -5   7   2    0.26    0.35
  -5   7   2    0.61    0.48
   4  -7  -2   -0.15    0.19
   4  -7  -2    0.98    0.42
  -4   7   2   -0.19    0.20
  -4   7   2    0.02    0.40
   3  -7  -2    0.44    0.34
   3  -7  -2    0.38    0.20
  -3   7   2    0.32    0.32
  -3   7   2    0.70    0.19
  -3   7   2    0.45    0.39
   2  -7  -2    0.14    0.19
   2  -7  -2    0.28    0.24
  -2   7   2   -0.06    0.28
  -2   7   2    0.34    0.13
   1  -7  -2    4.21    0.59
   1  -7  -2    4.39    0.45
  -1   7   2    4.25    0.24
  -1   7   2    4.51    0.51
   0  -7  -2    1.27    0.23
   0  -7  -2    1.59    0.33
   0   7   2    1.53    0.33
  -1  -7  -2    3.44    0.49
  -1  -7  -2    3.61    0.38
   1   7   2    4.14    0.26
   1   7   2    3.52    0.46
  -2  -7  -2   22.83    0.81
  -2  -7  -2   22.15    0.88
  -2  -7  -2   23.15    1.19
   2   7   2   24.36    0.91
   2   7   2   23.36    0.73
  -3  -7  -2    0.82    0.21
  -3  -7  -2    1.11    0.28
   3   7   2    1.74    0.30
   3   7   2    1.58    0.28
  -4  -7  -2    3.06    0.38
  -4  -7  -2    4.29    0.69
   4   7   2    3.48    0.54
   4   7   2    5.29    0.47
   4   7   2    4.43    0.42
  -5  -7  -2    0.97    0.30
  -5  -7  -2    0.76    0.41
   5   7   2    1.73    0.56
   5   7   2    1.82    0.42
   5   7   2    1.46    0.25
  -6  -7  -2    0.98    0.42
  -6  -7  -2    0.44    0.27
   6   7   2    0.89    0.45
   6   7   2    1.35    0.48
  -7  -7  -2    0.03    0.27
  -7  -7  -2    0.23    0.42
   7   7   2    0.06    0.50
   7   7   2    0.28    0.43
  -8   8   2    0.32    0.42
   7  -8  -2    0.05    0.57
  -7   8   2   -1.19    0.57
  -7   8   2    0.40    0.36
   6  -8  -2    0.66    0.50
  -6   8   2    0.37    0.39
  -6   8   2    0.32    0.29
  -6   8   2    0.09    0.56
   5  -8  -2    1.61    0.32
   5  -8  -2    3.46    0.60
  -5   8   2    3.42    0.65
  -5   8   2    2.16    0.36
  -5   8   2    2.99    0.51
   4  -8  -2    3.81    0.58
  -4   8   2    4.18    0.50
  -4   8   2    3.29    0.61
  -4   8   2    3.44    0.51
   3  -8  -2    0.19    0.37
   3  -8  -2   -0.14    0.21
   3  -8  -2    0.32    0.16
  -3   8   2    0.38    0.17
  -3   8   2    0.04    0.35
   2  -8  -2   -0.57    0.28
   2  -8  -2   -0.26    0.16
  -2   8   2   -0.38    0.23
  -2   8   2   -0.22    0.10
   1  -8  -2    0.87    0.36
   1  -8  -2    0.58    0.25
  -1   8   2    0.72    0.11
  -1   8   2    0.57    0.36
   0  -8  -2    2.05    0.34
   0  -8  -2    3.29    0.47
   0   8   2    3.16    0.46
  -1  -8  -2    1.86    0.26
  -1  -8  -2    2.61    0.44
  -1  -8  -2    1.86    0.33
   1   8   2    2.58    0.42
  -2  -8  -2   -0.25    0.15
  -2  -8  -2   -0.23    0.20
  -2  -8  -2   -0.05    0.24
   2   8   2   -0.07    0.25
  -3  -8  -2    0.34    0.25
  -3  -8  -2   -0.07    0.30
   3   8   2    0.47    0.34
   3   8   2    0.96    0.26
   3   8   2    0.87    0.30
  -4  -8  -2    0.82    0.31
  -4  -8  -2    0.93    0.40
   4   8   2    1.49    0.37
   4   8   2    0.78    0.28
   4   8   2    0.77    0.41
  -5  -8  -2    0.32    0.38
  -5  -8  -2    0.22    0.29
   5   8   2    0.19    0.23
   5   8   2    0.15    0.48
   5   8   2    0.25    0.37
  -6  -8  -2    0.11    0.40
  -6  -8  -2    0.14    0.31
   6   8   2    0.23    0.52
   6   8   2   -0.14    0.45
  -7   9   2   -0.36    0.60
  -7   9   2    0.46    0.37
   6  -9  -2    0.54    0.53
  -6   9   2    0.57    0.44
  -6   9   2    0.17    0.55
  -6   9   2    0.10    0.31
   5  -9  -2    0.27    0.30
   5  -9  -2    1.20    0.52
  -5   9   2    1.65    0.60
  -5   9   2    0.71    0.29
  -5   9   2    0.91    0.46
   4  -9  -2    0.27    0.30
   4  -9  -2    0.69    0.47
  -4   9   2    0.70    0.42
  -4   9   2    0.51    0.24
   3  -9  -2    0.68    0.43
   3  -9  -2    0.16    0.28
  -3   9   2    0.34    0.40
   2  -9  -2    0.31    0.22
   2  -9  -2    0.23    0.26
   2  -9  -2    0.44    0.41
  -2   9   2    0.13    0.38
   1  -9  -2    0.35    0.27
   1  -9  -2    0.61    0.38
   1  -9  -2   -0.03    0.24
  -1   9   2    0.55    0.38
   0  -9  -2   -0.01    0.24
   0  -9  -2    0.20    0.27
   0  -9  -2    0.18    0.31
   0   9   2    0.08    0.33
  -1  -9  -2    0.15    0.25
  -1  -9  -2    0.99    0.33
  -1  -9  -2    0.37    0.31
   1   9   2    0.61    0.34
  -2  -9  -2   -0.05    0.29
  -2  -9  -2    0.10    0.23
   2   9   2   -0.40    0.31
  -3  -9  -2   -0.06    0.34
  -3  -9  -2   -0.06    0.25
   3   9   2   -0.17    0.41
   3   9   2   -0.30    0.28
  -4  -9  -2    1.04    0.44
  -4  -9  -2    0.96    0.33
   4   9   2    0.72    0.55
   4   9   2    1.20    0.35
  -5  -9  -2    0.00    0.36
  -5  -9  -2    0.13    0.29
   5   9   2   -0.09    0.36
   5   9   2    0.00    0.25
   6   9   2   -0.42    0.58
   6   9   2    0.66    0.46
   5 -10  -2    0.94    0.55
  -5  10   2    1.11    0.49
   4 -10  -2    0.26    0.47
   4 -10  -2   -0.38    0.27
  -4  10   2    0.09    0.45
   3 -10  -2    0.71    0.48
   3 -10  -2    0.25    0.30
  -3  10   2    1.26    0.48
   2 -10  -2    5.25    0.75
  -2  10   2    3.50    0.57
  -2  10   2    3.04    0.46
   1 -10  -2    0.48    0.37
   1 -10  -2   -0.25    0.25
   1 -10  -2    0.17    0.23
  -1  10   2    0.27    0.38
   0 -10  -2    0.83    0.39
   0 -10  -2    0.48    0.27
   0 -10  -2    0.32    0.29
   0  10   2    0.22    0.37
  -1 -10  -2    0.55    0.35
  -1 -10  -2    0.20    0.29
   1  10   2    0.18    0.35
  -2 -10  -2    0.75    0.37
  -2 -10  -2    0.72    0.36
   2  10   2    1.16    0.40
   2  10   2    0.81    0.49
  -3 -10  -2    0.06    0.35
  -3 -10  -2   -0.03    0.29
   3  10   2    0.11    0.37
   3  10   2    0.09    0.32
  -4 -10  -2    0.81    0.45
  -4 -10  -2    0.29    0.36
   4  10   2   -0.01    0.33
   4  10   2    0.30    0.41
   5  10   2    0.94    0.67
   5 -11  -2   -0.45    0.32
  -5  11   2    0.85    0.53
   4 -11  -2    0.56    0.53
   4 -11  -2   -0.08    0.32
  -4  11   2    0.63    0.51
   3 -11  -2   -0.64    0.29
   3 -11  -2   -0.20    0.43
  -3  11   2   -0.15    0.44
   2 -11  -2    0.84    0.47
   2 -11  -2    0.04    0.33
  -2  11   2    0.44    0.47
   1 -11  -2   -0.53    0.28
   1 -11  -2    0.13    0.39
  -1  11   2   -0.17    0.41
  -1  11   2    0.11    0.33
   0 -11  -2    0.34    0.29
   0 -11  -2   -0.33    0.30
   0  11   2    0.67    0.45
   0  11   2    1.00    0.46
  -1 -11  -2   -0.30    0.31
  -1 -11  -2   -0.06    0.31
   1  11   2   -0.01    0.43
   1  11   2    0.51    0.47
  -2 -11  -2    0.88    0.37
  -2 -11  -2    0.85    0.42
   2  11   2    1.46    0.56
   2  11   2    1.19    0.44
  -3 -11  -2    0.21    0.39
   3  11   2    0.01    0.53
   3  11   2    0.18    0.40
   3 -12  -2   -0.08    0.48
   2 -12  -2    0.04    0.48
  -1  12   2    0.36    0.45
   0  12   2   -0.08    0.43
  -1 -12  -2    0.78    0.44
   1  12   2    0.66    0.53
  -2 -12   3    0.97    0.46
  -1 -12   3    5.90    0.92
   1 -12   3    0.18    0.47
   2 -12   3   -0.01    0.48
   3  11  -3    0.16    0.41
  -3 -11   3    0.43    0.41
  -3 -11   3   -0.46    0.31
   2  11  -3    0.40    0.47
  -2 -11   3    0.17    0.36
  -2 -11   3   -0.47    0.30
   1  11  -3   -0.30    0.38
  -1 -11   3   -0.43    0.30
  -1 -11   3    0.20    0.33
   0  11  -3   -0.05    0.42
   0 -11   3   -0.06    0.30
   0 -11   3   -0.65    0.31
   0 -11   3   -0.15    0.42
  -1  11  -3    0.41    0.45
   1 -11   3    0.43    0.44
   1 -11   3   -0.03    0.30
  -2  11  -3   -0.35    0.41
   2 -11   3   -0.26    0.43
   2 -11   3   -0.42    0.28
  -3  11  -3   -0.34    0.42
   3 -11   3    0.34    0.50
   3 -11   3    0.04    0.32
  -4  11  -3   -0.47    0.43
   4 -11   3   -0.39    0.50
   5  10  -3   -0.48    0.37
   5  10  -3    0.57    0.41
  -5 -10   3   -0.40    0.31
   4  10  -3   -0.01    0.37
   4  10  -3    0.57    0.44
  -4 -10   3   -0.07    0.28
  -4 -10   3    0.02    0.40
   3  10  -3    0.06    0.40
  -3 -10   3   -0.31    0.27
  -3 -10   3   -0.24    0.33
   2  10  -3    0.75    0.39
  -2 -10   3    0.59    0.35
  -2 -10   3    0.39    0.30
   1  10  -3   -0.25    0.33
  -1 -10   3   -0.52    0.24
  -1 -10   3    0.03    0.29
  -1 -10   3   -0.32    0.30
   0  10  -3   -0.23    0.35
   0 -10   3   -0.30    0.32
   0 -10   3   -0.15    0.25
  -1  10  -3   -0.29    0.21
  -1  10  -3   -0.31    0.36
   1 -10   3    0.37    0.40
   1 -10   3    0.07    0.26
   1 -10   3    0.02    0.29
  -2  10  -3   -0.36    0.23
  -2  10  -3    0.62    0.42
   2 -10   3    0.10    0.28
   2 -10   3    0.88    0.47
  -3  10  -3    0.80    0.44
  -3  10  -3    0.06    0.29
   3 -10   3    0.25    0.30
   3 -10   3    0.64    0.48
  -4  10  -3    0.07    0.34
  -4  10  -3    0.54    0.44
   4 -10   3    0.90    0.52
  -5  10  -3   -0.34    0.30
   5 -10   3    0.12    0.50
  -6  10  -3   -0.04    0.39
   6   9  -3    0.13    0.35
   6   9  -3   -0.18    0.47
   5   9  -3   -0.06    0.38
   5   9  -3    0.21    0.37
  -5  -9   3   -0.18    0.23
  -5  -9   3    0.15    0.38
   4   9  -3    0.03    0.36
   4   9  -3   -0.38    0.35
  -4  -9   3    0.15    0.35
  -4  -9   3   -0.18    0.25
   3   9  -3    0.13    0.30
   3   9  -3    0.40    0.35
  -3  -9   3    0.11    0.25
  -3  -9   3    0.62    0.38
   2   9  -3    1.04    0.41
  -2  -9   3    0.91    0.37
  -2  -9   3    0.56    0.28
  -2  -9   3    0.86    0.34
   1   9  -3    0.26    0.34
  -1  -9   3    0.01    0.25
  -1  -9   3    0.25    0.28
  -1  -9   3    0.20    0.32
   0   9  -3    3.23    0.45
   0   9  -3    3.24    0.51
   0  -9   3    2.91    0.51
   0  -9   3    3.57    0.61
  -1   9  -3   11.18    0.75
  -1   9  -3   11.67    0.72
   1  -9   3   12.43    0.90
   1  -9   3   12.19    1.01
   1  -9   3   11.87    0.84
  -2   9  -3    2.84    0.49
  -2   9  -3    2.57    0.36
   2  -9   3    3.47    0.57
   2  -9   3    2.11    0.38
   2  -9   3    2.89    0.51
  -3   9  -3   -0.19    0.24
  -3   9  -3    0.07    0.34
   3  -9   3    0.24    0.27
   3  -9   3    0.21    0.41
  -4   9  -3    0.79    0.34
  -4   9  -3    1.04    0.41
   4  -9   3    1.25    0.51
  -5   9  -3    0.40    0.40
  -5   9  -3    0.31    0.38
   5  -9   3    0.95    0.52
  -6   9  -3    0.29    0.39
   6  -9   3    0.79    0.55
  -7   9  -3    0.38    0.42
   7   8  -3   -0.43    0.48
   6   8  -3    1.31    0.37
   6   8  -3    0.87    0.45
  -6  -8   3    0.69    0.44
  -6  -8   3    0.39    0.27
   5   8  -3    0.81    0.40
   5   8  -3    1.28    0.39
  -5  -8   3    0.99    0.45
  -5  -8   3    0.68    0.28
   4   8  -3   -0.01    0.31
   4   8  -3    0.07    0.30
  -4  -8   3   -0.07    0.23
  -4  -8   3   -0.05    0.34
   3   8  -3    1.31    0.39
  -3  -8   3    0.98    0.32
  -3  -8   3    0.79    0.39
  -3  -8   3    0.63    0.28
   2   8  -3    5.46    0.65
  -2  -8   3    4.78    0.75
  -2  -8   3    4.88    0.55
  -2  -8   3    5.69    0.73
   1   8  -3    0.74    0.21
   1   8  -3    0.76    0.36
  -1  -8   3    1.06    0.35
  -1  -8   3    0.75    0.35
  -1  -8   3    0.27    0.26
   0   8  -3    0.92    0.34
   0   8  -3    0.34    0.20
   0  -8   3    0.07    0.25
   0  -8   3    0.44    0.28
   0  -8   3    0.85    0.36
  -1   8  -3   19.44    0.95
  -1   8  -3   18.57    0.86
   1  -8   3   20.50    1.02
   1  -8   3   18.85    1.09
   1  -8   3   18.76    0.99
  -2   8  -3   10.99    0.75
  -2   8  -3    9.38    0.69
   2  -8   3    9.08    0.89
   2  -8   3   10.80    0.82
   2  -8   3    9.00    0.65
  -3   8  -3   11.67    0.78
  -3   8  -3   10.24    0.77
   3  -8   3   10.97    0.77
   3  -8   3    9.02    0.65
  -4   8  -3    1.12    0.38
  -4   8  -3    1.58    0.40
   4  -8   3    2.12    0.51
  -5   8  -3    1.33    0.39
  -5   8  -3    1.93    0.43
   5  -8   3    2.25    0.53
  -6   8  -3    0.14    0.35
   6  -8   3    0.73    0.48
  -7   8  -3    0.16    0.37
   7  -8   3    0.35    0.54
   7   7  -3   -0.11    0.46
  -7  -7   3    0.27    0.45
   6   7  -3    1.24    0.34
   6   7  -3    0.77    0.43
  -6  -7   3    0.13    0.23
  -6  -7   3    0.56    0.41
   5   7  -3    1.85    0.43
   5   7  -3    2.19    0.40
  -5  -7   3    0.98    0.26
  -5  -7   3    1.13    0.44
   4   7  -3    0.73    0.29
  -4  -7   3    0.35    0.36
  -4  -7   3    0.05    0.20
   3   7  -3   51.29    1.57
  -3  -7   3   51.04    2.09
  -3  -7   3   50.72    1.84
  -3  -7   3   47.17    1.56
   2   7  -3    0.52    0.28
  -2  -7   3    0.45    0.31
  -2  -7   3    0.57    0.29
  -2  -7   3    0.33    0.23
   1   7  -3   26.75    1.03
   1   7  -3   28.07    1.01
   1   7  -3   25.39    0.63
  -1  -7   3   27.29    1.24
  -1  -7   3   26.85    1.28
  -1  -7   3   27.16    1.08
   0   7  -3   26.20    0.97
   0   7  -3   23.87    0.72
   0   7  -3   26.24    1.01
   0  -7   3   25.44    1.05
   0  -7   3   25.56    1.20
   0  -7   3   25.66    1.19
  -1   7  -3    0.29    0.28
  -1   7  -3    0.22    0.20
   1  -7   3    0.17    0.30
   1  -7   3    0.13    0.20
   1  -7   3    0.17    0.20
  -2   7  -3   17.31    0.82
  -2   7  -3   18.06    0.86
   2  -7   3   16.80    0.82
   2  -7   3   18.27    0.92
   2  -7   3   17.66    1.02
  -3   7  -3   35.72    1.28
  -3   7  -3   36.40    1.34
   3  -7   3   34.51    1.21
   3  -7   3   37.11    1.39
  -4   7  -3    3.92    0.61
  -4   7  -3    4.24    0.56
   4  -7   3    2.59    0.49
  -5   7  -3    1.26    0.37
  -5   7  -3    1.51    0.40
   5  -7   3    2.21    0.50
  -6   7  -3    2.45    0.48
   6  -7   3    2.88    0.55
  -7   7  -3    0.67    0.39
   7  -7   3    0.47    0.47
  -8   7  -3    0.32    0.46
   8  -7   3    0.75    0.49
   8   6  -3   -0.46    0.43
  -8  -6   3    0.08    0.43
   7   6  -3    0.65    0.44
   7   6  -3    0.73    0.27
  -7  -6   3    0.65    0.44
   6   6  -3   -0.30    0.36
   6   6  -3    0.12    0.26
  -6  -6   3   -0.02    0.37
  -6  -6   3   -0.02    0.18
   5   6  -3    0.23    0.26
   5   6  -3   -0.36    0.31
  -5  -6   3   -0.12    0.18
  -5  -6   3    0.01    0.33
   4   6  -3    1.94    0.35
  -4  -6   3    0.72    0.38
  -4  -6   3    1.03    0.23
  -4  -6   3    1.96    0.34
   3   6  -3   17.00    0.75
   3   6  -3   18.81    0.78
  -3  -6   3   18.18    0.95
  -3  -6   3   17.63    1.11
  -3  -6   3   17.61    0.77
   2   6  -3   10.10    0.59
  -2  -6   3    8.89    0.55
  -2  -6   3    8.80    0.66
  -2  -6   3    9.49    0.77
   1   6  -3    2.66    0.32
   1   6  -3    2.49    0.11
   1   6  -3    3.69    0.38
  -1  -6   3    2.68    0.46
  -1  -6   3    3.14    0.48
  -1  -6   3    2.53    0.35
   0   6  -3   11.86    0.42
   0   6  -3   12.55    0.60
   0   6  -3   13.35    0.62
   0  -6   3   12.87    0.67
   0  -6   3   13.12    0.73
   0  -6   3   13.11    0.77
  -1   6  -3   44.55    1.39
  -1   6  -3   42.68    1.35
   1  -6   3   43.29    1.41
   1  -6   3   43.80    1.57
   1  -6   3   44.22    1.52
  -2   6  -3    4.63    0.44
  -2   6  -3    4.16    0.44
   2  -6   3    4.50    0.56
   2  -6   3    4.88    0.48
   2  -6   3    4.38    0.42
  -3   6  -3    0.95    0.25
  -3   6  -3    0.88    0.29
   3  -6   3    0.63    0.15
   3  -6   3    0.64    0.32
  -4   6  -3   12.12    0.77
  -4   6  -3   10.29    0.65
   4  -6   3   10.76    0.75
  -5   6  -3    0.12    0.27
  -5   6  -3   -0.11    0.27
  -5   6  -3    0.29    0.26
   5  -6   3    0.39    0.34
  -6   6  -3   -0.06    0.31
  -6   6  -3   -0.52    0.31
   6  -6   3    0.16    0.34
  -7   6  -3    0.17    0.37
   7  -6   3    0.50    0.43
  -8   6  -3    1.11    0.45
   8  -6   3    0.65    0.43
   8  -6   3    1.28    0.46
   8   5  -3    0.33    0.45
  -8  -5   3    1.62    0.72
  -8  -5   3    0.79    0.49
   7   5  -3    0.11    0.40
   7   5  -3    0.51    0.25
  -7  -5   3    0.69    0.57
  -7  -5   3    0.23    0.39
   6   5  -3   -0.36    0.25
   6   5  -3   -0.02    0.23
  -6  -5   3   -0.20    0.15
  -6  -5   3   -0.50    0.32
   5   5  -3    0.08    0.22
   5   5  -3   -0.40    0.21
  -5  -5   3    0.03    0.15
  -5  -5   3   -0.50    0.28
   4   5  -3    9.05    0.54
   4   5  -3    8.26    0.49
  -4  -5   3    7.78    0.81
  -4  -5   3    8.73    0.63
  -4  -5   3    8.42    0.51
   3   5  -3   17.71    0.72
   3   5  -3   18.02    0.72
  -3  -5   3   19.20    0.87
  -3  -5   3   18.32    0.75
  -3  -5   3   18.84    1.04
   2   5  -3   20.96    0.77
   2   5  -3   21.54    0.81
  -2  -5   3   20.85    1.04
  -2  -5   3   21.95    0.81
  -2  -5   3   22.40    0.93
   1   5  -3   18.22    0.78
   1   5  -3   19.36    0.73
   1   5  -3   18.75    0.45
   1   5  -3   18.97    0.72
  -1  -5   3   19.68    0.84
  -1  -5   3   18.13    0.74
  -1  -5   3   19.48    0.92
   0   5  -3    2.83    0.30
   0   5  -3    2.47    0.30
   0  -5   3    2.87    0.36
   0  -5   3    2.95    0.39
   0  -5   3    2.59    0.28
  -1   5  -3    3.39    0.35
  -1   5  -3    3.53    0.33
  -1   5  -3    3.53    0.30
   1  -5   3    2.97    0.33
   1  -5   3    3.16    0.30
   1  -5   3    3.22    0.35
   1  -5   3    3.69    0.42
  -2   5  -3    8.80    0.54
  -2   5  -3    9.39    0.47
  -2   5  -3    8.59    0.46
   2  -5   3    9.53    0.50
   2  -5   3    8.67    0.47
   2  -5   3    9.40    0.54
  -3   5  -3   12.81    0.68
  -3   5  -3   12.93    0.61
  -3   5  -3   12.74    0.53
   3  -5   3   12.79    0.60
   3  -5   3   12.69    0.66
  -4   5  -3    1.74    0.29
  -4   5  -3    1.49    0.29
  -4   5  -3    1.77    0.32
   4  -5   3    1.72    0.27
   4  -5   3    1.41    0.33
  -5   5  -3    2.50    0.37
  -5   5  -3    3.31    0.44
  -5   5  -3    2.07    0.37
   5  -5   3    3.12    0.46
  -6   5  -3   -0.43    0.27
   6  -5   3   -0.18    0.31
  -7   5  -3    0.15    0.35
   7  -5   3    0.87    0.40
   7  -5   3    0.22    0.36
  -8   5  -3   -0.13    0.35
   8  -5   3   -0.05    0.39
   8  -5   3    0.41    0.37
   9  -5   3   -0.30    0.46
   9   4  -3    0.93    0.48
   9   4  -3    0.22    0.42
  -9  -4   3    1.22    0.52
   8   4  -3    0.61    0.43
  -8  -4   3    0.69    0.41
  -8  -4   3    1.38    0.65
   7   4  -3    0.06    0.22
   7   4  -3   -0.12    0.36
  -7  -4   3    0.08    0.39
  -7  -4   3    0.48    0.54
   6   4  -3   -0.62    0.30
   6   4  -3    0.18    0.22
  -6  -4   3    0.06    0.13
   5   4  -3    1.75    0.36
   5   4  -3    1.60    0.26
   5   4  -3    2.21    0.30
  -5  -4   3    1.13    0.19
  -5  -4   3    1.18    0.37
  -5  -4   3    1.91    0.29
   4   4  -3    8.01    0.44
   4   4  -3    7.95    0.44
  -4  -4   3    7.04    0.26
  -4  -4   3    8.32    0.46
  -4  -4   3    7.61    0.51
  -4  -4   3    7.52    0.72
   3   4  -3    3.90    0.34
   3   4  -3    4.08    0.32
  -3  -4   3    4.38    0.36
  -3  -4   3    3.94    0.39
  -3  -4   3    3.83    0.51
   2   4  -3   29.41    1.01
   2   4  -3   28.84    0.92
   2   4  -3   28.03    0.89
  -2  -4   3   28.58    1.18
  -2  -4   3   28.28    1.01
  -2  -4   3   29.29    0.94
   1   4  -3   30.16    0.93
   1   4  -3   30.63    0.70
   1   4  -3   30.79    1.05
   1   4  -3   31.03    0.97
   1   4  -3   31.51    0.99
  -1  -4   3   31.35    1.08
  -1  -4   3   30.50    1.17
  -1  -4   3   30.46    0.97
  -1  -4   3   30.97    0.98
   0   4  -3   19.74    0.81
   0   4  -3   20.52    0.72
   0   4  -3   20.36    0.73
   0   4  -3   20.26    0.70
   0  -4   3   19.69    0.82
   0  -4   3   19.76    0.70
   0  -4   3   19.82    0.80
   0  -4   3   19.44    0.73
  -1   4  -3    4.64    0.34
  -1   4  -3    4.47    0.33
  -1   4  -3    4.95    0.36
   1  -4   3    4.44    0.33
   1  -4   3    4.66    0.37
   1  -4   3    4.71    0.30
   1  -4   3    4.62    0.40
   1  -4   3    4.61    0.29
  -2   4  -3   45.73    1.30
  -2   4  -3   46.87    1.41
  -2   4  -3   45.89    1.41
   2  -4   3   46.18    1.39
   2  -4   3   44.47    1.34
   2  -4   3   46.81    1.42
   2  -4   3   45.27    1.29
  -3   4  -3   15.44    0.62
  -3   4  -3   15.95    0.62
  -3   4  -3   15.54    0.73
  -3   4  -3   15.25    0.58
   3  -4   3   15.32    0.61
   3  -4   3   15.25    0.61
   3  -4   3   15.17    0.66
  -4   4  -3    8.21    0.37
  -4   4  -3    8.50    0.49
  -4   4  -3    8.54    0.49
  -4   4  -3    9.84    0.64
   4  -4   3    8.27    0.46
   4  -4   3    8.04    0.52
   4  -4   3    8.22    0.46
  -5   4  -3   -0.05    0.07
  -5   4  -3   -0.17    0.18
  -5   4  -3   -0.07    0.23
  -5   4  -3   -0.37    0.23
   5  -4   3   -0.27    0.16
   5  -4   3   -0.44    0.24
  -6   4  -3    0.91    0.33
  -6   4  -3    1.26    0.36
   6  -4   3    0.70    0.30
  -7   4  -3    0.33    0.41
  -7   4  -3    0.68    0.37
   7  -4   3    1.26    0.39
  -8   4  -3    0.46    0.38
   8  -4   3   -0.20    0.35
   8  -4   3    0.06    0.29
   9  -4   3   -0.30    0.44
   9   3  -3    1.03    0.47
   9   3  -3    0.56    0.40
  -9  -3   3    1.03    0.45
  -9  -3   3    1.29    0.71
   8   3  -3   -0.22    0.38
  -8  -3   3    0.12    0.38
  -8  -3   3    0.28    0.57
   7   3  -3   -0.37    0.34
   7   3  -3   -0.10    0.20
  -7  -3   3    0.07    0.33
  -7  -3   3   -0.09    0.49
   6   3  -3    2.88    0.37
   6   3  -3    2.16    0.43
  -6  -3   3    2.34    0.36
  -6  -3   3    1.43    0.38
  -6  -3   3    2.45    0.58
   5   3  -3   14.25    0.59
   5   3  -3   13.05    0.56
   5   3  -3   13.28    0.68
  -5  -3   3   12.85    0.54
  -5  -3   3   12.44    0.49
  -5  -3   3   12.95    0.61
  -5  -3   3   13.51    0.89
   4   3  -3    8.44    0.43
   4   3  -3    8.00    0.42
  -4  -3   3    7.95    0.32
  -4  -3   3    8.30    0.46
  -4  -3   3    8.47    0.64
  -4  -3   3    8.00    0.43
   3   3  -3    6.92    0.36
   3   3  -3    6.15    0.36
   3   3  -3    5.93    0.35
  -3  -3   3    6.32    0.37
  -3  -3   3    6.56    0.54
  -3  -3   3    6.66    0.22
  -3  -3   3    6.86    0.39
   2   3  -3   19.55    0.66
   2   3  -3   19.82    0.67
   2   3  -3   19.91    0.70
   2   3  -3   18.88    0.65
  -2  -3   3   18.97    0.67
  -2  -3   3   19.51    0.70
  -2  -3   3   20.05    0.88
  -2  -3   3   18.69    0.69
   1   3  -3   27.56    0.85
   1   3  -3   27.28    0.89
   1   3  -3   26.58    0.82
   1   3  -3   27.49    0.88
   1   3  -3   27.95    1.02
   1   3  -3   27.14    0.64
   1   3  -3   27.16    0.83
  -1  -3   3   26.92    0.86
  -1  -3   3   27.16    1.02
  -1  -3   3   26.81    0.85
  -1  -3   3   26.23    0.80
  -1  -3   3   28.00    0.91
   0   3  -3  117.95    2.84
   0   3  -3  114.90    3.28
   0   3  -3  117.36    2.80
   0   3  -3  117.11    3.09
   0   3  -3  120.02    3.01
   0  -3   3  116.43    3.10
   0  -3   3  115.68    2.79
   0  -3   3  116.14    2.84
   0  -3   3  115.80    3.29
   0  -3   3  118.06    3.00
  -1   3  -3   19.74    0.74
  -1   3  -3   18.36    0.68
  -1   3  -3   19.36    0.64
  -1   3  -3   18.50    0.65
  -1   3  -3   18.90    0.71
   1  -3   3   19.23    0.72
   1  -3   3   18.83    0.62
   1  -3   3   18.70    0.68
   1  -3   3   18.92    0.62
   1  -3   3   19.01    0.66
  -2   3  -3   36.78    1.06
  -2   3  -3   37.56    1.17
  -2   3  -3   38.23    1.19
   2  -3   3   37.83    1.11
   2  -3   3   37.36    1.10
   2  -3   3   37.84    1.06
   2  -3   3   38.11    1.17
  -3   3  -3    5.95    0.35
  -3   3  -3    6.04    0.34
  -3   3  -3    6.53    0.37
  -3   3  -3    6.36    0.46
   3  -3   3    5.83    0.32
   3  -3   3    6.28    0.38
   3  -3   3    6.36    0.35
  -4   3  -3    1.02    0.21
  -4   3  -3    1.49    0.23
  -4   3  -3    1.20    0.23
   4  -3   3    1.47    0.22
   4  -3   3    1.60    0.25
  -5   3  -3    9.61    0.46
  -5   3  -3   10.10    0.70
  -5   3  -3    9.96    0.59
  -5   3  -3    8.27    0.45
   5  -3   3   10.26    0.56
   5  -3   3    8.77    0.47
  -6   3  -3   -0.10    0.26
  -6   3  -3   -0.25    0.27
   6  -3   3   -0.40    0.23
   6  -3   3   -0.26    0.24
  -7   3  -3    0.05    0.31
  -7   3  -3   -0.52    0.32
   7  -3   3   -0.07    0.25
   7  -3   3    0.25    0.28
   7  -3   3   -0.14    0.29
  -8   3  -3    1.57    0.43
   8  -3   3    1.35    0.28
   8  -3   3    1.20    0.42
  -9   3  -3    0.16    0.40
   9  -3   3    0.07    0.39
   9   2  -3    0.63    0.48
  -9  -2   3    0.34    0.63
  -9  -2   3    0.31    0.40
   8   2  -3    0.35    0.31
   8   2  -3    0.08    0.38
  -8  -2   3    0.45    0.57
  -8  -2   3    0.11    0.31
   7   2  -3   -0.18    0.34
   7   2  -3   -0.01    0.19
  -7  -2   3   -0.06    0.44
  -7  -2   3   -0.29    0.29
  -7  -2   3    0.08    0.21
   6   2  -3    1.95    0.27
   6   2  -3    1.62    0.38
  -6  -2   3    1.68    0.36
  -6  -2   3    1.89    0.28
  -6  -2   3    1.43    0.51
   5   2  -3    0.23    0.18
   5   2  -3    0.28    0.16
   5   2  -3    0.51    0.26
  -5  -2   3    0.30    0.13
  -5  -2   3   -0.05    0.31
  -5  -2   3    0.28    0.17
  -5  -2   3    0.38    0.19
  -5  -2   3    0.21    0.09
  -5  -2   3    0.30    0.22
   4   2  -3    2.04    0.26
   4   2  -3    2.42    0.29
  -4  -2   3    2.10    0.25
  -4  -2   3    2.37    0.27
  -4  -2   3    2.35    0.42
  -4  -2   3    2.31    0.22
  -4  -2   3    1.71    0.38
  -4  -2   3    1.81    0.26
   3   2  -3    1.01    0.18
   3   2  -3    1.06    0.18
   3   2  -3    1.19    0.16
  -3  -2   3    1.42    0.15
  -3  -2   3    1.07    0.19
  -3  -2   3    0.60    0.19
  -3  -2   3    1.05    0.17
   2   2  -3  112.03    3.21
   2   2  -3  109.38    2.65
   2   2  -3  113.66    2.86
   2   2  -3  111.14    2.68
  -2  -2   3  106.17    2.73
  -2  -2   3  110.76    2.68
  -2  -2   3  111.45    3.21
  -2  -2   3  114.25    2.65
  -2  -2   3  114.92    2.86
  -2  -2   3  113.09    2.50
   1   2  -3   19.11    0.75
   1   2  -3   19.67    0.66
   1   2  -3   19.57    0.64
   1   2  -3   18.90    0.61
   1   2  -3   19.72    0.62
   1   2  -3   19.91    0.50
   1   2  -3   19.14    0.62
  -1  -2   3   19.63    0.64
  -1  -2   3   19.12    0.60
  -1  -2   3   19.98    0.77
  -1  -2   3   19.63    0.65
  -1  -2   3   19.22    0.63
   0   2  -3  266.44    7.09
   0   2  -3  266.51    6.65
   0   2  -3  263.54    6.24
   0   2  -3  255.53    5.95
   0   2  -3  270.92    6.09
   0   2  -3  269.35    6.07
   0   2  -3  269.80    6.98
   0  -2   3  272.40    7.25
   0  -2   3  270.75    6.06
   0  -2   3  267.19    6.53
   0  -2   3  267.88    6.10
  -1   2  -3   55.12    1.59
  -1   2  -3   53.05    1.38
  -1   2  -3   53.14    1.36
  -1   2  -3   53.79    1.49
  -1   2  -3   52.76    1.54
   1  -2   3   52.37    1.39
   1  -2   3   53.54    1.58
   1  -2   3   53.87    1.44
   1  -2   3   55.29    1.50
   1  -2   3   53.16    1.36
  -2   2  -3    0.04    0.11
  -2   2  -3   -0.03    0.10
  -2   2  -3   -0.04    0.11
  -2   2  -3    0.06    0.09
  -2   2  -3    0.15    0.07
   2  -2   3   -0.08    0.12
   2  -2   3   -0.02    0.10
   2  -2   3    0.01    0.09
  -3   2  -3  164.25    4.25
  -3   2  -3  169.36    4.42
  -3   2  -3  164.32    4.43
  -3   2  -3  166.56    3.81
   3  -2   3  162.09    3.82
   3  -2   3  160.94    3.85
  -4   2  -3    0.20    0.13
  -4   2  -3    0.11    0.16
  -4   2  -3   -0.09    0.16
  -4   2  -3    0.05    0.12
   4  -2   3    0.15    0.15
   4  -2   3    0.15    0.13
  -5   2  -3   26.28    1.10
  -5   2  -3   26.33    0.78
  -5   2  -3   28.14    1.05
   5  -2   3   28.57    0.87
   5  -2   3   27.70    0.95
   5  -2   3   25.41    0.81
   5  -2   3   28.41    0.95
  -6   2  -3    7.17    0.71
  -6   2  -3    8.46    0.63
   6  -2   3    7.69    0.47
   6  -2   3    7.68    0.57
   6  -2   3    7.09    0.58
  -7   2  -3    1.11    0.37
  -7   2  -3    1.46    0.43
   7  -2   3    1.24    0.39
   7  -2   3    1.08    0.23
   7  -2   3    0.98    0.35
  -8   2  -3    0.49    0.41
  -8   2  -3    0.57    0.45
   8  -2   3    0.47    0.36
   8  -2   3    0.71    0.43
  -9   2  -3    1.62    0.49
   9  -2   3    1.10    0.50
   9  -2   3    1.52    0.49
  10   1  -3    0.04    0.47
   9   1  -3    0.14    0.34
  -9  -1   3   -0.07    0.63
  -8  -1   3   -0.19    0.28
  -8  -1   3    0.16    0.54
   7   1  -3    0.03    0.26
   7   1  -3    0.40    0.22
  -7  -1   3    0.60    0.25
  -7  -1   3   -0.04    0.27
  -7  -1   3    0.05    0.44
   6   1  -3    0.11    0.21
   6   1  -3    0.22    0.18
   6   1  -3   -0.08    0.27
  -6  -1   3   -0.07    0.22
  -6  -1   3    0.00    0.16
  -6  -1   3   -0.76    0.36
  -6  -1   3    0.20    0.20
  -6  -1   3    0.03    0.09
   5   1  -3    0.13    0.23
   5   1  -3    0.10    0.17
   5   1  -3    0.40    0.17
  -5  -1   3    0.32    0.16
  -5  -1   3    0.07    0.19
  -5  -1   3    0.09    0.07
  -5  -1   3   -0.08    0.28
   4   1  -3    4.05    0.33
   4   1  -3    3.25    0.33
  -4  -1   3    3.61    0.33
  -4  -1   3    4.43    0.45
  -4  -1   3    4.32    0.24
  -4  -1   3    3.97    0.53
  -4  -1   3    4.34    0.30
   3   1  -3    1.60    0.26
   3   1  -3    1.78    0.21
   3   1  -3    1.35    0.20
  -3  -1   3    1.80    0.18
  -3  -1   3    0.97    0.19
  -3  -1   3    1.45    0.17
  -3  -1   3    1.41    0.21
  -3  -1   3    1.65    0.13
  -3  -1   3    1.41    0.28
   2   1  -3    0.34    0.12
   2   1  -3    0.34    0.08
   2   1  -3    0.27    0.13
   2   1  -3    0.26    0.04
  -2  -1   3    0.31    0.05
  -2  -1   3    0.44    0.13
  -2  -1   3    0.24    0.16
  -2  -1   3    0.42    0.12
  -2  -1   3    0.36    0.07
  -2  -1   3    0.34    0.10
  -2  -1   3    0.60    0.13
  -2  -1   3    0.29    0.13
   1   1  -3    1.94    0.18
   1   1  -3    1.91    0.13
   1   1  -3    1.84    0.21
   1   1  -3    1.97    0.15
   1   1  -3    1.46    0.18
   1   1  -3    1.49    0.14
  -1  -1   3    1.44    0.16
  -1  -1   3    1.42    0.18
  -1  -1   3    1.41    0.18
  -1  -1   3    1.83    0.12
  -1  -1   3    1.78    0.23
  -1  -1   3    1.71    0.15
  -1  -1   3    2.00    0.18
   0   1  -3    2.12    0.16
   0   1  -3    2.56    0.19
   0   1  -3    2.34    0.22
   0   1  -3    2.05    0.15
   0   1  -3    2.03    0.14
   0   1  -3    2.11    0.18
   0  -1   3    2.34    0.15
   0  -1   3    2.28    0.16
   0  -1   3    1.91    0.18
   0  -1   3    2.30    0.17
   0  -1   3    2.07    0.13
   0  -1   3    2.63    0.22
  -1   1  -3   18.40    0.65
  -1   1  -3   17.31    0.54
  -1   1  -3   17.78    0.59
  -1   1  -3   17.39    0.52
  -1   1  -3   17.09    0.52
   1  -1   3   17.00    0.58
   1  -1   3   17.58    0.52
   1  -1   3   17.56    0.55
  -2   1  -3   93.10    2.21
  -2   1  -3   94.16    2.23
  -2   1  -3   96.51    2.63
  -2   1  -3   93.53    2.48
  -2   1  -3   94.85    2.52
   2  -1   3   93.52    2.48
   2  -1   3   94.10    2.24
   2  -1   3   93.04    2.21
  -3   1  -3   35.26    1.15
  -3   1  -3   34.86    1.11
  -3   1  -3   36.00    0.94
  -3   1  -3   35.94    0.93
   3  -1   3   36.37    1.00
   3  -1   3   35.70    0.93
   3  -1   3   36.18    0.96
   3  -1   3   34.52    0.97
  -4   1  -3    4.83    0.23
  -4   1  -3    4.74    0.24
  -4   1  -3    5.02    0.40
  -4   1  -3    4.41    0.43
   4  -1   3    4.90    0.37
   4  -1   3    4.85    0.38
   4  -1   3    5.14    0.29
  -5   1  -3    0.14    0.20
  -5   1  -3    0.17    0.09
  -5   1  -3   -0.28    0.22
   5  -1   3   -0.04    0.13
   5  -1   3    0.02    0.21
   5  -1   3    0.27    0.23
   5  -1   3   -0.01    0.10
  -6   1  -3    0.39    0.29
  -6   1  -3   -0.14    0.25
   6  -1   3    0.32    0.29
   6  -1   3    0.09    0.12
   6  -1   3   -0.34    0.24
   6  -1   3    0.18    0.14
  -7   1  -3    0.51    0.34
  -7   1  -3    1.34    0.44
   7  -1   3    0.70    0.37
   7  -1   3    0.84    0.34
  -8   1  -3   -0.06    0.34
  -8   1  -3    0.28    0.42
   8  -1   3   -0.18    0.31
   8  -1   3    0.07    0.39
  -9   1  -3    2.57    0.55
   9  -1   3    2.14    0.50
   9  -1   3    1.59    0.44
  10   0  -3    0.12    0.44
   9   0  -3   -0.19    0.41
  -9   0   3   -0.28    0.57
   8   0  -3   -0.32    0.36
   8   0  -3   -0.18    0.24
  -8   0   3   -0.22    0.26
  -8   0   3   -0.29    0.49
   7   0  -3    1.73    0.41
   7   0  -3    2.34    0.31
  -7   0   3    1.17    0.31
  -7   0   3    1.67    0.54
   6   0  -3   10.27    0.46
   6   0  -3   10.95    0.60
   6   0  -3   11.68    0.54
   6   0  -3   13.51    0.61
  -6   0   3   11.89    0.52
  -6   0   3   11.65    0.46
  -6   0   3   11.67    0.77
  -6   0   3   10.77    0.92
   5   0  -3    1.16    0.26
   5   0  -3    0.84    0.14
   5   0  -3    1.34    0.24
   5   0  -3    1.29    0.22
  -5   0   3    1.14    0.21
  -5   0   3    1.28    0.16
  -5   0   3    0.70    0.22
  -5   0   3    1.11    0.31
   4   0  -3   79.48    2.01
   4   0  -3   79.81    2.40
   4   0  -3   77.87    2.01
   4   0  -3   77.41    1.72
  -4   0   3   85.41    2.02
  -4   0   3   79.33    2.02
  -4   0   3   79.73    2.55
  -4   0   3   78.52    1.98
  -4   0   3   84.50    2.43
  -4   0   3   78.43    1.98
   3   0  -3    4.10    0.28
   3   0  -3    3.77    0.32
   3   0  -3    3.81    0.28
   3   0  -3    4.38    0.35
  -3   0   3    3.57    0.39
  -3   0   3    3.72    0.30
  -3   0   3    3.99    0.25
  -3   0   3    4.59    0.35
  -3   0   3    3.99    0.25
   2   0  -3   93.36    2.19
   2   0  -3   93.27    2.26
   2   0  -3   91.75    2.25
   2   0  -3   97.99    2.66
   2   0  -3   92.61    2.68
  -2   0   3   92.48    2.26
  -2   0   3   94.95    2.18
  -2   0   3   93.81    2.65
  -2   0   3   91.05    2.23
  -2   0   3   93.72    2.69
   1   0  -3  121.05    2.85
   1   0  -3  122.03    3.33
   1   0  -3  122.74    3.34
   1   0  -3  123.84    2.77
   1   0  -3  119.18    2.85
  -1   0   3  122.58    3.34
  -1   0   3  123.12    2.87
  -1   0   3  124.74    3.05
  -1   0   3  118.49    3.33
  -1   0   3  122.36    2.77
  -1   0   3  119.67    2.83
   0   0  -3   12.35    0.42
   0   0  -3   13.43    0.44
   0   0  -3   13.24    0.42
   0   0  -3   13.46    0.45
   0   0  -3   13.50    0.45
   0   0  -3   14.19    0.53
   0   0   3   12.83    0.42
   0   0   3   14.24    0.54
   0   0   3   13.21    0.43
   0   0   3   12.95    0.42
   0   0   3   13.96    0.45
   0   0   3   13.72    0.45
   0   0   3   13.50    0.45
  -1   0  -3   68.36    1.64
  -1   0  -3   68.24    1.78
  -1   0  -3   69.40    1.84
  -1   0  -3   66.70    1.65
  -1   0  -3   68.77    1.66
  -1   0  -3   67.66    1.63
   1   0   3   67.77    1.78
   1   0   3   68.16    1.65
   1   0   3   67.79    1.62
   1   0   3   66.28    1.65
   1   0   3   70.93    1.54
  -2   0  -3   87.95    2.29
  -2   0  -3   85.97    2.07
  -2   0  -3   85.59    2.02
  -2   0  -3   87.52    2.04
   2   0   3   85.26    2.05
   2   0   3   89.25    1.98
   2   0   3   87.12    2.03
  -3   0  -3   12.34    0.56
  -3   0  -3   12.37    0.37
  -3   0  -3   12.65    0.38
   3   0   3   12.02    0.50
   3   0   3   12.47    0.40
   3   0   3   11.77    0.49
  -4   0  -3    2.69    0.13
  -4   0  -3    2.56    0.35
   4   0   3    2.48    0.16
   4   0   3    2.47    0.31
   4   0   3    2.77    0.18
   4   0   3    2.77    0.32
  -5   0  -3    0.72    0.23
  -5   0  -3    1.10    0.30
   5   0   3    0.78    0.26
   5   0   3    1.20    0.25
   5   0   3    0.92    0.11
   5   0   3    1.00    0.11
  -6   0  -3    4.28    0.59
   6   0   3    2.92    0.41
   6   0   3    3.21    0.40
  -7   0  -3    0.27    0.35
  -7   0  -3   -0.17    0.29
   7   0   3   -0.01    0.36
   7   0   3   -0.01    0.29
  -8   0  -3    0.72    0.37
  -8   0  -3    1.50    0.51
   8   0   3    1.17    0.42
   8   0   3    1.05    0.43
  -9   0  -3    0.07    0.35
   9   0   3   -0.30    0.36
   9   0   3    0.12    0.34
  10  -1  -3    0.04    0.45
   9  -1  -3    0.17    0.28
   9  -1  -3    0.08    0.42
  -9   1   3   -0.13    0.54
   8  -1  -3    0.08    0.37
   8  -1  -3    0.14    0.27
  -8   1   3    0.34    0.53
   7  -1  -3    0.27    0.24
   7  -1  -3    0.20    0.17
  -7   1   3   -0.16    0.20
  -7   1   3    0.03    0.44
   6  -1  -3   38.79    1.16
   6  -1  -3   32.96    0.92
   6  -1  -3   34.49    1.12
   6  -1  -3   38.16    1.18
  -6   1   3   37.18    1.60
  -6   1   3   36.37    1.35
  -6   1   3   32.43    1.04
  -6   1   3   34.73    1.08
   5  -1  -3    0.22    0.21
   5  -1  -3    0.14    0.19
   5  -1  -3    0.41    0.21
   5  -1  -3    0.20    0.13
   5  -1  -3    0.06    0.10
  -5   1   3    0.09    0.06
  -5   1   3    0.24    0.19
  -5   1   3    0.19    0.15
  -5   1   3    0.16    0.30
   4  -1  -3  192.09    4.46
   4  -1  -3  186.31    4.45
   4  -1  -3  189.71    5.17
   4  -1  -3  183.65    3.89
  -4   1   3  191.27    4.44
  -4   1   3  194.76    5.17
  -4   1   3  186.73    4.64
  -4   1   3  192.52    5.39
   3  -1  -3   31.26    1.05
   3  -1  -3   31.54    0.93
   3  -1  -3   31.32    0.94
  -3   1   3   32.75    0.92
  -3   1   3   30.69    0.80
  -3   1   3   31.38    0.92
  -3   1   3   31.83    0.94
  -3   1   3   31.79    1.06
  -3   1   3   31.09    1.16
   2  -1  -3   99.44    2.47
   2  -1  -3   98.42    2.41
   2  -1  -3   97.81    2.40
   2  -1  -3   99.53    2.85
   2  -1  -3  100.04    2.36
   2  -1  -3  103.69    2.79
  -2   1   3   98.49    2.41
  -2   1   3  101.99    2.35
  -2   1   3   99.31    2.39
  -2   1   3   98.87    2.85
  -2   1   3   97.06    2.76
   1  -1  -3  216.86    5.00
   1  -1  -3  218.33    4.91
   1  -1  -3  223.96    5.82
   1  -1  -3  217.37    5.00
   1  -1  -3  215.28    5.55
   1  -1  -3  222.13    5.87
  -1   1   3  215.47    5.32
  -1   1   3  215.94    5.80
  -1   1   3  215.69    5.86
  -1   1   3  218.82    4.99
  -1   1   3  217.42    5.01
  -1   1   3  223.38    4.44
  -1   1   3  224.77    4.91
   0  -1  -3   97.40    2.31
   0  -1  -3   98.75    2.72
   0  -1  -3  100.39    2.35
   0  -1  -3  105.23    2.47
   0  -1  -3   93.79    2.34
   0   1   3  100.92    2.72
   0   1   3  101.17    2.11
   0   1   3   93.94    2.30
   0   1   3  100.51    2.46
   0   1   3   99.93    2.36
   0   1   3   99.07    2.34
  -1  -1  -3  162.15    3.67
  -1  -1  -3  158.44    3.66
  -1  -1  -3  157.62    3.93
  -1  -1  -3  161.51    4.30
  -1  -1  -3  158.65    3.66
   1   1   3  161.46    3.94
   1   1   3  161.23    3.66
   1   1   3  162.69    3.39
   1   1   3  155.87    3.67
   1   1   3  163.06    3.67
  -2  -1  -3  188.80    4.25
  -2  -1  -3  191.97    4.25
  -2  -1  -3  191.92    4.67
  -2  -1  -3  198.75    4.34
   2   1   3  185.52    3.99
   2   1   3  196.14    4.03
   2   1   3  191.01    4.27
   2   1   3  163.11    4.23
  -3  -1  -3    5.05    0.18
  -3  -1  -3    5.06    0.36
  -3  -1  -3    5.01    0.18
   3   1   3    5.21    0.34
   3   1   3    5.09    0.20
   3   1   3    5.09    0.33
   3   1   3    4.59    0.21
  -4  -1  -3    2.18    0.31
   4   1   3    1.61    0.26
   4   1   3    2.10    0.29
  -5  -1  -3    9.91    0.67
   5   1   3   12.43    0.63
   5   1   3   11.40    0.57
  -6  -1  -3   12.82    0.83
  -6  -1  -3   11.54    0.79
   6   1   3   11.17    0.64
   6   1   3   12.18    0.70
  -7  -1  -3    1.08    0.42
  -7  -1  -3    0.81    0.34
   7   1   3    0.60    0.33
   7   1   3    1.08    0.40
  -8  -1  -3    1.17    0.51
  -8  -1  -3    0.98    0.35
  -8  -1  -3    0.98    0.39
   8   1   3    1.09    0.40
   8   1   3    0.55    0.42
  -9  -1  -3    0.29    0.38
   9   1   3    0.09    0.43
   9   1   3   -0.20    0.38
  10  -2  -3    0.02    0.45
   9  -2  -3    0.05    0.45
   9  -2  -3    0.84    0.34
  -9   2   3    0.59    0.61
   8  -2  -3    0.86    0.34
   8  -2  -3    0.54    0.39
  -8   2   3    0.19    0.52
   7  -2  -3   -0.08    0.27
   7  -2  -3    0.01    0.29
  -7   2   3   -0.22    0.19
  -7   2   3    0.31    0.47
   6  -2  -3   25.24    0.94
   6  -2  -3   26.25    0.93
   6  -2  -3   22.94    0.73
  -6   2   3   26.86    1.33
  -6   2   3   25.75    1.00
  -6   2   3   26.69    0.92
   5  -2  -3    0.06    0.11
   5  -2  -3    0.19    0.19
   5  -2  -3    0.12    0.11
   5  -2  -3   -0.03    0.18
  -5   2   3    0.10    0.30
  -5   2   3    0.07    0.14
  -5   2   3    0.07    0.20
  -5   2   3    0.00    0.06
   4  -2  -3   17.88    0.52
   4  -2  -3   18.52    0.75
   4  -2  -3   18.55    0.65
   4  -2  -3   19.11    0.73
   4  -2  -3   20.41    0.75
  -4   2   3   19.64    0.75
  -4   2   3   18.71    0.62
  -4   2   3   18.07    0.89
  -4   2   3   21.53    0.77
   3  -2  -3  191.71    4.57
   3  -2  -3  200.91    5.23
   3  -2  -3  192.83    4.56
   3  -2  -3  197.79    4.84
  -3   2   3  189.27    5.40
  -3   2   3  191.72    5.20
  -3   2   3  195.05    4.56
  -3   2   3  198.65    4.83
   2  -2  -3    3.27    0.21
   2  -2  -3    3.55    0.26
   2  -2  -3    3.51    0.31
   2  -2  -3    3.60    0.29
   2  -2  -3    3.10    0.28
   2  -2  -3    3.40    0.27
  -2   2   3    3.47    0.22
  -2   2   3    3.21    0.24
  -2   2   3    3.31    0.26
  -2   2   3    3.32    0.30
  -2   2   3    3.71    0.35
   1  -2  -3   21.01    0.67
   1  -2  -3   21.17    0.69
   1  -2  -3   21.88    0.66
   1  -2  -3   21.38    0.68
   1  -2  -3   20.95    0.78
   1  -2  -3   21.58    0.75
  -1   2   3   21.07    0.78
  -1   2   3   20.81    0.67
  -1   2   3   21.05    0.67
  -1   2   3   21.34    0.64
   0  -2  -3  313.01    8.05
   0  -2  -3  299.29    6.84
   0  -2  -3  302.82    7.50
   0  -2  -3  288.03    7.51
   0  -2  -3  289.98    6.83
   0  -2  -3  308.20    6.84
   0   2   3  299.46    6.83
   0   2   3  310.11    7.57
   0   2   3  296.52    6.73
   0   2   3  308.03    6.85
   0   2   3  313.95    6.20
   0   2   3  298.32    8.47
  -1  -2  -3   66.97    1.67
  -1  -2  -3   68.82    1.70
  -1  -2  -3   68.06    1.73
  -1  -2  -3   68.38    1.99
  -1  -2  -3   67.61    1.68
   1   2   3   76.22    1.99
   1   2   3   67.18    1.57
   1   2   3   68.18    1.68
   1   2   3   67.67    1.68
   1   2   3   68.63    1.69
  -2  -2  -3    3.03    0.25
  -2  -2  -3    2.98    0.22
  -2  -2  -3    2.89    0.19
   2   2   3    3.16    0.29
   2   2   3    3.03    0.21
   2   2   3    3.02    0.23
   2   2   3    2.81    0.19
   2   2   3    2.93    0.23
  -3  -2  -3    7.44    0.40
  -3  -2  -3    7.34    0.24
  -3  -2  -3    7.26    0.24
  -3  -2  -3    7.86    0.41
   3   2   3    7.06    0.27
   3   2   3    7.16    0.39
   3   2   3    7.28    0.41
   3   2   3    7.42    0.26
   3   2   3    7.61    0.48
  -4  -2  -3   30.64    1.06
  -4  -2  -3   30.94    1.00
   4   2   3   31.88    1.00
   4   2   3   31.86    1.23
   4   2   3   29.19    0.95
  -5  -2  -3    0.20    0.20
  -5  -2  -3   -0.28    0.18
   5   2   3    0.09    0.23
   5   2   3    0.25    0.24
   5   2   3    0.38    0.30
  -6  -2  -3   17.21    0.93
   6   2   3   15.03    0.92
   6   2   3   16.23    0.81
   6   2   3   16.10    0.82
  -7  -2  -3    4.31    0.61
  -7  -2  -3    4.08    0.68
   7   2   3    2.57    0.49
   7   2   3    2.37    0.45
  -8  -2  -3   -0.07    0.24
  -8  -2  -3    0.88    0.46
  -8  -2  -3    0.18    0.21
  -8  -2  -3    0.29    0.31
  -8  -2  -3    0.56    0.32
   8   2   3    0.36    0.37
   8   2   3    0.25    0.42
  -9  -2  -3    0.84    0.52
  -9  -2  -3    0.22    0.27
  -9  -2  -3    0.38    0.35
   9   2   3    0.21    0.44
   9   2   3    0.06    0.41
  10  -3  -3    0.08    0.48
   9  -3  -3    0.11    0.40
   9  -3  -3    0.11    0.34
  -9   3   3   -0.22    0.58
   8  -3  -3    0.72    0.37
   8  -3  -3    0.95    0.40
  -8   3   3    0.61    0.58
   7  -3  -3    0.54    0.31
   7  -3  -3    0.45    0.31
  -7   3   3    0.21    0.47
   6  -3  -3   14.45    0.80
   6  -3  -3   13.06    0.63
   6  -3  -3   10.89    0.49
  -6   3   3   12.81    0.65
  -6   3   3   14.07    1.00
  -6   3   3   12.01    0.58
   5  -3  -3    0.11    0.23
   5  -3  -3    0.21    0.10
   5  -3  -3    0.13    0.23
   5  -3  -3    0.26    0.21
  -5   3   3    0.67    0.27
  -5   3   3   -0.02    0.32
  -5   3   3    0.06    0.08
   4  -3  -3    8.63    0.49
   4  -3  -3    7.66    0.39
   4  -3  -3    8.11    0.42
  -4   3   3    8.00    0.49
  -4   3   3    7.90    0.65
  -4   3   3    7.77    0.41
   3  -3  -3  108.67    2.94
   3  -3  -3  107.66    2.30
   3  -3  -3  105.90    2.66
   3  -3  -3  109.99    2.79
  -3   3   3   97.41    3.10
  -3   3   3  107.12    2.78
  -3   3   3  104.66    2.64
   2  -3  -3    2.48    0.26
   2  -3  -3    2.30    0.25
   2  -3  -3    2.31    0.26
   2  -3  -3    2.27    0.28
   2  -3  -3    2.08    0.30
  -2   3   3    2.36    0.23
  -2   3   3    2.51    0.26
  -2   3   3    2.60    0.37
   1  -3  -3    1.83    0.21
   1  -3  -3    1.73    0.24
   1  -3  -3    2.09    0.29
   1  -3  -3    2.00    0.23
  -1   3   3    1.51    0.23
  -1   3   3    2.08    0.23
  -1   3   3    1.59    0.23
  -1   3   3    1.76    0.21
  -1   3   3    2.04    0.30
   0  -3  -3   74.27    2.17
   0  -3  -3   81.37    1.97
   0  -3  -3   75.32    1.91
   0  -3  -3   79.34    2.31
   0   3   3   76.12    1.91
   0   3   3   77.94    1.90
   0   3   3   77.68    1.96
   0   3   3   79.65    1.97
   0   3   3   84.78    2.23
  -1  -3  -3    0.06    0.03
  -1  -3  -3   -0.12    0.09
  -1  -3  -3   -0.02    0.10
  -1  -3  -3   -0.11    0.09
  -1  -3  -3   -0.14    0.08
   1   3   3    0.04    0.11
   1   3   3   -0.21    0.12
   1   3   3    0.01    0.08
   1   3   3    0.10    0.11
   1   3   3   -0.03    0.11
  -2  -3  -3    4.52    0.29
  -2  -3  -3    3.88    0.24
  -2  -3  -3    4.01    0.22
  -2  -3  -3    4.17    0.24
  -2  -3  -3    3.60    0.39
   2   3   3    3.85    0.27
   2   3   3    4.58    0.37
   2   3   3    4.21    0.26
   2   3   3    3.88    0.26
   2   3   3    3.73    0.30
  -3  -3  -3    5.92    0.37
  -3  -3  -3    5.41    0.24
  -3  -3  -3    5.39    0.33
  -3  -3  -3    5.53    0.49
  -3  -3  -3    5.35    0.24
   3   3   3    5.37    0.39
   3   3   3    5.43    0.36
   3   3   3    5.38    0.47
   3   3   3    5.27    0.27
  -4  -3  -3   25.04    0.90
  -4  -3  -3   25.57    1.08
  -4  -3  -3   24.86    0.88
   4   3   3   23.65    0.61
   4   3   3   23.81    0.85
   4   3   3   23.91    0.61
   4   3   3   24.02    1.08
   4   3   3   25.36    0.87
  -5  -3  -3    1.16    0.24
  -5  -3  -3    1.02    0.23
  -5  -3  -3    0.77    0.23
   5   3   3    1.40    0.28
   5   3   3    1.45    0.42
   5   3   3    1.61    0.35
  -6  -3  -3    3.63    0.47
  -6  -3  -3    3.74    0.56
   6   3   3    1.88    0.40
   6   3   3    2.72    0.46
   6   3   3    2.45    0.54
  -7  -3  -3    0.68    0.25
  -7  -3  -3    1.61    0.34
  -7  -3  -3    1.11    0.28
   7   3   3    1.31    0.50
   7   3   3    1.14    0.40
   7   3   3    1.20    0.43
  -8  -3  -3    0.31    0.35
  -8  -3  -3    0.19    0.24
  -8  -3  -3    0.12    0.25
  -8  -3  -3    0.52    0.31
  -8  -3  -3    0.75    0.53
   8   3   3    0.14    0.41
   8   3   3    0.16    0.39
  -9  -3  -3    0.57    0.36
  -9  -3  -3    1.77    0.60
   9   3   3   -0.02    0.45
   9   3   3    0.15    0.44
   9  -4  -3    0.26    0.37
   9  -4  -3   -0.13    0.38
   8  -4  -3    0.06    0.36
   8  -4  -3    0.18    0.40
  -8   4   3    0.15    0.61
   7  -4  -3    0.38    0.34
   7  -4  -3    0.59    0.30
  -7   4   3    0.56    0.53
   6  -4  -3    5.18    0.44
   6  -4  -3    6.38    0.63
  -6   4   3    6.13    0.58
  -6   4   3    6.79    0.83
   5  -4  -3   19.61    0.70
   5  -4  -3   23.44    0.96
   5  -4  -3   21.51    0.73
  -5   4   3   21.36    0.88
  -5   4   3   21.49    0.82
  -5   4   3   22.06    1.14
   4  -4  -3    0.51    0.11
   4  -4  -3    0.36    0.12
   4  -4  -3    0.68    0.16
   4  -4  -3    0.69    0.26
  -4   4   3    0.37    0.11
  -4   4   3    0.65    0.34
  -4   4   3    0.69    0.25
   3  -4  -3   19.11    0.75
   3  -4  -3   17.54    0.50
   3  -4  -3   17.12    0.68
   3  -4  -3   18.42    0.76
  -3   4   3   18.70    0.75
  -3   4   3   16.91    0.84
  -3   4   3   18.99    0.73
   2  -4  -3    3.63    0.15
   2  -4  -3    3.75    0.33
   2  -4  -3    3.78    0.37
   2  -4  -3    4.35    0.37
  -2   4   3    2.49    0.43
  -2   4   3    3.57    0.37
  -2   4   3    4.17    0.33
   1  -4  -3   12.09    0.58
   1  -4  -3   11.73    0.55
   1  -4  -3   12.03    0.51
  -1   4   3   12.79    0.59
  -1   4   3   12.60    0.55
  -1   4   3   11.52    0.60
  -1   4   3   11.64    0.54
   0  -4  -3    2.94    0.29
   0  -4  -3    3.33    0.28
   0  -4  -3    2.93    0.35
   0   4   3    3.71    0.33
   0   4   3    3.26    0.30
   0   4   3    3.58    0.26
   0   4   3    2.94    0.31
  -1  -4  -3    0.08    0.10
  -1  -4  -3   -0.22    0.11
  -1  -4  -3   -0.10    0.09
   1   4   3    0.01    0.08
   1   4   3   -0.20    0.13
   1   4   3   -0.14    0.12
   1   4   3    0.04    0.18
  -2  -4  -3    5.05    0.22
  -2  -4  -3    4.98    0.30
  -2  -4  -3    5.18    0.33
  -2  -4  -3    5.09    0.47
   2   4   3    5.17    0.32
   2   4   3    4.93    0.33
   2   4   3    5.44    0.44
   2   4   3    5.11    0.30
  -3  -4  -3    2.81    0.31
  -3  -4  -3    2.27    0.24
  -3  -4  -3    2.54    0.22
   3   4   3    3.07    0.36
   3   4   3    2.60    0.25
   3   4   3    2.28    0.25
   3   4   3    2.55    0.42
   3   4   3    2.12    0.30
  -4  -4  -3    3.35    0.35
  -4  -4  -3    2.48    0.38
  -4  -4  -3    3.22    0.18
  -4  -4  -3    3.29    0.55
   4   4   3    3.40    0.23
   4   4   3    3.07    0.49
   4   4   3    3.07    0.39
   4   4   3    3.29    0.24
   4   4   3    3.19    0.43
  -5  -4  -3   -0.40    0.21
  -5  -4  -3    0.00    0.17
  -5  -4  -3    0.13    0.19
   5   4   3    0.02    0.29
   5   4   3   -0.23    0.27
   5   4   3   -0.09    0.29
  -6  -4  -3    0.14    0.20
  -6  -4  -3   -0.01    0.22
  -6  -4  -3    0.27    0.21
   6   4   3   -0.40    0.32
   6   4   3    0.22    0.31
   6   4   3   -0.42    0.40
  -7  -4  -3    0.07    0.22
  -7  -4  -3    0.20    0.24
  -7  -4  -3   -0.27    0.32
  -7  -4  -3    0.13    0.22
   7   4   3   -0.22    0.36
   7   4   3    0.12    0.36
   7   4   3   -0.35    0.29
  -8  -4  -3    0.29    0.29
  -8  -4  -3    0.13    0.25
  -8  -4  -3    0.24    0.38
   8   4   3    0.41    0.40
   8   4   3   -0.26    0.41
   8   4   3   -0.40    0.42
   9  -5  -3   -0.13    0.39
   9  -5  -3    0.07    0.43
   8  -5  -3    2.18    0.53
   8  -5  -3    2.01    0.44
  -8   5   3    0.81    0.69
   7  -5  -3    2.25    0.37
   7  -5  -3    2.58    0.51
  -7   5   3    1.66    0.65
   6  -5  -3    2.05    0.44
   6  -5  -3    2.02    0.31
  -6   5   3    1.76    0.57
  -6   5   3    1.83    0.40
   5  -5  -3    1.06    0.37
  -5   5   3    0.51    0.47
  -5   5   3    0.70    0.31
   4  -5  -3    0.51    0.15
   4  -5  -3    0.86    0.32
   4  -5  -3    1.04    0.16
   4  -5  -3    0.60    0.12
  -4   5   3    0.69    0.38
  -4   5   3    1.08    0.31
   3  -5  -3    0.84    0.28
   3  -5  -3    0.91    0.12
  -3   5   3    0.84    0.32
  -3   5   3    0.77    0.23
   2  -5  -3   12.02    0.65
   2  -5  -3   11.19    0.55
   2  -5  -3   11.70    0.63
  -2   5   3   11.04    0.60
  -2   5   3   11.19    0.70
   1  -5  -3   -0.17    0.11
   1  -5  -3    0.03    0.20
   1  -5  -3   -0.02    0.13
  -1   5   3    0.01    0.06
  -1   5   3   -0.18    0.18
  -1   5   3   -0.08    0.19
   0  -5  -3    9.12    0.59
   0  -5  -3    9.67    0.47
   0  -5  -3    9.19    0.50
   0   5   3    9.79    0.50
   0   5   3    9.94    0.51
   0   5   3    9.88    0.56
  -1  -5  -3    8.11    0.58
  -1  -5  -3    7.96    0.45
  -1  -5  -3    8.18    0.42
   1   5   3    7.65    0.44
   1   5   3    7.91    0.56
   1   5   3    7.34    0.44
  -2  -5  -3    0.02    0.13
  -2  -5  -3   -0.07    0.15
  -2  -5  -3   -0.13    0.13
   2   5   3   -0.21    0.14
   2   5   3   -0.27    0.25
   2   5   3   -0.27    0.17
   2   5   3   -0.02    0.17
  -3  -5  -3    5.52    0.63
  -3  -5  -3    4.65    0.33
  -3  -5  -3    5.36    0.41
  -3  -5  -3    4.73    0.29
   3   5   3    4.56    0.38
   3   5   3    4.27    0.57
   3   5   3    5.18    0.37
   3   5   3    4.83    0.41
  -4  -5  -3   46.13    1.35
  -4  -5  -3   43.75    1.32
  -4  -5  -3   45.23    1.72
   4   5   3   39.79    1.73
   4   5   3   45.93    1.19
   4   5   3   43.82    1.31
  -5  -5  -3    1.40    0.32
  -5  -5  -3    2.01    0.29
   5   5   3    1.77    0.56
   5   5   3    2.06    0.20
   5   5   3    2.72    0.44
  -6  -5  -3    0.12    0.21
  -6  -5  -3    0.17    0.19
  -6  -5  -3    0.06    0.24
   6   5   3   -0.35    0.43
   6   5   3    0.38    0.37
  -7  -5  -3    0.43    0.26
  -7  -5  -3    0.23    0.36
   7   5   3    0.49    0.43
   7   5   3    0.30    0.38
  -8  -5  -3    0.11    0.39
  -8  -5  -3    0.01    0.25
   8   5   3    0.27    0.46
   8   5   3   -0.13    0.47
   9  -6  -3   -0.13    0.48
  -9   6   3    0.20    0.42
   8  -6  -3    1.18    0.49
  -8   6   3   -1.34    0.72
   7  -6  -3    5.95    0.78
  -7   6   3    3.70    0.78
   6  -6  -3    1.59    0.47
  -6   6   3    1.49    0.39
  -6   6   3    1.54    0.60
   5  -6  -3    0.79    0.20
   5  -6  -3    1.20    0.41
  -5   6   3    0.59    0.49
  -5   6   3    1.38    0.37
   4  -6  -3   20.22    0.94
   4  -6  -3   22.23    1.01
   4  -6  -3   18.26    0.74
  -4   6   3   21.90    0.96
  -4   6   3   20.81    1.14
   3  -6  -3   25.50    1.05
   3  -6  -3   25.32    1.05
   3  -6  -3   21.66    0.87
  -3   6   3   24.84    0.89
  -3   6   3   25.04    1.18
  -3   6   3   25.43    1.01
   2  -6  -3    3.89    0.48
   2  -6  -3    4.22    0.48
  -2   6   3    4.02    0.30
  -2   6   3    4.01    0.36
  -2   6   3    4.12    0.48
  -2   6   3    3.78    0.55
   1  -6  -3    9.84    0.64
   1  -6  -3   10.20    0.60
   1  -6  -3    9.01    0.52
  -1   6   3    8.98    0.52
  -1   6   3   10.00    0.57
  -1   6   3    8.89    0.31
   0  -6  -3   10.21    0.54
   0  -6  -3   10.82    0.59
   0  -6  -3   10.83    0.71
   0   6   3   10.91    0.65
   0   6   3   11.47    0.60
  -1  -6  -3    2.19    0.34
  -1  -6  -3    2.50    0.33
   1   6   3    1.54    0.39
   1   6   3    1.95    0.30
   1   6   3    2.19    0.33
  -2  -6  -3   60.63    1.70
  -2  -6  -3   61.37    1.65
  -2  -6  -3   61.82    2.08
   2   6   3   64.68    1.72
   2   6   3   56.52    2.08
   2   6   3   60.20    1.70
   2   6   3   59.33    1.47
  -3  -6  -3    5.40    0.26
  -3  -6  -3    6.47    0.76
  -3  -6  -3    6.25    0.43
  -3  -6  -3    5.53    0.50
   3   6   3    7.41    0.48
   3   6   3    5.70    0.67
   3   6   3    6.85    0.44
  -4  -6  -3    0.12    0.23
  -4  -6  -3   -0.23    0.17
   4   6   3   -0.17    0.30
   4   6   3   -0.02    0.19
   4   6   3    0.08    0.25
  -5  -6  -3   -0.19    0.24
  -5  -6  -3   -0.18    0.17
   5   6   3    0.10    0.42
   5   6   3   -0.19    0.15
   5   6   3   -0.05    0.30
  -6  -6  -3    0.07    0.36
  -6  -6  -3   -0.22    0.23
   6   6   3    0.72    0.38
   6   6   3   -0.14    0.44
  -7  -6  -3    0.34    0.28
  -7  -6  -3    0.08    0.37
   7   6   3    0.18    0.51
   7   6   3   -0.04    0.41
  -8  -6  -3    0.67    0.32
   8  -7  -3   -0.13    0.54
  -8   7   3    0.14    0.41
   7  -7  -3    0.22    0.46
  -7   7   3    0.46    0.34
  -7   7   3   -0.78    0.60
   6  -7  -3    0.04    0.41
  -6   7   3   -0.26    0.54
  -6   7   3    0.03    0.34
  -6   7   3    0.14    0.28
   5  -7  -3   -0.21    0.16
   5  -7  -3    0.11    0.39
  -5   7   3   -0.06    0.34
  -5   7   3   -0.22    0.23
  -5   7   3   -0.25    0.46
   4  -7  -3    0.49    0.22
   4  -7  -3    0.55    0.38
  -4   7   3    1.93    0.43
  -4   7   3    0.66    0.38
   3  -7  -3   -0.16    0.18
   3  -7  -3   -0.12    0.30
  -3   7   3   -0.50    0.36
  -3   7   3   -0.37    0.29
  -3   7   3    0.02    0.15
   2  -7  -3    0.12    0.30
   2  -7  -3    0.20    0.19
  -2   7   3   -0.03    0.29
  -2   7   3    0.35    0.12
  -2   7   3    0.17    0.23
   1  -7  -3    6.29    0.67
   1  -7  -3    7.60    0.62
   1  -7  -3    5.59    0.52
  -1   7   3    6.81    0.22
  -1   7   3    7.29    0.60
  -1   7   3    7.13    0.54
   0  -7  -3   25.52    1.02
   0  -7  -3   24.84    1.19
   0  -7  -3   25.01    0.92
   0   7   3   22.33    1.11
   0   7   3   27.53    1.03
  -1  -7  -3    1.20    0.26
  -1  -7  -3    1.78    0.34
  -1  -7  -3    1.03    0.27
   1   7   3    1.41    0.46
   1   7   3    1.52    0.34
  -2  -7  -3   29.24    1.00
  -2  -7  -3   32.00    1.42
  -2  -7  -3   29.88    1.05
   2   7   3   27.16    1.36
   2   7   3   31.86    1.08
   2   7   3   30.03    0.87
  -3  -7  -3    0.83    0.27
  -3  -7  -3    0.53    0.21
   3   7   3    0.60    0.43
   3   7   3    1.17    0.28
   3   7   3    1.29    0.27
  -4  -7  -3    0.00    0.19
  -4  -7  -3    0.24    0.25
   4   7   3    0.54    0.27
   4   7   3   -0.03    0.42
   4   7   3    0.50    0.23
  -5  -7  -3    0.39    0.27
   5   7   3    1.03    0.23
   5   7   3    1.48    0.39
   5   7   3    0.65    0.42
  -6  -7  -3    1.06    0.34
  -6  -7  -3    1.40    0.47
   6   7   3    2.29    0.53
   6   7   3    1.28    0.62
  -7  -7  -3   -0.03    0.28
   7   7   3    0.58    0.47
   7   7   3    0.49    0.46
  -8   8   3    0.13    0.36
   7  -8  -3   -0.10    0.50
  -7   8   3    0.31    0.33
   6  -8  -3    0.51    0.49
  -6   8   3   -0.71    0.54
  -6   8   3    0.21    0.30
  -6   8   3    0.10    0.40
   5  -8  -3   -0.22    0.39
   5  -8  -3   -0.23    0.22
  -5   8   3   -0.20    0.36
  -5   8   3   -0.10    0.24
  -5   8   3   -0.15    0.50
   4  -8  -3    0.26    0.39
   4  -8  -3   -0.23    0.23
  -4   8   3    0.35    0.20
  -4   8   3    0.38    0.38
  -4   8   3    0.60    0.47
   3  -8  -3   -0.11    0.36
   3  -8  -3   -0.29    0.21
  -3   8   3   -0.22    0.35
  -3   8   3    0.03    0.15
   2  -8  -3    0.07    0.22
   2  -8  -3    0.13    0.34
  -2   8   3    0.07    0.11
  -2   8   3   -0.24    0.34
  -2   8   3   -0.13    0.26
   1  -8  -3   -0.12    0.20
   1  -8  -3   -0.55    0.29
  -1   8   3   -0.69    0.30
   0  -8  -3    0.76    0.27
   0  -8  -3    1.03    0.25
   0  -8  -3    0.82    0.37
   0   8   3    0.73    0.38
   0   8   3    0.91    0.41
  -1  -8  -3   -0.22    0.18
  -1  -8  -3    0.07    0.22
  -1  -8  -3   -0.24    0.25
   1   8   3   -0.22    0.32
   1   8   3   -0.30    0.26
  -2  -8  -3    0.02    0.18
  -2  -8  -3    0.05    0.23
   2   8   3   -0.08    0.25
   2   8   3    0.08    0.28
  -3  -8  -3    1.29    0.32
  -3  -8  -3    1.65    0.27
   3   8   3    1.93    0.55
   3   8   3    2.22    0.37
  -4  -8  -3    0.31    0.28
   4   8   3    1.14    0.35
   4   8   3    0.49    0.49
   4   8   3    0.65    0.27
  -5  -8  -3    0.06    0.28
  -5  -8  -3    0.33    0.36
   5   8   3    0.37    0.40
   5   8   3    0.14    0.22
   5   8   3    0.15    0.34
  -6  -8  -3   -0.09    0.29
  -6  -8  -3    0.41    0.44
   6   8   3    0.32    0.56
   6   8   3    0.54    0.47
  -7   9   3    0.02    0.75
   6  -9  -3    0.61    0.55
  -6   9   3    0.37    0.44
  -6   9   3    0.28    0.60
   5  -9  -3   -0.45    0.22
   5  -9  -3    0.05    0.46
  -5   9   3   -0.16    0.52
  -5   9   3    0.01    0.41
   4  -9  -3   -0.38    0.22
   4  -9  -3   -0.09    0.41
  -4   9   3   -0.20    0.40
   3  -9  -3    0.57    0.44
   3  -9  -3    0.34    0.28
  -3   9   3    0.72    0.44
   2  -9  -3    4.87    0.71
  -2   9   3    3.78    0.50
  -2   9   3    3.96    0.58
   1  -9  -3    1.91    0.45
   1  -9  -3    1.16    0.31
  -1   9   3    1.80    0.46
  -1   9   3    2.10    0.44
   0  -9  -3   -0.10    0.24
   0  -9  -3    0.25    0.33
   0   9   3   -0.01    0.32
   0   9   3   -0.05    0.32
  -1  -9  -3    0.07    0.24
  -1  -9  -3    0.18    0.20
  -1  -9  -3    0.34    0.29
   1   9   3    0.35    0.33
   1   9   3    0.36    0.39
  -2  -9  -3   -0.28    0.24
   2   9   3   -0.01    0.29
   2   9   3   -0.26    0.38
  -3  -9  -3    0.33    0.30
   3   9   3    0.39    0.38
   3   9   3    0.36    0.33
  -4  -9  -3   -0.07    0.30
  -4  -9  -3    0.52    0.38
   4   9   3   -0.04    0.28
   4   9   3   -0.13    0.36
  -5  -9  -3    0.00    0.33
  -5  -9  -3    0.11    0.40
   5   9   3   -0.15    0.43
  -6  10   3    0.71    0.51
   5 -10  -3   -0.44    0.25
   5 -10  -3    0.60    0.53
  -5  10   3    0.17    0.45
   4 -10  -3    1.07    0.54
  -4  10   3    0.82    0.49
   3 -10  -3    0.01    0.30
   3 -10  -3    0.82    0.48
  -3  10   3    0.16    0.43
   2 -10  -3    0.98    0.45
   2 -10  -3    0.33    0.31
  -2  10   3    0.94    0.43
   1 -10  -3    1.09    0.31
   1 -10  -3    0.62    0.32
   1 -10  -3    1.05    0.43
  -1  10   3    1.32    0.43
  -1  10   3    1.51    0.46
   0 -10  -3    0.25    0.34
   0 -10  -3    0.41    0.29
   0 -10  -3    0.21    0.29
   0  10   3    0.09    0.37
   0  10   3    0.10    0.36
  -1 -10  -3    0.06    0.28
  -1 -10  -3    0.24    0.30
   1  10   3    0.14    0.42
   1  10   3    0.45    0.39
  -2 -10  -3   -0.28    0.28
  -2 -10  -3    0.64    0.36
   2  10   3    0.35    0.47
   2  10   3    0.12    0.33
  -3 -10  -3   -0.30    0.30
  -3 -10  -3    0.02    0.34
   3  10   3   -0.03    0.33
   3  10   3   -0.09    0.47
  -4 -10  -3    0.70    0.39
  -4 -10  -3    0.44    0.44
   4  10   3    0.38    0.60
   4  10   3    0.53    0.34
   5 -11  -3   -0.48    0.33
  -5  11   3    0.14    0.49
   4 -11  -3   -0.60    0.30
   4 -11  -3    0.35    0.52
  -4  11   3   -0.03    0.49
   3 -11  -3    0.05    0.46
   3 -11  -3   -0.64    0.28
  -3  11   3   -0.25    0.45
   2 -11  -3    0.43    0.45
   2 -11  -3   -0.23    0.32
  -2  11   3    0.13    0.43
   1 -11  -3    1.41    0.49
   1 -11  -3    0.53    0.35
  -1  11   3    1.14    0.50
  -1  11   3    1.07    0.47
   0 -11  -3    0.55    0.35
   0 -11  -3    0.78    0.34
   0  11   3    1.09    0.48
   0  11   3    0.93    0.46
  -1 -11  -3    0.58    0.38
  -1 -11  -3    0.09    0.36
   1  11   3    0.35    0.47
   1  11   3    0.03    0.38
  -2 -11  -3    0.04    0.34
  -2 -11  -3    0.55    0.39
   2  11   3   -0.11    0.50
   2  11   3    0.15    0.39
   3  11   3    1.19    0.62
   3  11   3    1.07    0.43
   3 -12  -3    0.15    0.52
   2 -12  -3    0.40    0.49
  -1  12   3   -0.51    0.43
   0  12   3    0.18    0.47
  -1 -12  -3    0.12    0.37
  -1 -12   4    1.55    0.53
   0 -12   4    0.48    0.47
   1 -12   4    0.17    0.47
   2 -12   4   -0.13    0.50
  -3 -11   4    1.50    0.45
  -3 -11   4    2.27    0.58
  -2 -11   4    1.15    0.44
  -2 -11   4    1.96    0.50
   1  11  -4    1.43    0.53
  -1 -11   4    0.24    0.35
  -1 -11   4    1.02    0.43
   0  11  -4    0.58    0.45
   0 -11   4   -0.28    0.34
   0 -11   4    0.56    0.43
   0 -11   4    0.50    0.37
  -1  11  -4    0.11    0.43
   1 -11   4   -0.26    0.42
   1 -11   4   -0.36    0.26
  -2  11  -4   -0.38    0.41
   2 -11   4   -0.04    0.45
   2 -11   4   -0.05    0.32
  -3  11  -4    0.14    0.46
   3 -11   4   -0.06    0.49
  -4  11  -4   -0.53    0.42
   5  10  -4    0.23    0.47
   5  10  -4    0.52    0.44
  -5 -10   4   -0.21    0.29
   4  10  -4    0.12    0.45
   4  10  -4   -0.56    0.38
  -4 -10   4   -0.34    0.31
  -4 -10   4    0.03    0.40
   3  10  -4   -0.30    0.40
  -3 -10   4   -0.15    0.29
  -3 -10   4    0.15    0.36
   2  10  -4    0.63    0.41
  -2 -10   4    0.50    0.39
  -2 -10   4   -0.21    0.29
   1  10  -4   -0.13    0.35
  -1 -10   4    0.01    0.32
  -1 -10   4   -0.48    0.25
  -1 -10   4    0.01    0.30
   0  10  -4   -0.22    0.20
   0  10  -4   -0.04    0.28
   0 -10   4    0.17    0.37
   0 -10   4   -0.06    0.27
   0 -10   4   -0.37    0.26
  -1  10  -4   -0.27    0.23
  -1  10  -4   -0.11    0.37
   1 -10   4    0.00    0.25
   1 -10   4   -0.20    0.37
   1 -10   4   -0.08    0.27
  -2  10  -4   -0.35    0.26
  -2  10  -4   -0.32    0.38
   2 -10   4    0.02    0.26
   2 -10   4    0.22    0.43
  -3  10  -4   -0.03    0.40
  -3  10  -4   -0.48    0.29
   3 -10   4   -0.16    0.44
  -4  10  -4    0.39    0.42
   4 -10   4    0.63    0.51
  -5  10  -4   -0.49    0.36
   5 -10   4    0.11    0.53
  -6  10  -4   -0.45    0.41
   6   9  -4    0.71    0.51
   6   9  -4    0.92    0.42
   5   9  -4    0.67    0.41
   5   9  -4    0.09    0.42
  -5  -9   4    0.32    0.42
  -5  -9   4    0.22    0.29
   4   9  -4   -0.42    0.34
   4   9  -4   -0.09    0.39
  -4  -9   4   -0.24    0.26
  -4  -9   4    0.02    0.36
   3   9  -4    0.22    0.38
  -3  -9   4   -0.23    0.26
  -3  -9   4   -0.08    0.32
   2   9  -4   -0.19    0.32
  -2  -9   4   -0.31    0.22
  -2  -9   4    0.01    0.30
  -2  -9   4   -0.05    0.29
   1   9  -4    5.97    0.67
   1   9  -4    5.64    0.55
  -1  -9   4    5.16    0.63
  -1  -9   4    5.86    0.75
  -1  -9   4    4.94    0.79
   0   9  -4    3.07    0.50
   0   9  -4    3.44    0.52
   0  -9   4    2.10    0.38
   0  -9   4    3.41    0.55
   0  -9   4    2.47    0.43
  -1   9  -4    4.10    0.58
  -1   9  -4    4.98    0.69
   1  -9   4    3.84    0.63
   1  -9   4    4.76    0.71
  -2   9  -4    2.07    0.36
   2  -9   4    2.52    0.41
   2  -9   4    3.48    0.54
  -3   9  -4   -0.19    0.27
  -3   9  -4    0.07    0.37
   3  -9   4    0.41    0.43
  -4   9  -4    0.36    0.34
  -4   9  -4    0.67    0.40
   4  -9   4    0.42    0.46
  -5   9  -4    1.18    0.41
   5  -9   4    1.86    0.58
  -6   9  -4   -0.12    0.41
   6  -9   4    0.26    0.51
   7   8  -4    0.03    0.51
   6   8  -4    0.50    0.37
   6   8  -4    0.07    0.43
  -6  -8   4   -0.02    0.40
   5   8  -4    1.34    0.43
   5   8  -4    1.23    0.39
  -5  -8   4    1.25    0.46
  -5  -8   4    0.43    0.27
   4   8  -4   -0.16    0.31
  -4  -8   4    0.29    0.36
  -4  -8   4   -0.27    0.23
   3   8  -4    1.31    0.38
  -3  -8   4    0.71    0.37
  -3  -8   4    0.58    0.28
  -3  -8   4    1.38    0.38
   2   8  -4    0.78    0.36
  -2  -8   4    0.28    0.24
  -2  -8   4    0.55    0.33
  -2  -8   4    0.70    0.36
   1   8  -4    0.76    0.24
   1   8  -4    0.99    0.36
  -1  -8   4    0.99    0.36
  -1  -8   4    0.33    0.25
  -1  -8   4    0.70    0.34
   0   8  -4    1.03    0.26
   0   8  -4    1.75    0.41
   0  -8   4    1.83    0.43
   0  -8   4    0.93    0.30
   0  -8   4    0.93    0.31
  -1   8  -4    1.44    0.30
  -1   8  -4    1.69    0.42
   1  -8   4    1.09    0.30
   1  -8   4    1.24    0.31
   1  -8   4    2.15    0.46
  -2   8  -4    1.54    0.41
  -2   8  -4    0.82    0.30
   2  -8   4    0.44    0.27
   2  -8   4    1.40    0.45
   2  -8   4    0.73    0.26
  -3   8  -4    4.36    0.64
  -3   8  -4    5.45    0.65
   3  -8   4    5.47    0.73
  -4   8  -4    4.37    0.64
   4  -8   4    5.42    0.77
  -5   8  -4    1.87    0.44
  -5   8  -4    2.09    0.48
   5  -8   4    2.85    0.59
  -6   8  -4    0.49    0.39
   6  -8   4    0.32    0.46
  -7   8  -4    0.16    0.44
   7  -8   4    0.24    0.50
   7   7  -4    0.35    0.32
   7   7  -4    0.01    0.47
  -7  -7   4    0.05    0.41
   6   7  -4   -0.05    0.30
   6   7  -4   -0.06    0.40
  -6  -7   4    0.02    0.38
   5   7  -4    2.60    0.48
   5   7  -4    2.75    0.45
  -5  -7   4    1.29    0.29
  -5  -7   4    1.83    0.49
   4   7  -4    6.36    0.60
  -4  -7   4    5.47    0.86
  -4  -7   4    5.05    0.72
   3   7  -4    2.92    0.46
  -3  -7   4    2.25    0.40
  -3  -7   4    1.32    0.28
  -3  -7   4    1.92    0.43
   2   7  -4   -0.62    0.28
  -2  -7   4   -0.28    0.26
  -2  -7   4   -0.11    0.27
   1   7  -4   19.67    0.88
   1   7  -4   19.96    0.91
  -1  -7   4   19.74    1.06
  -1  -7   4   19.21    1.09
  -1  -7   4   20.85    0.94
   0   7  -4   38.58    1.30
   0   7  -4   36.98    1.28
   0   7  -4   32.86    0.95
   0  -7   4   36.29    1.33
   0  -7   4   36.77    1.49
   0  -7   4   36.88    1.51
  -1   7  -4   31.94    1.18
  -1   7  -4   30.50    1.18
   1  -7   4   30.10    1.27
   1  -7   4   31.00    1.23
   1  -7   4   29.84    1.35
  -2   7  -4   15.76    0.85
  -2   7  -4   16.36    0.88
   2  -7   4   16.20    0.84
   2  -7   4   16.11    0.91
  -3   7  -4    2.28    0.42
  -3   7  -4    2.03    0.35
   3  -7   4    2.46    0.48
  -4   7  -4   -0.22    0.28
  -4   7  -4    0.04    0.31
   4  -7   4    0.08    0.37
  -5   7  -4    2.79    0.44
  -5   7  -4    2.28    0.44
   5  -7   4    4.72    0.71
  -6   7  -4    0.32    0.38
   6  -7   4    0.34    0.43
  -7   7  -4    1.09    0.46
   7  -7   4    2.13    0.57
   8  -7   4    0.54    0.47
   8  -7   4    1.30    0.53
   8   6  -4   -0.53    0.44
  -8  -6   4    0.32    0.46
   7   6  -4    0.18    0.41
   7   6  -4    0.42    0.30
  -7  -6   4    0.91    0.58
  -7  -6   4    0.61    0.43
   6   6  -4   -0.15    0.37
   6   6  -4   -0.08    0.29
  -6  -6   4   -0.13    0.35
   5   6  -4    8.97    0.66
  -5  -6   4    8.02    0.95
  -5  -6   4    7.79    0.70
   4   6  -4    0.18    0.32
  -4  -6   4    0.23    0.29
  -4  -6   4    0.10    0.18
  -4  -6   4    0.21    0.33
   3   6  -4   19.41    0.84
  -3  -6   4   19.04    1.12
  -3  -6   4   18.87    0.86
  -3  -6   4   19.05    0.98
   2   6  -4   31.54    1.11
  -2  -6   4   32.53    1.17
  -2  -6   4   31.44    1.27
  -2  -6   4   32.23    1.43
   1   6  -4    4.67    0.43
   1   6  -4    5.84    0.48
  -1  -6   4    4.97    0.57
  -1  -6   4    4.82    0.55
  -1  -6   4    5.15    0.44
   0   6  -4   19.87    0.84
   0   6  -4   19.52    0.82
   0  -6   4   19.90    0.97
   0  -6   4   19.48    0.87
   0  -6   4   19.27    0.95
  -1   6  -4   54.96    1.70
  -1   6  -4   52.35    1.60
   1  -6   4   55.10    1.70
   1  -6   4   55.05    1.84
   1  -6   4   54.50    1.86
  -2   6  -4    6.25    0.50
  -2   6  -4    6.47    0.58
  -2   6  -4    6.46    0.53
   2  -6   4    6.23    0.57
   2  -6   4    6.11    0.51
   2  -6   4    5.28    0.43
  -3   6  -4    8.51    0.49
  -3   6  -4    9.21    0.66
  -3   6  -4    8.27    0.60
   3  -6   4    8.07    0.53
   3  -6   4    7.95    0.65
   3  -6   4    7.57    0.49
  -4   6  -4    5.74    0.65
  -4   6  -4    5.27    0.58
   4  -6   4    6.01    0.65
  -5   6  -4    0.17    0.31
  -5   6  -4    0.37    0.27
   5  -6   4    0.33    0.34
  -6   6  -4    1.40    0.40
   6  -6   4    2.09    0.49
  -7   6  -4    2.39    0.50
  -8   6  -4    0.98    0.45
   8  -6   4    1.16    0.44
   8  -6   4    0.76    0.49
   8   5  -4   -0.43    0.41
  -8  -5   4    0.10    0.41
  -8  -5   4    1.14    0.70
   7   5  -4    0.09    0.28
   7   5  -4   -0.34    0.37
  -7  -5   4    0.05    0.55
  -7  -5   4   -0.32    0.34
   6   5  -4   -0.07    0.27
   6   5  -4   -0.52    0.32
  -6  -5   4   -0.33    0.34
  -6  -5   4   -0.06    0.15
   5   5  -4    9.32    0.62
  -5  -5   4    7.60    0.91
  -5  -5   4    8.24    0.61
   4   5  -4    8.01    0.58
   4   5  -4    6.44    0.46
  -4  -5   4    7.27    0.80
  -4  -5   4    7.28    0.59
  -4  -5   4    6.77    0.51
   3   5  -4   15.82    0.72
   3   5  -4   15.35    0.68
  -3  -5   4   15.23    0.79
  -3  -5   4   15.52    0.96
  -3  -5   4   14.99    0.71
   2   5  -4   26.29    0.93
  -2  -5   4   26.22    1.04
  -2  -5   4   26.80    1.21
  -2  -5   4   26.21    0.96
   1   5  -4   23.67    0.59
   1   5  -4   25.61    0.93
   1   5  -4   23.94    0.87
  -1  -5   4   24.36    0.99
  -1  -5   4   25.58    1.10
  -1  -5   4   24.30    0.92
   0   5  -4    3.84    0.37
   0   5  -4    4.09    0.37
   0  -5   4    3.93    0.45
   0  -5   4    3.69    0.43
   0  -5   4    3.86    0.39
  -1   5  -4   13.59    0.61
  -1   5  -4   14.92    0.67
   1  -5   4   14.59    0.69
   1  -5   4   14.64    0.72
   1  -5   4   14.06    0.75
  -2   5  -4   16.12    0.71
  -2   5  -4   16.28    0.75
  -2   5  -4   16.23    0.68
   2  -5   4   17.30    0.75
   2  -5   4   16.03    0.65
   2  -5   4   16.32    0.75
  -3   5  -4    1.44    0.25
  -3   5  -4    1.24    0.26
  -3   5  -4    1.42    0.29
   3  -5   4    1.18    0.31
   3  -5   4    1.48    0.23
  -4   5  -4    2.07    0.36
  -4   5  -4    3.12    0.52
   4  -5   4    2.15    0.39
   4  -5   4    2.57    0.28
  -5   5  -4   -0.13    0.27
  -5   5  -4   -0.05    0.25
  -5   5  -4   -0.03    0.21
   5  -5   4   -0.14    0.33
  -6   5  -4    0.52    0.35
   6  -5   4    1.35    0.40
  -7   5  -4    0.07    0.34
   7  -5   4    0.21    0.38
   7  -5   4    1.17    0.39
  -8   5  -4    0.65    0.41
   8  -5   4    0.34    0.43
   8  -5   4    0.72    0.36
   9   4  -4    0.13    0.46
   9   4  -4    0.27    0.37
  -9  -4   4    0.49    0.50
   8   4  -4    0.17    0.34
  -8  -4   4   -0.24    0.35
  -8  -4   4    0.55    0.62
   7   4  -4   -0.35    0.36
   7   4  -4   -0.24    0.24
  -7  -4   4   -0.41    0.38
  -7  -4   4   -0.52    0.32
   6   4  -4    0.13    0.35
   6   4  -4    0.90    0.29
  -6  -4   4   -0.22    0.34
  -6  -4   4    0.33    0.14
  -6  -4   4    0.68    0.43
   5   4  -4    8.93    0.57
  -5  -4   4    8.80    0.54
  -5  -4   4    9.10    0.88
  -5  -4   4    8.18    0.56
   4   4  -4   31.22    1.02
   4   4  -4   30.62    1.02
  -4  -4   4   31.38    1.03
  -4  -4   4   31.61    1.10
  -4  -4   4   28.91    0.72
  -4  -4   4   31.54    1.42
   3   4  -4    5.66    0.40
   3   4  -4    5.75    0.40
  -3  -4   4    5.58    0.42
  -3  -4   4    5.37    0.58
  -3  -4   4    5.96    0.45
   2   4  -4   12.94    0.57
   2   4  -4   13.07    0.59
   2   4  -4   13.68    0.67
  -2  -4   4   13.25    0.62
  -2  -4   4   13.68    0.77
  -2  -4   4   13.29    0.61
   1   4  -4   39.27    0.95
   1   4  -4   41.46    1.27
   1   4  -4   39.12    1.19
   1   4  -4   42.77    1.31
  -1  -4   4   40.58    1.31
  -1  -4   4   38.97    1.23
  -1  -4   4   41.04    1.47
   0   4  -4    1.01    0.21
   0   4  -4    1.06    0.18
   0  -4   4    1.01    0.23
   0  -4   4    0.77    0.15
   0  -4   4    1.07    0.20
  -1   4  -4    4.95    0.37
  -1   4  -4    4.66    0.35
  -1   4  -4    4.90    0.40
   1  -4   4    4.84    0.39
   1  -4   4    5.31    0.41
   1  -4   4    4.76    0.29
  -2   4  -4    0.80    0.20
  -2   4  -4    0.59    0.13
  -2   4  -4    0.54    0.18
   2  -4   4    0.78    0.17
   2  -4   4    0.82    0.23
   2  -4   4    1.15    0.22
   2  -4   4    0.98    0.15
  -3   4  -4    9.17    0.47
  -3   4  -4    9.67    0.50
  -3   4  -4    9.37    0.60
   3  -4   4    9.55    0.41
   3  -4   4    9.66    0.48
   3  -4   4    9.93    0.58
  -4   4  -4    3.81    0.33
  -4   4  -4    3.56    0.50
  -4   4  -4    3.08    0.29
  -4   4  -4    2.65    0.34
   4  -4   4    3.50    0.42
   4  -4   4    3.16    0.36
  -5   4  -4    1.15    0.28
  -5   4  -4    1.27    0.32
  -5   4  -4    1.27    0.27
   5  -4   4    1.70    0.34
  -6   4  -4   -0.02    0.29
  -6   4  -4   -0.01    0.30
   6  -4   4    0.32    0.30
  -7   4  -4    0.05    0.34
   7  -4   4   -0.42    0.30
   7  -4   4    0.41    0.29
  -8   4  -4    0.08    0.37
   8  -4   4   -0.10    0.37
   8  -4   4    0.63    0.30
   9  -4   4    0.06    0.47
   9   3  -4    0.16    0.46
  -9  -3   4   -0.04    0.43
  -9  -3   4    0.68    0.70
   8   3  -4   -0.07    0.22
   8   3  -4   -0.13    0.38
  -8  -3   4    0.03    0.56
  -8  -3   4   -0.23    0.35
   7   3  -4    1.76    0.45
   7   3  -4    2.55    0.35
  -7  -3   4    2.13    0.58
  -7  -3   4    1.04    0.43
   6   3  -4    4.06    0.45
   6   3  -4    2.73    0.41
  -6  -3   4    3.51    0.43
  -6  -3   4    2.76    0.35
  -6  -3   4    1.97    0.45
  -6  -3   4    3.38    0.63
   5   3  -4    6.81    0.44
   5   3  -4    7.51    0.47
  -5  -3   4    7.39    0.73
  -5  -3   4    7.14    0.46
  -5  -3   4    6.36    0.46
  -5  -3   4    7.00    0.76
  -5  -3   4    6.50    0.35
  -5  -3   4    6.78    0.42
   4   3  -4   14.05    0.60
   4   3  -4   13.60    0.59
  -4  -3   4   13.62    0.58
  -4  -3   4   13.98    0.85
  -4  -3   4   14.37    0.63
  -4  -3   4   13.28    0.43
  -4  -3   4   13.22    0.59
   3   3  -4   12.55    0.56
   3   3  -4   13.02    0.55
   3   3  -4   13.40    0.54
  -3  -3   4   12.51    0.57
  -3  -3   4   12.71    0.76
  -3  -3   4   13.33    0.37
  -3  -3   4   13.67    0.57
   2   3  -4    9.08    0.43
   2   3  -4    8.13    0.43
   2   3  -4    8.80    0.45
  -2  -3   4    8.16    0.46
  -2  -3   4    9.55    0.46
  -2  -3   4    8.26    0.58
   1   3  -4   29.16    0.95
   1   3  -4   28.21    0.94
   1   3  -4   27.92    0.89
   1   3  -4   28.27    0.71
   1   3  -4   27.71    0.88
  -1  -3   4   28.68    1.09
  -1  -3   4   28.97    0.95
  -1  -3   4   28.09    0.92
   0   3  -4   79.68    2.04
   0   3  -4   76.92    2.20
   0   3  -4   78.80    2.36
   0   3  -4   77.23    1.88
   0   3  -4   80.07    2.02
   0   3  -4   79.72    2.16
   0  -3   4   78.69    2.00
   0  -3   4   79.22    2.06
   0  -3   4   81.12    2.22
   0  -3   4   82.47    2.39
  -1   3  -4  141.24    3.62
  -1   3  -4  141.08    3.35
  -1   3  -4  139.61    3.89
   1  -3   4  137.77    3.33
   1  -3   4  140.05    3.40
   1  -3   4  136.67    3.77
   1  -3   4  144.06    3.90
  -2   3  -4    5.76    0.38
  -2   3  -4    5.84    0.42
  -2   3  -4    5.67    0.36
   2  -3   4    5.53    0.34
   2  -3   4    5.43    0.39
   2  -3   4    5.74    0.23
   2  -3   4    6.27    0.40
  -3   3  -4   11.27    0.62
  -3   3  -4   10.58    0.41
  -3   3  -4   10.80    0.53
  -3   3  -4   11.53    0.51
   3  -3   4   11.12    0.54
   3  -3   4   10.88    0.48
  -4   3  -4    0.05    0.13
  -4   3  -4   -0.10    0.19
  -4   3  -4   -0.23    0.12
  -4   3  -4    0.05    0.15
   4  -3   4    0.20    0.16
   4  -3   4    0.11    0.20
  -5   3  -4    3.19    0.40
  -5   3  -4    2.94    0.32
  -5   3  -4    2.05    0.36
   5  -3   4    3.22    0.33
   5  -3   4    2.96    0.43
  -6   3  -4    1.69    0.34
  -6   3  -4    1.59    0.37
   6  -3   4    1.96    0.34
   6  -3   4    1.96    0.39
  -7   3  -4    0.90    0.37
   7  -3   4   -0.07    0.33
   7  -3   4    0.52    0.27
  -8   3  -4    0.48    0.38
   8  -3   4    0.51    0.41
   9  -3   4   -0.01    0.42
   9   2  -4   -0.43    0.41
  -9  -2   4   -0.31    0.33
  -9  -2   4    0.49    0.67
   8   2  -4   -0.10    0.37
   8   2  -4    0.21    0.25
  -8  -2   4   -0.16    0.54
  -8  -2   4   -0.09    0.35
   7   2  -4    0.76    0.28
   7   2  -4    0.38    0.37
  -7  -2   4    0.88    0.55
  -7  -2   4    0.94    0.29
  -7  -2   4    0.46    0.35
   6   2  -4    1.31    0.37
   6   2  -4    1.35    0.31
  -6  -2   4    1.22    0.49
  -6  -2   4    0.69    0.11
  -6  -2   4    1.35    0.30
  -6  -2   4    0.87    0.31
   5   2  -4    0.04    0.21
   5   2  -4   -0.03    0.17
  -5  -2   4   -0.17    0.33
  -5  -2   4    0.20    0.21
  -5  -2   4   -0.01    0.07
  -5  -2   4   -0.03    0.20
  -5  -2   4   -0.08    0.18
  -5  -2   4   -0.08    0.11
   4   2  -4    4.23    0.38
   4   2  -4    4.00    0.33
  -4  -2   4    4.34    0.50
  -4  -2   4    4.34    0.27
  -4  -2   4    4.78    0.39
  -4  -2   4    4.68    0.27
  -4  -2   4    4.07    0.53
  -4  -2   4    4.16    0.35
   3   2  -4   -0.12    0.15
   3   2  -4    0.11    0.16
   3   2  -4    0.16    0.06
  -3  -2   4    0.26    0.17
  -3  -2   4   -0.06    0.17
  -3  -2   4   -0.25    0.22
  -3  -2   4    0.29    0.08
  -3  -2   4    0.29    0.08
  -3  -2   4    0.21    0.15
   2   2  -4   26.95    0.81
   2   2  -4   25.06    0.81
   2   2  -4   25.98    0.83
   2   2  -4   26.74    0.69
  -2  -2   4   26.45    1.04
  -2  -2   4   26.24    0.68
  -2  -2   4   26.36    0.80
  -2  -2   4   26.14    0.84
  -2  -2   4   25.50    0.83
  -2  -2   4   25.01    0.99
   1   2  -4   78.68    2.03
   1   2  -4   82.86    2.44
   1   2  -4   83.50    2.19
   1   2  -4   83.94    2.21
   1   2  -4   81.73    2.06
   1   2  -4   81.68    1.90
   1   2  -4   82.34    2.10
  -1  -2   4   82.80    1.91
  -1  -2   4   83.67    2.45
  -1  -2   4   81.43    2.08
  -1  -2   4   83.18    2.19
  -1  -2   4   78.93    2.09
  -1  -2   4   82.50    2.03
   0   2  -4   43.70    1.18
   0   2  -4   42.04    1.10
   0   2  -4   41.71    1.19
   0   2  -4   43.73    1.41
   0   2  -4   43.50    1.20
   0   2  -4   44.43    1.28
   0   2  -4   44.14    1.30
   0  -2   4   43.52    1.17
   0  -2   4   45.31    1.42
   0  -2   4   43.76    1.27
   0  -2   4   43.86    1.22
  -1   2  -4   51.59    1.37
  -1   2  -4   52.10    1.40
  -1   2  -4   54.14    1.52
  -1   2  -4   51.86    1.61
   1  -2   4   53.23    1.42
   1  -2   4   53.55    1.63
   1  -2   4   52.24    1.37
   1  -2   4   51.35    1.50
  -2   2  -4    6.23    0.33
  -2   2  -4    5.92    0.41
  -2   2  -4    5.89    0.42
   2  -2   4    6.44    0.37
   2  -2   4    6.20    0.32
  -3   2  -4   60.38    1.59
  -3   2  -4   61.98    1.86
  -3   2  -4   63.99    1.89
  -3   2  -4   63.65    1.73
   3  -2   4   62.33    1.61
   3  -2   4   64.16    1.66
  -4   2  -4   -0.04    0.14
  -4   2  -4    0.10    0.13
  -4   2  -4   -0.20    0.14
  -4   2  -4    0.07    0.18
   4  -2   4    0.10    0.12
   4  -2   4    0.10    0.16
  -5   2  -4    0.31    0.24
  -5   2  -4    0.55    0.16
  -5   2  -4    0.66    0.23
   5  -2   4    0.46    0.26
   5  -2   4    0.48    0.22
   5  -2   4    0.54    0.17
  -6   2  -4    3.68    0.51
  -6   2  -4    3.89    0.62
   6  -2   4    3.15    0.44
   6  -2   4    2.60    0.40
  -7   2  -4   -0.13    0.30
  -7   2  -4    0.27    0.33
   7  -2   4    0.24    0.20
   7  -2   4    0.22    0.34
  -8   2  -4    0.65    0.40
   8  -2   4    0.65    0.36
  -9   2  -4    1.82    0.49
   9  -2   4    1.83    0.51
   9   1  -4   -0.14    0.42
  -9  -1   4    0.07    0.61
   8   1  -4    0.12    0.41
  -8  -1   4    0.34    0.35
  -8  -1   4    0.68    0.32
  -8  -1   4    0.25    0.58
   7   1  -4   -0.17    0.32
   7   1  -4    0.06    0.25
  -7  -1   4    0.01    0.27
  -7  -1   4    0.26    0.28
  -7  -1   4   -0.09    0.44
   6   1  -4   -0.26    0.26
  -6  -1   4   -0.09    0.24
  -6  -1   4   -0.34    0.38
  -6  -1   4   -0.27    0.19
  -6  -1   4   -0.10    0.21
   5   1  -4    5.02    0.36
   5   1  -4    5.53    0.45
  -5  -1   4    5.04    0.54
  -5  -1   4    4.63    0.17
  -5  -1   4    5.02    0.40
  -5  -1   4    5.49    0.42
  -5  -1   4    5.00    0.64
   4   1  -4    0.76    0.21
   4   1  -4    0.54    0.21
  -4  -1   4    0.51    0.21
  -4  -1   4    0.90    0.23
  -4  -1   4    0.63    0.15
  -4  -1   4    1.15    0.22
  -4  -1   4    0.79    0.31
   3   1  -4    5.65    0.35
   3   1  -4    5.47    0.36
  -3  -1   4    6.00    0.30
  -3  -1   4    6.18    0.39
  -3  -1   4    5.32    0.39
  -3  -1   4    5.56    0.49
  -3  -1   4    5.90    0.47
   2   1  -4  138.32    3.28
   2   1  -4  135.34    3.86
   2   1  -4  142.72    3.14
   2   1  -4  135.45    3.26
   2   1  -4  138.32    3.42
  -2  -1   4  133.90    3.36
  -2  -1   4  138.15    3.87
  -2  -1   4  136.40    3.51
  -2  -1   4  137.69    3.29
  -2  -1   4  137.46    3.24
  -2  -1   4  137.82    3.12
  -2  -1   4  135.55    3.86
   1   1  -4   49.85    1.36
   1   1  -4   47.52    1.30
   1   1  -4   50.70    1.41
   1   1  -4   50.37    1.33
   1   1  -4   50.84    1.23
   1   1  -4   49.99    1.57
  -1  -1   4   50.95    1.23
  -1  -1   4   49.45    1.30
  -1  -1   4   48.46    1.49
  -1  -1   4   51.02    1.35
  -1  -1   4   48.84    1.39
  -1  -1   4   49.77    1.57
  -1  -1   4   49.17    1.34
   0   1  -4   24.69    0.75
   0   1  -4   25.60    0.77
   0   1  -4   25.35    0.72
   0   1  -4   25.00    0.76
   0   1  -4   26.68    0.93
   0   1  -4   26.32    0.82
   0  -1   4   26.03    0.77
   0  -1   4   25.30    0.77
   0  -1   4   25.86    0.79
   0  -1   4   26.60    0.93
   0  -1   4   25.46    0.72
   0  -1   4   25.57    0.75
   0  -1   4   25.95    0.81
  -1   1  -4  113.21    2.67
  -1   1  -4  114.04    3.16
  -1   1  -4  112.52    2.91
  -1   1  -4  110.62    2.67
  -1   1  -4  113.96    2.70
  -1   1  -4  112.15    2.73
   1  -1   4  110.22    2.70
   1  -1   4  112.60    2.67
   1  -1   4  114.19    2.91
  -2   1  -4    0.56    0.12
  -2   1  -4    0.69    0.15
  -2   1  -4    0.31    0.13
  -2   1  -4    0.22    0.13
  -2   1  -4    0.43    0.06
  -2   1  -4    0.51    0.12
   2  -1   4    0.68    0.16
   2  -1   4    0.68    0.14
   2  -1   4    0.35    0.13
  -3   1  -4   83.79    2.31
  -3   1  -4   81.45    1.99
  -3   1  -4   79.69    2.28
   3  -1   4   84.33    1.98
   3  -1   4   81.14    1.99
   3  -1   4   83.98    2.04
  -4   1  -4   31.41    1.04
  -4   1  -4   29.16    0.82
  -4   1  -4   30.24    1.11
   4  -1   4   30.50    0.88
   4  -1   4   28.91    0.95
   4  -1   4   30.56    0.85
  -5   1  -4    1.20    0.30
  -5   1  -4    1.52    0.29
  -5   1  -4    1.71    0.18
   5  -1   4    1.41    0.30
   5  -1   4    1.55    0.33
   5  -1   4    1.73    0.22
  -6   1  -4    0.08    0.26
  -6   1  -4   -0.21    0.26
   6  -1   4   -0.13    0.20
   6  -1   4    0.06    0.15
   6  -1   4    0.04    0.29
  -7   1  -4    7.91    0.73
  -7   1  -4    7.24    0.80
   7  -1   4    7.25    0.66
   7  -1   4    7.57    0.68
  -8   1  -4    1.22    0.41
   8  -1   4    0.39    0.43
   8  -1   4    1.01    0.41
  -9   1  -4    0.69    0.41
   9  -1   4    0.21    0.39
  10   0  -4   -0.10    0.47
   9   0  -4   -0.30    0.40
   9   0  -4   -0.44    0.27
  -9   0   4    0.00    0.62
   8   0  -4    0.36    0.39
  -8   0   4   -0.43    0.53
  -8   0   4   -0.44    0.28
   7   0  -4   -0.14    0.25
   7   0  -4   -0.09    0.32
  -7   0   4   -0.16    0.24
  -7   0   4   -0.27    0.43
   6   0  -4    8.81    0.59
   6   0  -4    8.55    0.60
  -6   0   4    7.59    0.74
  -6   0   4    8.24    0.53
  -6   0   4    9.55    0.75
   5   0  -4    1.96    0.30
   5   0  -4    2.26    0.33
  -5   0   4    1.11    0.24
  -5   0   4    1.66    0.41
  -5   0   4    1.79    0.27
   4   0  -4   21.61    0.81
   4   0  -4   22.84    0.81
  -4   0   4   23.70    0.98
  -4   0   4   21.92    0.82
  -4   0   4   24.36    1.07
   3   0  -4    0.79    0.16
   3   0  -4    0.59    0.20
   3   0  -4    0.48    0.19
  -3   0   4    0.61    0.17
  -3   0   4    0.78    0.14
  -3   0   4    0.70    0.24
  -3   0   4    0.31    0.20
   2   0  -4    0.54    0.12
   2   0  -4    0.59    0.15
   2   0  -4    0.34    0.16
   2   0  -4    0.33    0.16
   2   0  -4    0.39    0.13
  -2   0   4    0.28    0.18
  -2   0   4    0.40    0.12
  -2   0   4    0.38    0.18
  -2   0   4    0.41    0.15
  -2   0   4    0.44    0.10
  -2   0   4    0.54    0.15
   1   0  -4   67.20    1.63
   1   0  -4   67.86    1.80
   1   0  -4   67.64    2.00
   1   0  -4   66.44    1.70
   1   0  -4   67.36    1.95
   1   0  -4   67.57    1.71
  -1   0   4   67.50    1.72
  -1   0   4   66.62    1.95
  -1   0   4   68.00    1.63
  -1   0   4   69.10    2.01
  -1   0   4   67.16    1.79
  -1   0   4   65.96    1.68
   0   0  -4    0.50    0.10
   0   0  -4    0.66    0.14
   0   0  -4    0.57    0.12
   0   0  -4    0.66    0.11
   0   0  -4    0.50    0.10
   0   0  -4    0.59    0.12
   0   0   4    0.54    0.13
   0   0   4    0.57    0.15
   0   0   4    0.76    0.12
   0   0   4    0.45    0.09
   0   0   4    0.46    0.10
   0   0   4    0.20    0.10
   0   0   4    0.58    0.14
  -1   0  -4  132.43    3.14
  -1   0  -4  133.65    3.40
  -1   0  -4  135.43    3.59
  -1   0  -4  135.79    3.16
  -1   0  -4  135.86    3.15
  -1   0  -4  138.70    3.74
   1   0   4  132.73    3.13
   1   0   4  137.17    2.91
   1   0   4  134.93    3.17
   1   0   4  132.54    3.21
   1   0   4  133.42    3.40
  -2   0  -4   26.66    0.84
  -2   0  -4   26.67    0.87
  -2   0  -4   26.86    0.75
  -2   0  -4   27.39    0.76
  -2   0  -4   26.19    0.74
   2   0   4   27.03    0.88
   2   0   4   26.91    0.75
   2   0   4   26.39    0.78
   2   0   4   26.90    0.78
  -3   0  -4    9.06    0.51
  -3   0  -4    8.81    0.32
  -3   0  -4    9.12    0.34
  -3   0  -4    9.33    0.35
   3   0   4    9.20    0.38
   3   0   4    9.55    0.47
   3   0   4    9.18    0.35
  -4   0  -4    1.30    0.14
  -4   0  -4    0.94    0.20
  -4   0  -4    1.26    0.14
  -4   0  -4    1.23    0.13
   4   0   4    1.30    0.16
   4   0   4    1.11    0.25
   4   0   4    1.23    0.26
   4   0   4    1.03    0.14
  -5   0  -4    3.68    0.19
  -5   0  -4    3.44    0.55
  -5   0  -4    3.94    0.46
   5   0   4    3.83    0.45
   5   0   4    4.00    0.23
   5   0   4    3.67    0.21
   5   0   4    4.66    0.46
  -6   0  -4   -0.46    0.27
  -6   0  -4    0.86    0.33
   6   0   4    0.22    0.29
   6   0   4    0.65    0.33
  -7   0  -4    1.99    0.46
  -7   0  -4    1.80    0.40
   7   0   4    1.92    0.40
   7   0   4    1.63    0.41
  -8   0  -4    0.30    0.36
   8   0   4    0.00    0.39
   8   0   4   -0.37    0.35
  -9   0  -4    0.33    0.38
   9   0   4    0.26    0.43
   9   0   4   -0.20    0.42
  10  -1  -4   -0.05    0.47
   9  -1  -4   -0.02    0.42
   9  -1  -4    0.66    0.34
  -9   1   4    0.85    0.66
   8  -1  -4    0.08    0.37
   8  -1  -4    0.30    0.32
  -8   1   4    0.63    0.59
   7  -1  -4    0.14    0.32
  -7   1   4    0.12    0.37
  -7   1   4   -0.14    0.22
   6  -1  -4   22.65    0.97
   6  -1  -4   24.20    0.94
   6  -1  -4   26.78    0.98
  -6   1   4   22.81    0.88
  -6   1   4   25.55    1.33
  -6   1   4   24.11    1.09
   5  -1  -4    4.34    0.36
   5  -1  -4    5.76    0.48
   5  -1  -4    5.02    0.42
  -5   1   4    4.87    0.63
  -5   1   4    5.33    0.45
  -5   1   4    4.72    0.50
   4  -1  -4    2.83    0.34
   4  -1  -4    2.93    0.38
   4  -1  -4    3.10    0.38
  -4   1   4    3.54    0.44
  -4   1   4    3.32    0.50
  -4   1   4    3.08    0.38
   3  -1  -4    1.19    0.18
   3  -1  -4    0.94    0.18
   3  -1  -4    0.72    0.22
   3  -1  -4    0.68    0.22
  -3   1   4    0.73    0.23
  -3   1   4    1.19    0.24
  -3   1   4    0.95    0.18
   2  -1  -4   14.69    0.56
   2  -1  -4   14.85    0.53
   2  -1  -4   14.17    0.64
   2  -1  -4   14.49    0.57
   2  -1  -4   13.83    0.45
   2  -1  -4   14.72    0.63
  -2   1   4   13.66    0.57
  -2   1   4   13.87    0.65
  -2   1   4   14.49    0.63
  -2   1   4   14.20    0.54
  -2   1   4   15.02    0.52
   1  -1  -4   34.54    1.00
   1  -1  -4   34.64    1.14
   1  -1  -4   35.45    1.17
   1  -1  -4   35.76    0.97
   1  -1  -4   35.04    1.01
  -1   1   4   35.92    1.01
  -1   1   4   35.55    0.96
  -1   1   4   35.38    1.02
  -1   1   4   35.93    0.80
  -1   1   4   35.16    0.99
  -1   1   4   34.87    1.14
   0  -1  -4  173.62    4.06
   0  -1  -4  174.67    4.11
   0  -1  -4  180.94    4.12
   0  -1  -4  183.42    4.79
   0  -1  -4  178.02    4.83
   0  -1  -4  172.98    4.36
   0   1   4  183.55    3.72
   0   1   4  179.38    4.13
   0   1   4  178.52    4.78
   0   1   4  177.06    4.36
   0   1   4  170.77    4.05
   0   1   4  176.86    4.10
  -1  -1  -4   49.57    1.44
  -1  -1  -4   50.06    1.31
  -1  -1  -4   48.04    1.33
  -1  -1  -4   49.33    1.28
  -1  -1  -4   50.04    1.28
   1   1   4   49.17    1.26
   1   1   4   49.91    1.20
   1   1   4   48.51    1.26
   1   1   4   48.71    1.30
   1   1   4   49.96    1.29
   1   1   4   48.46    1.34
  -2  -1  -4    6.52    0.36
  -2  -1  -4    6.10    0.33
  -2  -1  -4    6.41    0.29
  -2  -1  -4    6.26    0.29
   2   1   4    6.29    0.31
   2   1   4    6.36    0.28
   2   1   4    6.45    0.36
  -3  -1  -4    0.81    0.15
  -3  -1  -4    0.60    0.16
  -3  -1  -4    1.03    0.13
  -3  -1  -4    1.00    0.13
   3   1   4    0.99    0.21
   3   1   4    1.06    0.15
   3   1   4    0.91    0.21
  -4  -1  -4    7.91    0.50
  -4  -1  -4    7.68    0.22
  -4  -1  -4    8.03    0.49
   4   1   4    7.65    0.27
   4   1   4    7.83    0.48
   4   1   4    7.45    0.49
   4   1   4    7.50    0.29
  -5  -1  -4    4.40    0.52
   5   1   4    4.99    0.43
   5   1   4    5.81    0.51
  -6  -1  -4    0.43    0.29
  -6  -1  -4    1.17    0.37
   6   1   4    0.86    0.35
   6   1   4    0.49    0.26
  -7  -1  -4    1.99    0.44
  -7  -1  -4    1.22    0.35
   7   1   4    1.32    0.37
   7   1   4    0.83    0.38
  -8  -1  -4   -0.04    0.29
  -8  -1  -4    0.43    0.39
  -8  -1  -4    0.40    0.29
   8   1   4    0.03    0.40
   8   1   4   -0.32    0.35
  -9  -1  -4   -0.14    0.29
  -9  -1  -4    0.37    0.36
   9   1   4   -0.15    0.45
   9   1   4   -0.03    0.39
  10  -2  -4    0.58    0.49
   9  -2  -4    0.40    0.37
   9  -2  -4    0.03    0.41
  -9   2   4    0.40    0.66
   8  -2  -4    8.36    0.71
   8  -2  -4    9.61    0.73
  -8   2   4   10.00    1.09
   7  -2  -4    0.34    0.32
  -7   2   4   -0.28    0.21
  -7   2   4    0.16    0.48
   6  -2  -4   20.03    0.83
  -6   2   4   21.50    0.87
  -6   2   4   21.56    1.22
  -6   2   4   19.53    0.93
   5  -2  -4   13.56    0.67
   5  -2  -4   12.59    0.37
   5  -2  -4   13.03    0.64
   5  -2  -4   13.56    0.59
   5  -2  -4   15.22    0.72
  -5   2   4   14.34    0.70
  -5   2   4   13.42    0.89
  -5   2   4   12.67    0.41
  -5   2   4   13.99    0.66
   4  -2  -4   13.12    0.63
   4  -2  -4   13.14    0.61
   4  -2  -4   13.63    0.64
  -4   2   4   13.90    0.64
  -4   2   4   13.23    0.65
  -4   2   4   13.15    0.79
  -4   2   4   12.90    0.43
   3  -2  -4   53.52    1.41
   3  -2  -4   50.23    1.46
   3  -2  -4   54.36    1.46
   3  -2  -4   54.73    1.67
   3  -2  -4   51.36    1.49
  -3   2   4   53.30    1.50
  -3   2   4   51.99    1.63
  -3   2   4   53.23    1.77
   2  -2  -4   61.89    1.93
   2  -2  -4   61.15    1.64
   2  -2  -4   63.13    1.61
   2  -2  -4   63.32    1.87
   2  -2  -4   61.18    1.66
   2  -2  -4   61.58    1.65
  -2   2   4   58.98    1.62
  -2   2   4   61.03    1.66
  -2   2   4   62.33    1.92
   1  -2  -4  126.45    3.52
   1  -2  -4  126.75    3.49
   1  -2  -4  127.28    3.03
   1  -2  -4  122.72    3.02
   1  -2  -4  125.10    3.24
   1  -2  -4  124.38    2.96
  -1   2   4  126.27    3.52
  -1   2   4  125.21    3.03
  -1   2   4  127.03    2.96
  -1   2   4  125.26    3.13
  -1   2   4  121.85    3.00
   0  -2  -4  172.65    4.10
   0  -2  -4  179.19    4.17
   0  -2  -4  183.45    4.88
   0  -2  -4  184.64    4.50
   0  -2  -4  174.65    4.16
   0   2   4  171.43    4.14
   0   2   4  180.26    4.87
   0   2   4  170.78    4.10
   0   2   4  181.20    4.18
   0   2   4  184.24    3.76
   0   2   4  182.67    4.37
  -1  -2  -4    0.30    0.07
  -1  -2  -4    0.28    0.11
  -1  -2  -4    0.38    0.15
  -1  -2  -4    0.26    0.11
   1   2   4    0.18    0.09
   1   2   4    0.24    0.13
   1   2   4    0.15    0.10
   1   2   4    0.09    0.06
   1   2   4    0.21    0.11
  -2  -2  -4   57.07    1.53
  -2  -2  -4   55.98    1.41
  -2  -2  -4   58.05    1.52
  -2  -2  -4   54.76    1.41
   2   2   4   55.63    1.41
   2   2   4   56.99    1.43
   2   2   4   55.86    1.43
   2   2   4   55.96    1.38
  -3  -2  -4   26.72    0.73
  -3  -2  -4   26.63    0.90
  -3  -2  -4   28.01    0.91
   3   2   4   26.36    0.84
   3   2   4   27.96    0.89
   3   2   4   27.52    0.76
  -4  -2  -4   12.84    0.62
  -4  -2  -4   13.51    0.65
   4   2   4   12.60    0.39
   4   2   4   12.70    0.38
   4   2   4   13.17    0.64
   4   2   4   13.87    0.63
  -5  -2  -4    0.51    0.22
  -5  -2  -4    0.22    0.21
   5   2   4    0.87    0.30
   5   2   4    0.43    0.29
  -6  -2  -4    6.14    0.64
   6   2   4    4.83    0.58
   6   2   4    4.86    0.56
  -7  -2  -4    5.26    0.78
  -7  -2  -4    4.67    0.60
  -7  -2  -4    5.90    0.70
   7   2   4    3.31    0.50
   7   2   4    3.11    0.53
  -8  -2  -4    0.19    0.27
  -8  -2  -4    0.29    0.29
  -8  -2  -4    0.20    0.31
  -8  -2  -4    1.31    0.49
   8   2   4    0.32    0.38
   8   2   4    0.32    0.40
  -9  -2  -4    0.31    0.33
  -9  -2  -4   -0.12    0.28
  -9  -2  -4    0.00    0.24
   9   2   4    0.00    0.42
   9   2   4   -0.06    0.40
   9  -3  -4    0.03    0.37
   9  -3  -4   -0.02    0.40
  -9   3   4   -0.71    0.61
   8  -3  -4    1.46    0.42
   8  -3  -4    1.78    0.42
  -8   3   4    1.77    0.68
   7  -3  -4    0.45    0.34
   7  -3  -4    0.51    0.31
  -7   3   4    0.49    0.53
   6  -3  -4    6.42    0.49
  -6   3   4    6.60    0.55
  -6   3   4    6.18    0.50
  -6   3   4    7.43    0.84
   5  -3  -4   16.31    0.48
   5  -3  -4   17.17    0.65
   5  -3  -4   16.87    0.72
  -5   3   4   18.45    0.82
  -5   3   4   15.12    0.91
  -5   3   4   16.74    0.60
   4  -3  -4    1.55    0.31
   4  -3  -4    1.46    0.23
   4  -3  -4    1.55    0.21
   4  -3  -4    1.06    0.18
  -4   3   4    1.37    0.36
  -4   3   4    1.88    0.31
   3  -3  -4    0.01    0.08
   3  -3  -4   -0.13    0.13
   3  -3  -4   -0.18    0.12
   3  -3  -4    0.01    0.21
  -3   3   4    0.19    0.17
  -3   3   4    0.14    0.26
   2  -3  -4   65.53    1.80
   2  -3  -4   66.75    1.99
   2  -3  -4   67.72    1.75
   2  -3  -4   66.63    1.85
  -2   3   4   65.67    2.07
  -2   3   4   66.53    1.85
  -2   3   4   67.08    1.80
   1  -3  -4    4.76    0.35
   1  -3  -4    4.69    0.35
   1  -3  -4    4.82    0.32
  -1   3   4    5.06    0.41
  -1   3   4    4.84    0.34
  -1   3   4    4.71    0.24
  -1   3   4    4.74    0.33
   0  -3  -4   33.63    1.14
   0  -3  -4   31.73    0.97
   0  -3  -4   31.52    1.09
   0  -3  -4   31.68    0.95
   0   3   4   32.18    0.86
   0   3   4   33.06    0.98
   0   3   4   32.08    0.96
  -1  -3  -4   43.26    1.22
  -1  -3  -4   43.59    1.14
  -1  -3  -4   43.68    1.44
  -1  -3  -4   43.24    1.21
   1   3   4   46.59    1.47
   1   3   4   43.01    1.13
   1   3   4   44.00    1.22
   1   3   4   44.28    1.20
  -2  -3  -4    4.04    0.42
  -2  -3  -4    4.39    0.24
  -2  -3  -4    4.14    0.32
   2   3   4    4.08    0.28
   2   3   4    4.30    0.30
   2   3   4    3.76    0.31
   2   3   4    4.86    0.39
  -3  -3  -4    1.87    0.24
  -3  -3  -4    1.75    0.19
  -3  -3  -4    1.46    0.22
   3   3   4    1.23    0.16
   3   3   4    1.89    0.34
   3   3   4    1.83    0.26
   3   3   4    1.53    0.24
   3   3   4    1.61    0.24
  -4  -3  -4   20.73    0.79
  -4  -3  -4   19.26    0.50
  -4  -3  -4   20.36    0.84
  -4  -3  -4   18.64    0.49
   4   3   4   20.66    0.57
   4   3   4   20.36    0.57
   4   3   4   21.27    0.84
   4   3   4   20.62    0.79
   4   3   4   21.80    1.04
  -5  -3  -4   11.56    0.68
  -5  -3  -4   12.06    0.67
   5   3   4   11.27    0.69
   5   3   4   11.34    0.67
   5   3   4   10.50    0.81
  -6  -3  -4    0.25    0.23
  -6  -3  -4    0.39    0.23
  -6  -3  -4   -0.18    0.22
   6   3   4    0.13    0.31
   6   3   4   -0.19    0.33
  -7  -3  -4    0.31    0.25
  -7  -3  -4    0.11    0.24
  -7  -3  -4    0.24    0.23
   7   3   4   -0.12    0.34
   7   3   4   -0.08    0.34
  -8  -3  -4    0.39    0.38
  -8  -3  -4    0.08    0.24
  -8  -3  -4    0.20    0.28
  -8  -3  -4    0.03    0.26
  -8  -3  -4    0.69    0.49
   8   3   4    0.16    0.43
   8   3   4   -0.24    0.35
   9  -4  -4    0.14    0.44
   9  -4  -4   -0.01    0.41
  -9   4   4   -1.25    0.65
   8  -4  -4    1.23    0.43
   8  -4  -4    0.91    0.42
  -8   4   4    0.73    0.67
   7  -4  -4    0.05    0.30
   7  -4  -4    0.01    0.39
  -7   4   4   -0.15    0.53
   6  -4  -4    4.66    0.61
   6  -4  -4    4.45    0.41
  -6   4   4    4.68    0.81
  -6   4   4    4.36    0.58
   5  -4  -4   17.57    0.65
   5  -4  -4   19.37    0.91
   5  -4  -4   15.78    0.69
  -5   4   4   19.09    0.89
  -5   4   4   16.84    0.98
  -5   4   4   17.13    0.71
   4  -4  -4    5.50    0.40
   4  -4  -4    5.33    0.39
   4  -4  -4    5.22    0.31
  -4   4   4    5.20    0.51
  -4   4   4    5.62    0.65
  -4   4   4    5.39    0.39
   3  -4  -4   -0.07    0.09
   3  -4  -4    0.05    0.16
   3  -4  -4   -0.15    0.13
  -3   4   4    0.00    0.17
  -3   4   4    0.06    0.09
  -3   4   4    0.25    0.29
   2  -4  -4    0.20    0.14
   2  -4  -4    0.41    0.16
   2  -4  -4    0.22    0.11
  -2   4   4    0.29    0.11
  -2   4   4    0.05    0.22
  -2   4   4    0.54    0.27
   1  -4  -4    0.32    0.13
   1  -4  -4    0.64    0.17
  -1   4   4    0.26    0.24
  -1   4   4    0.48    0.19
  -1   4   4    0.42    0.08
   0  -4  -4    0.03    0.11
   0  -4  -4    0.28    0.14
   0   4   4    0.00    0.17
   0   4   4   -0.02    0.18
   0   4   4    0.39    0.05
   0   4   4    0.34    0.20
  -1  -4  -4    5.09    0.34
  -1  -4  -4    5.00    0.47
  -1  -4  -4    4.88    0.34
   1   4   4    5.34    0.41
   1   4   4    4.65    0.37
   1   4   4    4.45    0.33
  -2  -4  -4   22.86    1.00
  -2  -4  -4   22.17    0.78
  -2  -4  -4   20.70    0.72
  -2  -4  -4   22.29    0.63
   2   4   4   22.41    1.00
   2   4   4   22.66    0.75
   2   4   4   21.47    0.74
   2   4   4   22.54    0.78
  -3  -4  -4    9.56    0.71
  -3  -4  -4    9.03    0.40
  -3  -4  -4    9.24    0.42
  -3  -4  -4    8.44    0.53
   3   4   4    8.54    0.62
   3   4   4    9.65    0.55
   3   4   4    9.09    0.42
   3   4   4    8.96    0.48
   3   4   4    9.65    0.45
  -4  -4  -4    7.90    0.48
  -4  -4  -4    8.20    0.56
  -4  -4  -4    6.52    0.75
   4   4   4    7.44    0.52
   4   4   4    7.52    0.37
   4   4   4    7.44    0.58
   4   4   4    6.46    0.69
   4   4   4    6.76    0.35
  -5  -4  -4    4.78    0.51
  -5  -4  -4    4.10    0.69
  -5  -4  -4    4.21    0.45
   5   4   4    3.17    0.62
   5   4   4    3.00    0.44
   5   4   4    3.80    0.52
  -6  -4  -4    0.22    0.23
  -6  -4  -4    0.73    0.23
  -6  -4  -4    0.46    0.26
   6   4   4    0.52    0.28
   6   4   4   -0.18    0.41
   6   4   4    0.43    0.38
  -7  -4  -4   -0.09    0.23
  -7  -4  -4    0.19    0.23
  -7  -4  -4   -0.08    0.22
   7   4   4    0.22    0.36
   7   4   4   -0.16    0.35
  -8  -4  -4   -0.15    0.24
  -8  -4  -4    0.04    0.25
  -8  -4  -4    0.51    0.38
   8   4   4   -0.29    0.42
   8   4   4   -0.09    0.39
   9  -5  -4    0.21    0.37
   9  -5  -4    0.60    0.49
   8  -5  -4    0.82    0.38
   8  -5  -4    0.88    0.50
  -8   5   4   -0.85    0.71
   7  -5  -4    6.16    0.83
   7  -5  -4    6.13    0.54
   6  -5  -4    0.43    0.37
  -6   5   4    0.59    0.34
  -6   5   4    0.72    0.56
   5  -5  -4    8.34    0.43
   5  -5  -4    7.03    0.53
   5  -5  -4    9.19    0.74
  -5   5   4    7.38    0.88
  -5   5   4    8.58    0.67
   4  -5  -4    0.64    0.34
   4  -5  -4    1.00    0.17
   4  -5  -4    0.58    0.16
   4  -5  -4    0.52    0.16
  -4   5   4    0.82    0.34
  -4   5   4    1.18    0.38
   3  -5  -4    9.68    0.58
   3  -5  -4    9.04    0.30
   3  -5  -4    9.61    0.64
   3  -5  -4    8.29    0.52
  -3   5   4    9.18    0.62
  -3   5   4    8.52    0.64
   2  -5  -4    2.92    0.37
   2  -5  -4    3.33    0.39
   2  -5  -4    3.32    0.39
  -2   5   4    2.86    0.43
  -2   5   4    3.48    0.49
   1  -5  -4    0.10    0.13
   1  -5  -4    0.16    0.22
   1  -5  -4    0.23    0.16
  -1   5   4    0.27    0.19
  -1   5   4    0.02    0.24
  -1   5   4    0.16    0.06
  -1   5   4    0.22    0.19
   0  -5  -4    1.39    0.26
   0  -5  -4    1.22    0.21
   0   5   4    1.67    0.31
   0   5   4    1.49    0.27
   0   5   4    1.17    0.27
  -1  -5  -4    0.23    0.16
  -1  -5  -4    0.05    0.16
  -1  -5  -4    0.28    0.21
   1   5   4    0.26    0.21
   1   5   4    0.36    0.28
   1   5   4   -0.05    0.20
  -2  -5  -4   46.20    1.36
  -2  -5  -4   47.14    1.35
  -2  -5  -4   47.38    1.69
   2   5   4   46.02    1.71
   2   5   4   48.84    1.36
   2   5   4   45.91    1.35
  -3  -5  -4    8.48    0.43
  -3  -5  -4    7.80    0.79
  -3  -5  -4    8.24    0.37
  -3  -5  -4    9.42    0.57
   3   5   4    8.08    0.73
   3   5   4    8.80    0.49
   3   5   4    9.06    0.51
   3   5   4    8.67    0.48
  -4  -5  -4   -0.21    0.21
  -4  -5  -4    0.13    0.19
   4   5   4   -0.38    0.16
  -5  -5  -4    0.17    0.21
  -5  -5  -4    0.04    0.15
  -5  -5  -4    0.00    0.21
   5   5   4   -0.15    0.30
   5   5   4    0.07    0.31
   5   5   4   -0.31    0.39
  -6  -5  -4   -0.06    0.21
  -6  -5  -4   -0.41    0.22
   6   5   4   -0.18    0.43
   6   5   4    0.30    0.27
   6   5   4   -0.19    0.34
  -7  -5  -4    0.02    0.25
  -7  -5  -4    0.12    0.25
   7   5   4    0.01    0.39
   7   5   4   -0.39    0.46
  -8  -5  -4    0.60    0.44
  -8  -5  -4   -0.08    0.27
   8   5   4   -0.36    0.44
   8  -6  -4    0.56    0.54
  -8   6   4   -1.10    0.69
   7  -6  -4    1.04    0.53
  -7   6   4   -0.54    0.63
   6  -6  -4    2.31    0.54
  -6   6   4    1.75    0.44
  -6   6   4    1.66    0.66
   5  -6  -4    0.16    0.38
   5  -6  -4    0.11    0.15
  -5   6   4   -0.11    0.48
  -5   6   4   -0.08    0.32
   4  -6  -4    1.91    0.45
   4  -6  -4    0.99    0.21
  -4   6   4    1.47    0.50
  -4   6   4    1.52    0.35
   3  -6  -4    0.51    0.19
   3  -6  -4    0.95    0.36
  -3   6   4    0.79    0.35
  -3   6   4    0.78    0.41
   2  -6  -4    0.23    0.19
   2  -6  -4    0.20    0.28
   2  -6  -4    0.23    0.16
  -2   6   4    0.42    0.22
  -2   6   4    0.28    0.26
  -2   6   4    0.09    0.23
   1  -6  -4    8.92    0.64
   1  -6  -4    8.16    0.54
   1  -6  -4    7.90    0.51
  -1   6   4    8.35    0.60
  -1   6   4    7.88    0.24
  -1   6   4    7.33    0.23
  -1   6   4    9.34    0.56
   0  -6  -4    5.12    0.48
   0  -6  -4    5.89    0.60
   0  -6  -4    6.16    0.51
   0   6   4    5.34    0.46
   0   6   4    6.78    0.53
  -1  -6  -4    1.85    0.32
  -1  -6  -4    1.23    0.24
  -1  -6  -4    1.09    0.25
   1   6   4    1.75    0.35
   1   6   4    1.37    0.31
   1   6   4    1.45    0.43
  -2  -6  -4   48.75    1.45
  -2  -6  -4   49.43    1.45
  -2  -6  -4   49.73    1.82
   2   6   4   47.79    1.46
   2   6   4   44.19    1.81
   2   6   4   51.69    1.47
  -3  -6  -4    0.82    0.28
  -3  -6  -4    1.54    0.28
   3   6   4    1.20    0.40
   3   6   4    1.53    0.29
   3   6   4    1.73    0.32
  -4  -6  -4    0.29    0.21
  -4  -6  -4    0.49    0.25
   4   6   4   -0.01    0.42
   4   6   4    0.49    0.21
   4   6   4    0.90    0.31
  -5  -6  -4    0.24    0.21
  -5  -6  -4    0.40    0.27
   5   6   4    0.54    0.37
   5   6   4    0.18    0.43
   5   6   4    0.24    0.16
  -6  -6  -4    0.50    0.26
  -6  -6  -4    0.43    0.31
   6   6   4    1.61    0.47
   6   6   4    0.64    0.41
  -7  -6  -4    0.63    0.44
  -7  -6  -4    0.45    0.32
   7   6   4    1.37    0.50
   7   6   4    0.93    0.61
   8  -7  -4    0.37    0.53
  -8   7   4    0.74    0.39
   7  -7  -4    0.09    0.53
   6  -7  -4    1.52    0.53
  -6   7   4    0.55    0.62
  -6   7   4    1.18    0.44
   5  -7  -4    2.77    0.55
   5  -7  -4    1.22    0.26
  -5   7   4    2.18    0.46
  -5   7   4    2.10    0.64
   4  -7  -4    0.30    0.38
   4  -7  -4   -0.06    0.18
  -4   7   4   -0.04    0.45
  -4   7   4    0.17    0.19
  -4   7   4   -0.09    0.35
   3  -7  -4    8.80    0.76
   3  -7  -4    8.05    0.65
  -3   7   4    8.16    0.63
  -3   7   4    9.21    0.51
  -3   7   4    8.53    0.84
   2  -7  -4    0.37    0.33
   2  -7  -4    0.10    0.23
   2  -7  -4    0.02    0.18
  -2   7   4    0.34    0.11
  -2   7   4    0.36    0.27
  -2   7   4    0.38    0.26
   1  -7  -4    1.47    0.37
   1  -7  -4    0.59    0.25
   1  -7  -4    0.64    0.24
  -1   7   4    1.27    0.34
  -1   7   4    1.26    0.37
   0  -7  -4   59.87    2.10
   0  -7  -4   59.54    1.84
   0  -7  -4   60.40    1.74
   0   7   4   64.82    1.85
   0   7   4   56.34    2.03
  -1  -7  -4    1.97    0.35
  -1  -7  -4    3.97    0.66
  -1  -7  -4    1.89    0.30
   1   7   4    2.24    0.49
   1   7   4    3.81    0.56
  -2  -7  -4    0.81    0.24
  -2  -7  -4    0.70    0.26
  -2  -7  -4    1.34    0.30
   2   7   4    1.17    0.38
   2   7   4    1.40    0.31
  -3  -7  -4    1.35    0.27
  -3  -7  -4    1.18    0.31
   3   7   4    1.58    0.51
   3   7   4    1.90    0.33
   3   7   4    2.35    0.33
  -4  -7  -4    0.09    0.28
  -4  -7  -4   -0.14    0.19
   4   7   4    0.05    0.29
   4   7   4   -0.39    0.39
   4   7   4   -0.09    0.21
  -5  -7  -4    0.10    0.27
   5   7   4    0.19    0.51
   5   7   4    0.10    0.18
   5   7   4    0.71    0.39
  -6  -7  -4    1.22    0.37
   6   7   4    1.81    0.49
   6   7   4    1.55    0.65
   7   7   4   -0.10    0.42
   7   7   4    0.37    0.48
  -8   8   4    0.80    0.40
   7  -8  -4   -0.58    0.55
  -7   8   4    0.36    0.33
   6  -8  -4   -0.18    0.45
  -6   8   4    0.31    0.28
  -6   8   4   -0.12    0.40
   5  -8  -4    0.19    0.35
   5  -8  -4   -0.18    0.21
  -5   8   4    0.24    0.40
  -5   8   4    0.26    0.25
  -5   8   4   -0.42    0.53
   4  -8  -4    0.20    0.40
   4  -8  -4   -0.08    0.21
  -4   8   4    0.17    0.49
  -4   8   4    0.18    0.38
  -4   8   4    0.26    0.20
   3  -8  -4    1.38    0.45
  -3   8   4    1.18    0.43
   2  -8  -4    5.68    0.70
   2  -8  -4    5.86    0.73
  -2   8   4    4.98    0.50
  -2   8   4    5.09    0.69
   1  -8  -4   -0.19    0.33
   1  -8  -4   -0.01    0.23
   1  -8  -4    0.17    0.22
  -1   8   4   -0.01    0.32
  -1   8   4   -0.21    0.33
   0  -8  -4    8.06    0.67
   0  -8  -4    8.67    0.58
   0  -8  -4    9.11    0.85
   0   8   4    9.70    0.72
   0   8   4    8.02    0.69
  -1  -8  -4   -0.18    0.23
  -1  -8  -4    0.00    0.25
  -1  -8  -4   -0.03    0.20
   1   8   4    0.21    0.37
   1   8   4    0.04    0.29
  -2  -8  -4    0.29    0.21
  -2  -8  -4    0.07    0.25
   2   8   4    0.11    0.39
   2   8   4    0.22    0.28
  -3  -8  -4    0.42    0.30
  -3  -8  -4    0.14    0.21
   3   8   4    0.22    0.43
   3   8   4    0.25    0.28
  -4  -8  -4    6.84    0.94
   4   8   4    4.15    0.65
   4   8   4    5.95    0.53
   4   8   4    6.45    0.55
  -5  -8  -4   -0.09    0.30
   5   8   4   -0.12    0.48
   5   8   4    0.35    0.40
  -6  -8  -4    0.22    0.36
   6   8   4    0.59    0.48
   6   8   4   -0.36    0.55
  -7   9   4   -1.12    0.67
   6  -9  -4    0.23    0.52
  -6   9   4    0.57    0.47
  -6   9   4   -0.36    0.61
   5  -9  -4    0.03    0.45
  -5   9   4   -0.42    0.41
  -5   9   4   -0.16    0.55
   4  -9  -4   -0.22    0.26
   4  -9  -4    0.31    0.45
  -4   9   4    0.46    0.45
   3  -9  -4   -0.33    0.25
   3  -9  -4    0.04    0.40
  -3   9   4   -0.26    0.39
   2  -9  -4   -0.09    0.36
   2  -9  -4   -0.20    0.23
  -2   9   4   -0.19    0.31
  -2   9   4   -0.35    0.38
   1  -9  -4   -0.36    0.22
   1  -9  -4   -0.03    0.33
  -1   9   4   -0.14    0.34
  -1   9   4   -0.08    0.37
   0  -9  -4   -0.21    0.19
   0  -9  -4   -0.39    0.22
   0  -9  -4   -0.25    0.29
   0   9   4   -0.10    0.31
   0   9   4   -0.32    0.32
  -1  -9  -4    0.51    0.24
  -1  -9  -4    0.73    0.31
   1   9   4    0.52    0.43
   1   9   4    1.08    0.39
  -2  -9  -4    0.26    0.29
  -2  -9  -4   -0.23    0.21
   2   9   4    0.00    0.30
   2   9   4    0.06    0.31
  -3  -9  -4    0.25    0.30
   3   9   4    0.67    0.35
   3   9   4    0.53    0.52
  -4  -9  -4   -0.18    0.29
   4   9   4    0.03    0.51
   4   9   4    0.06    0.28
   5   9   4    0.28    0.59
  -6  10   4   -0.06    0.47
   5 -10  -4   -0.21    0.27
   5 -10  -4    0.80    0.53
  -5  10   4    0.33    0.49
   4 -10  -4    1.24    0.54
  -4  10   4    1.22    0.52
   3 -10  -4    0.14    0.34
   3 -10  -4   -0.58    0.28
  -3  10   4    0.30    0.44
   2 -10  -4   -0.48    0.25
   2 -10  -4   -0.22    0.37
  -2  10   4   -0.33    0.38
   1 -10  -4   -0.18    0.29
   1 -10  -4    0.11    0.36
  -1  10   4    0.25    0.35
  -1  10   4    0.06    0.39
   0 -10  -4    0.13    0.29
   0  10   4    0.56    0.40
   0  10   4    0.43    0.41
  -1 -10  -4    0.11    0.29
   1  10   4    0.36    0.43
   1  10   4    0.79    0.41
  -2 -10  -4   -0.23    0.30
   2  10   4    0.03    0.38
   2  10   4   -0.01    0.47
  -3 -10  -4    0.10    0.33
  -3 -10  -4    0.25    0.36
   3  10   4    0.24    0.52
   3  10   4   -0.03    0.34
   4  10   4   -0.36    0.54
   4  10   4   -0.44    0.29
   5 -11  -4   -0.71    0.33
  -5  11   4    0.47    0.54
   4 -11  -4    0.77    0.54
  -4  11   4    0.59    0.52
   3 -11  -4    0.73    0.50
  -3  11   4    0.72    0.51
   2 -11  -4   -0.17    0.31
   2 -11  -4    0.46    0.47
  -2  11   4   -0.07    0.45
   1 -11  -4   -0.37    0.28
  -1  11   4    0.21    0.44
  -1  11   4    0.01    0.42
   0 -11  -4    0.27    0.32
   0 -11  -4    0.09    0.32
   0  11   4   -0.07    0.46
   0  11   4   -0.37    0.38
  -1 -11  -4    0.41    0.37
  -1 -11  -4    0.07    0.33
   1  11   4    0.28    0.43
   1  11   4   -0.22    0.47
  -2 -11  -4    0.54    0.40
   2  11   4   -0.05    0.48
   0 -12   5    0.19    0.49
   1 -12   5    0.08    0.50
  -3 -11   5   -0.24    0.35
  -3 -11   5    0.42    0.47
   2  11  -5    0.14    0.43
  -2 -11   5   -0.58    0.29
  -2 -11   5    0.00    0.36
   1  11  -5    1.28    0.54
  -1 -11   5    0.74    0.39
  -1 -11   5    0.15    0.35
   0  11  -5    0.57    0.47
   0 -11   5   -0.32    0.30
   0 -11   5   -0.17    0.32
   0 -11   5    0.60    0.45
  -1  11  -5    1.11    0.50
   1 -11   5    0.85    0.37
   1 -11   5    1.44    0.54
  -2  11  -5   -0.19    0.33
   2 -11   5    0.06    0.45
  -3  11  -5    0.30    0.47
   3 -11   5   -0.03    0.51
  -4  11  -5   -0.21    0.45
   5  10  -5    0.53    0.53
   4  10  -5    0.75    0.46
   4  10  -5    0.53    0.41
  -4 -10   5    0.77    0.49
  -3 -10   5    0.94    0.36
  -3 -10   5    1.59    0.50
   2  10  -5    0.71    0.42
  -2 -10   5   -0.01    0.30
  -2 -10   5    0.75    0.41
   1  10  -5    0.31    0.40
  -1 -10   5   -0.17    0.31
  -1 -10   5    0.26    0.38
  -1 -10   5   -0.15    0.29
   0  10  -5   -0.35    0.22
   0  10  -5   -0.53    0.35
   0 -10   5   -0.26    0.24
   0 -10   5    0.30    0.40
   0 -10   5   -0.07    0.29
  -1  10  -5    0.11    0.24
  -1  10  -5    0.66    0.42
   1 -10   5    0.78    0.45
   1 -10   5    0.06    0.28
   1 -10   5   -0.03    0.26
  -2  10  -5    0.01    0.41
  -2  10  -5   -0.48    0.24
   2 -10   5   -0.44    0.39
  -3  10  -5   -0.40    0.38
   3 -10   5   -0.22    0.44
  -4  10  -5   -0.51    0.33
  -4  10  -5    0.03    0.42
   4 -10   5    0.22    0.54
  -5  10  -5   -0.64    0.41
   6   9  -5   -0.37    0.51
   6   9  -5    0.15    0.42
   5   9  -5   -0.38    0.38
   5   9  -5   -0.54    0.40
  -5  -9   5    0.03    0.43
   4   9  -5    1.51    0.50
  -4  -9   5    0.86    0.43
  -4  -9   5    0.21    0.29
   3   9  -5    1.84    0.51
  -3  -9   5    0.31    0.27
  -3  -9   5    0.57    0.39
   2   9  -5    0.29    0.37
  -2  -9   5    0.00    0.33
  -2  -9   5   -0.49    0.24
  -2  -9   5   -0.22    0.29
   1   9  -5   -0.03    0.21
   1   9  -5   -0.01    0.34
  -1  -9   5   -0.18    0.24
  -1  -9   5    0.17    0.33
  -1  -9   5    0.11    0.28
   0   9  -5    0.55    0.38
   0   9  -5    0.27    0.26
   0  -9   5    0.66    0.39
   0  -9   5    0.08    0.26
   0  -9   5    0.73    0.34
  -1   9  -5    1.87    0.41
  -1   9  -5    1.38    0.32
   1  -9   5    1.80    0.49
   1  -9   5    1.34    0.34
   1  -9   5    1.43    0.34
  -2   9  -5    1.06    0.34
  -2   9  -5    1.72    0.47
   2  -9   5    2.06    0.53
   2  -9   5    1.12    0.33
  -3   9  -5   -0.12    0.35
   3  -9   5    0.01    0.44
  -4   9  -5   -0.52    0.33
   4  -9   5   -0.28    0.44
  -5   9  -5   -0.47    0.39
   5  -9   5    0.14    0.50
  -6   9  -5    0.17    0.43
   7   8  -5    0.23    0.39
   7   8  -5    0.25    0.47
   6   8  -5    0.16    0.39
   6   8  -5   -0.04    0.46
  -6  -8   5    0.07    0.41
   5   8  -5    0.23    0.40
  -5  -8   5    0.07    0.37
  -5  -8   5   -0.08    0.24
   4   8  -5    0.06    0.35
  -4  -8   5   -0.08    0.33
  -4  -8   5   -0.44    0.21
   3   8  -5    4.80    0.66
  -3  -8   5    6.02    0.86
  -3  -8   5    4.42    0.72
  -3  -8   5    5.17    0.64
   2   8  -5    9.02    0.73
  -2  -8   5    7.67    0.71
  -2  -8   5    8.42    0.89
  -2  -8   5    8.23    0.82
   1   8  -5    6.75    0.58
   1   8  -5    7.64    0.69
  -1  -8   5    7.21    0.79
  -1  -8   5    7.34    0.81
  -1  -8   5    7.70    0.70
   0   8  -5   10.25    0.77
   0   8  -5    9.57    0.68
   0  -8   5    9.57    0.78
   0  -8   5    9.76    0.88
   0  -8   5    9.72    0.87
  -1   8  -5    6.36    0.66
  -1   8  -5    6.08    0.62
   1  -8   5    5.65    0.68
   1  -8   5    6.51    0.78
   1  -8   5    5.97    0.70
  -2   8  -5   -0.11    0.32
   2  -8   5   -0.35    0.32
   2  -8   5   -0.29    0.22
  -3   8  -5    0.67    0.37
  -3   8  -5   -0.17    0.32
   3  -8   5    0.31    0.41
  -4   8  -5   -0.30    0.32
  -4   8  -5    0.47    0.36
   4  -8   5    0.32    0.44
  -5   8  -5    1.15    0.46
   5  -8   5    2.17    0.56
  -6   8  -5    0.23    0.41
   6  -8   5    0.68    0.49
   7   7  -5    1.67    0.43
   7   7  -5    1.38    0.53
  -7  -7   5    1.49    0.57
  -7  -7   5    2.50    0.75
   6   7  -5   -0.34    0.39
   6   7  -5    0.11    0.36
  -6  -7   5    0.25    0.41
   5   7  -5    2.42    0.45
  -5  -7   5    0.99    0.27
  -5  -7   5    1.64    0.49
   4   7  -5    0.17    0.33
  -4  -7   5    0.28    0.35
  -4  -7   5   -0.04    0.21
   3   7  -5    2.94    0.46
  -3  -7   5    1.42    0.30
  -3  -7   5    2.79    0.46
  -3  -7   5    1.67    0.44
   2   7  -5    1.15    0.36
  -2  -7   5    0.21    0.33
  -2  -7   5    1.01    0.38
   1   7  -5   15.20    0.82
   1   7  -5   13.12    0.75
  -1  -7   5   13.47    0.81
  -1  -7   5   13.80    0.96
  -1  -7   5   13.29    0.90
   0   7  -5    2.38    0.41
   0   7  -5    1.91    0.33
   0  -7   5    1.30    0.29
   0  -7   5    2.54    0.44
   0  -7   5    1.47    0.33
  -1   7  -5   14.20    0.80
  -1   7  -5   15.42    0.84
   1  -7   5   14.70    0.87
   1  -7   5   14.01    0.95
   1  -7   5   13.85    0.84
  -2   7  -5    5.70    0.63
  -2   7  -5    6.24    0.64
   2  -7   5    5.87    0.61
   2  -7   5    5.79    0.70
  -3   7  -5    2.11    0.40
  -3   7  -5    1.96    0.42
   3  -7   5    1.46    0.27
   3  -7   5    2.49    0.50
  -4   7  -5    0.59    0.33
  -4   7  -5    0.54    0.33
   4  -7   5    0.96    0.43
  -5   7  -5    0.62    0.38
   5  -7   5    0.91    0.49
  -6   7  -5    1.71    0.45
   6  -7   5    2.55    0.54
  -7   7  -5    1.93    0.50
   7  -7   5    3.28    0.62
   8   6  -5   -0.24    0.42
   7   6  -5    0.54    0.37
   7   6  -5    0.42    0.45
  -7  -6   5    1.38    0.67
  -7  -6   5    0.39    0.41
   6   6  -5    1.56    0.41
   6   6  -5    1.43    0.46
  -6  -6   5    1.01    0.45
   5   6  -5    1.30    0.41
  -5  -6   5    0.29    0.21
  -5  -6   5    0.59    0.39
   4   6  -5   -0.13    0.32
  -4  -6   5   -0.08    0.30
  -4  -6   5   -0.01    0.32
  -4  -6   5   -0.11    0.17
   3   6  -5    1.37    0.35
  -3  -6   5    0.74    0.23
  -3  -6   5    0.73    0.35
  -3  -6   5    1.66    0.40
   2   6  -5   37.71    1.29
  -2  -6   5   36.35    1.62
  -2  -6   5   38.52    1.46
  -2  -6   5   38.22    1.35
   1   6  -5   46.90    1.47
   1   6  -5   42.59    1.05
   1   6  -5   45.09    1.52
  -1  -6   5   45.72    1.63
  -1  -6   5   46.11    1.77
  -1  -6   5   46.51    1.52
   0   6  -5   44.18    1.42
   0   6  -5   42.94    1.46
   0  -6   5   44.15    1.48
   0  -6   5   43.92    1.60
   0  -6   5   43.41    1.65
  -1   6  -5    0.54    0.23
  -1   6  -5    0.50    0.29
   1  -6   5    0.53    0.25
   1  -6   5    0.60    0.27
   1  -6   5    0.29    0.20
  -2   6  -5    1.39    0.29
  -2   6  -5    1.45    0.35
   2  -6   5    1.07    0.23
   2  -6   5    1.19    0.27
   2  -6   5    1.38    0.37
  -3   6  -5   16.67    0.89
  -3   6  -5   16.16    0.81
   3  -6   5   15.21    0.77
   3  -6   5   16.33    0.90
  -4   6  -5    0.50    0.28
  -4   6  -5    0.14    0.30
   4  -6   5    0.57    0.36
  -5   6  -5    5.11    0.74
   5  -6   5    6.34    0.69
  -6   6  -5    2.66    0.48
  -7   6  -5    1.06    0.44
   7  -6   5    1.96    0.49
   8  -6   5    1.15    0.44
   8  -6   5    1.01    0.49
   8   5  -5   -0.02    0.45
  -8  -5   5    0.58    0.68
  -8  -5   5    0.11    0.45
   7   5  -5    0.08    0.34
   7   5  -5    0.39    0.42
  -7  -5   5   -0.11    0.40
  -7  -5   5    0.37    0.60
   6   5  -5   -0.39    0.30
  -6  -5   5   -0.19    0.37
  -6  -5   5   -0.52    0.47
   5   5  -5    3.75    0.51
  -5  -5   5    3.70    0.52
  -5  -5   5    2.24    0.48
   4   5  -5   23.78    0.95
  -4  -5   5   22.50    0.99
  -4  -5   5   23.49    0.98
  -4  -5   5   22.82    1.31
   3   5  -5    1.17    0.31
  -3  -5   5    0.58    0.18
  -3  -5   5    0.82    0.30
  -3  -5   5    0.77    0.30
   2   5  -5    0.06    0.22
   2   5  -5   -0.11    0.16
  -2  -5   5   -0.04    0.14
  -2  -5   5   -0.14    0.21
  -2  -5   5    0.05    0.23
   1   5  -5    9.50    0.31
   1   5  -5   10.02    0.58
   1   5  -5    9.77    0.56
  -1  -5   5   10.29    0.63
  -1  -5   5    9.66    0.61
  -1  -5   5    9.99    0.70
   0   5  -5    4.73    0.39
   0   5  -5    5.93    0.46
   0   5  -5    5.01    0.28
   0  -5   5    5.49    0.53
   0  -5   5    5.31    0.43
   0  -5   5    5.58    0.51
  -1   5  -5    4.98    0.46
  -1   5  -5    4.72    0.43
   1  -5   5    4.05    0.31
   1  -5   5    4.92    0.47
   1  -5   5    4.40    0.51
  -2   5  -5    0.91    0.26
  -2   5  -5    0.48    0.21
   2  -5   5    0.54    0.15
   2  -5   5    0.46    0.20
   2  -5   5    0.67    0.24
  -3   5  -5    1.81    0.31
  -3   5  -5    2.29    0.33
  -3   5  -5    1.63    0.34
   3  -5   5    1.77    0.39
   3  -5   5    2.30    0.21
  -4   5  -5    4.41    0.48
  -4   5  -5    6.01    0.64
   4  -5   5    5.07    0.59
  -5   5  -5   15.51    0.76
  -5   5  -5   18.34    1.05
   5  -5   5   18.89    0.95
  -6   5  -5    6.23    0.80
   6  -5   5    8.04    0.73
  -7   5  -5    2.02    0.50
   7  -5   5    4.07    0.62
   7  -5   5    2.24    0.50
  -8   5  -5    0.26    0.40
   8  -5   5   -0.29    0.40
   8  -5   5    0.29    0.35
   9   4  -5   -0.56    0.42
  -9  -4   5   -0.25    0.42
   8   4  -5   -0.04    0.41
   8   4  -5   -0.07    0.29
  -8  -4   5   -0.09    0.40
  -8  -4   5   -0.11    0.61
   7   4  -5    0.85    0.36
   7   4  -5    0.20    0.39
  -7  -4   5    1.17    0.65
  -7  -4   5    0.29    0.39
   6   4  -5    0.74    0.34
  -6  -4   5    0.26    0.52
  -6  -4   5    0.12    0.37
   5   4  -5   13.11    0.73
  -5  -4   5   12.98    1.01
  -5  -4   5   11.98    0.65
  -5  -4   5   11.70    0.63
  -5  -4   5   12.85    1.01
   4   4  -5   23.48    0.91
   4   4  -5   27.32    0.98
   4   4  -5   22.36    0.93
  -4  -4   5   24.49    1.25
  -4  -4   5   25.93    0.94
  -4  -4   5   25.05    0.95
  -4  -4   5   22.60    0.59
   3   4  -5    4.01    0.41
   3   4  -5    3.91    0.38
  -3  -4   5    3.95    0.43
  -3  -4   5    4.07    0.51
  -3  -4   5    4.17    0.41
   2   4  -5    2.32    0.31
   2   4  -5    2.41    0.33
  -2  -4   5    2.41    0.37
  -2  -4   5    1.85    0.31
  -2  -4   5    2.36    0.34
   1   4  -5   26.11    0.70
   1   4  -5   25.46    0.91
   1   4  -5   27.14    0.98
  -1  -4   5   26.08    0.99
  -1  -4   5   26.88    1.13
  -1  -4   5   26.54    0.97
   0   4  -5   15.17    0.68
   0   4  -5   14.06    0.49
   0   4  -5   14.50    0.61
   0  -4   5   15.15    0.77
   0  -4   5   15.04    0.66
  -1   4  -5    3.08    0.34
  -1   4  -5    2.79    0.36
   1  -4   5    3.04    0.22
   1  -4   5    3.60    0.45
   1  -4   5    2.91    0.37
  -2   4  -5   17.42    0.79
  -2   4  -5   17.16    0.80
  -2   4  -5   18.29    0.72
   2  -4   5   18.36    0.81
   2  -4   5   17.19    0.56
   2  -4   5   17.76    0.76
  -3   4  -5   -0.29    0.17
  -3   4  -5    0.00    0.11
  -3   4  -5   -0.01    0.15
   3  -4   5   -0.05    0.22
   3  -4   5   -0.13    0.18
  -4   4  -5   -0.02    0.23
  -4   4  -5   -0.38    0.22
  -4   4  -5   -0.15    0.12
   4  -4   5   -0.42    0.26
   4  -4   5    0.03    0.19
  -5   4  -5    4.24    0.43
  -5   4  -5    4.22    0.65
   5  -4   5    4.74    0.56
  -6   4  -5    7.21    0.78
   6  -4   5    7.50    0.63
   6  -4   5    6.02    0.65
  -7   4  -5    0.48    0.37
   7  -4   5    0.57    0.32
   7  -4   5   -0.27    0.35
  -8   4  -5    0.31    0.40
   8  -4   5    0.36    0.29
   8  -4   5   -0.17    0.39
   9   3  -5   -0.28    0.40
  -9  -3   5   -0.36    0.40
   8   3  -5   -0.60    0.35
   8   3  -5   -0.20    0.28
  -8  -3   5   -0.32    0.35
  -8  -3   5    0.03    0.58
   7   3  -5    0.49    0.31
   7   3  -5    0.44    0.38
  -7  -3   5    0.19    0.36
  -7  -3   5    0.61    0.57
  -7  -3   5    0.54    0.31
   6   3  -5   21.28    0.89
  -6  -3   5   18.98    1.27
  -6  -3   5   21.20    0.91
  -6  -3   5   19.75    1.29
   5   3  -5    0.35    0.29
   5   3  -5    0.10    0.26
  -5  -3   5    0.41    0.40
  -5  -3   5    0.33    0.28
  -5  -3   5    0.78    0.28
  -5  -3   5    0.36    0.28
  -5  -3   5    0.17    0.10
   4   3  -5   14.37    0.66
   4   3  -5   13.79    0.55
   4   3  -5   13.64    0.63
  -4  -3   5   14.27    0.58
  -4  -3   5   14.76    0.67
  -4  -3   5   14.05    0.66
  -4  -3   5   14.50    0.90
  -4  -3   5   14.12    0.46
  -4  -3   5   14.44    0.92
   3   3  -5   13.12    0.55
   3   3  -5   13.65    0.61
   3   3  -5   12.93    0.60
  -3  -3   5   13.64    0.81
  -3  -3   5   13.24    0.61
  -3  -3   5   13.27    0.41
  -3  -3   5   14.16    0.58
  -3  -3   5   12.91    0.63
  -3  -3   5   12.74    0.77
   2   3  -5    4.66    0.37
   2   3  -5    4.33    0.37
   2   3  -5    5.15    0.34
   2   3  -5    5.24    0.23
  -2  -3   5    4.91    0.50
  -2  -3   5    4.79    0.41
   1   3  -5   10.11    0.35
   1   3  -5    9.57    0.51
   1   3  -5    9.96    0.50
   1   3  -5    9.13    0.48
  -1  -3   5    9.29    0.52
  -1  -3   5   10.49    0.62
   0   3  -5    1.25    0.23
   0   3  -5    0.84    0.12
   0   3  -5    0.87    0.18
   0  -3   5    1.09    0.22
   0  -3   5    1.02    0.22
  -1   3  -5   33.46    1.02
  -1   3  -5   31.33    1.23
  -1   3  -5   33.24    1.11
   1  -3   5   31.20    0.91
   1  -3   5   31.20    1.03
   1  -3   5   33.45    1.19
   1  -3   5   33.01    0.99
  -2   3  -5    8.47    0.53
  -2   3  -5    9.44    0.47
  -2   3  -5    8.49    0.50
   2  -3   5    8.96    0.51
   2  -3   5    8.81    0.44
  -3   3  -5   49.38    1.39
  -3   3  -5   48.49    1.60
  -3   3  -5   50.18    1.60
   3  -3   5   48.83    1.38
   3  -3   5   49.98    1.45
  -4   3  -5    1.94    0.27
  -4   3  -5    1.56    0.30
  -4   3  -5    1.72    0.19
   4  -3   5    1.77    0.27
   4  -3   5    1.61    0.32
  -5   3  -5   -0.32    0.18
  -5   3  -5    0.22    0.21
  -5   3  -5   -0.02    0.26
   5  -3   5   -0.15    0.29
   5  -3   5    0.43    0.28
  -6   3  -5    0.05    0.28
   6  -3   5   -0.46    0.27
   6  -3   5    0.11    0.27
  -7   3  -5    0.28    0.35
   7  -3   5    0.41    0.27
   7  -3   5    0.22    0.34
  -8   3  -5    2.10    0.49
   8  -3   5    1.85    0.49
   9  -3   5    0.23    0.43
   9   2  -5   -0.16    0.40
  -9  -2   5    1.47    0.74
  -9  -2   5   -0.11    0.44
   8   2  -5   -0.41    0.38
   8   2  -5    0.53    0.31
  -8  -2   5    0.93    0.61
  -8  -2   5    0.59    0.35
  -8  -2   5   -0.03    0.39
   7   2  -5    2.14    0.40
   7   2  -5    1.76    0.45
  -7  -2   5    2.35    0.41
  -7  -2   5    1.16    0.42
  -7  -2   5    1.93    0.63
   6   2  -5   -0.50    0.27
  -6  -2   5    0.01    0.43
  -6  -2   5   -0.27    0.26
  -6  -2   5   -0.06    0.26
   5   2  -5   -0.18    0.24
   5   2  -5   -0.11    0.19
  -5  -2   5   -0.40    0.32
  -5  -2   5    0.06    0.23
  -5  -2   5   -0.31    0.23
   4   2  -5    2.86    0.33
   4   2  -5    3.11    0.37
  -4  -2   5    2.88    0.36
  -4  -2   5    2.55    0.35
  -4  -2   5    2.59    0.44
  -4  -2   5    2.82    0.24
  -4  -2   5    2.99    0.50
   3   2  -5    3.58    0.23
   3   2  -5    3.12    0.36
   3   2  -5    2.92    0.33
  -3  -2   5    3.51    0.22
  -3  -2   5    2.54    0.45
  -3  -2   5    3.66    0.47
  -3  -2   5    3.05    0.35
  -3  -2   5    2.95    0.36
   2   2  -5   31.31    0.99
   2   2  -5   32.99    0.98
   2   2  -5   33.07    0.86
   2   2  -5   31.32    1.00
  -2  -2   5   31.44    1.01
  -2  -2   5   32.79    0.85
  -2  -2   5   32.51    1.18
  -2  -2   5   31.99    1.24
  -2  -2   5   31.80    1.04
   1   2  -5  112.40    2.58
   1   2  -5  112.38    2.76
   1   2  -5  108.61    2.73
   1   2  -5  114.00    2.96
   1   2  -5  111.14    2.92
  -1  -2   5  112.95    2.58
  -1  -2   5  110.80    3.14
  -1  -2   5  106.53    2.75
  -1  -2   5  111.48    2.80
  -1  -2   5  110.22    3.25
   0   2  -5    3.01    0.31
   0   2  -5    2.66    0.22
   0   2  -5    2.55    0.28
   0   2  -5    2.63    0.30
   0   2  -5    2.41    0.34
   0  -2   5    2.72    0.21
   0  -2   5    2.91    0.38
   0  -2   5    2.68    0.27
   0  -2   5    2.85    0.33
  -1   2  -5   98.46    2.68
  -1   2  -5   99.44    2.47
  -1   2  -5  103.07    2.60
  -1   2  -5   99.02    2.43
  -1   2  -5  100.66    2.91
   1  -2   5  103.08    2.92
   1  -2   5   95.88    2.50
   1  -2   5  100.56    2.46
  -2   2  -5    4.93    0.41
  -2   2  -5    5.32    0.34
  -2   2  -5    4.06    0.40
  -2   2  -5    5.30    0.35
   2  -2   5    4.91    0.32
   2  -2   5    5.20    0.38
  -3   2  -5    1.44    0.22
  -3   2  -5    0.87    0.22
   3  -2   5    1.18    0.21
   3  -2   5    1.25    0.25
  -4   2  -5    6.83    0.38
  -4   2  -5    6.20    0.33
  -4   2  -5    6.59    0.56
   4  -2   5    6.42    0.49
   4  -2   5    6.68    0.45
   4  -2   5    6.07    0.37
  -5   2  -5   -0.04    0.23
  -5   2  -5   -0.31    0.18
   5  -2   5   -0.41    0.26
   5  -2   5   -0.13    0.22
  -6   2  -5    0.87    0.32
   6  -2   5    0.42    0.25
   6  -2   5    0.40    0.26
  -7   2  -5    6.36    0.80
   7  -2   5    5.28    0.65
   7  -2   5    6.04    0.44
  -8   2  -5    0.61    0.40
   8  -2   5    0.52    0.37
   9  -2   5    0.47    0.44
   9   1  -5   -0.60    0.41
  -9  -1   5   -0.05    0.65
   8   1  -5   -0.14    0.40
   8   1  -5    0.38    0.33
  -8  -1   5    0.31    0.34
  -8  -1   5    0.21    0.37
  -8  -1   5    0.19    0.59
   7   1  -5   -0.12    0.30
   7   1  -5    0.24    0.35
  -7  -1   5   -0.32    0.30
  -7  -1   5    0.14    0.30
  -7  -1   5    0.27    0.49
   6   1  -5    0.72    0.32
  -6  -1   5    1.31    0.34
  -6  -1   5    0.74    0.27
  -6  -1   5    0.86    0.32
  -6  -1   5    0.90    0.46
   5   1  -5    1.78    0.32
   5   1  -5    1.63    0.27
  -5  -1   5    1.49    0.43
  -5  -1   5    1.65    0.32
  -5  -1   5    1.35    0.29
  -5  -1   5    1.29    0.29
   4   1  -5    1.93    0.29
   4   1  -5    1.55    0.27
  -4  -1   5    1.31    0.35
  -4  -1   5    1.46    0.30
  -4  -1   5    1.78    0.28
  -4  -1   5    1.92    0.24
  -4  -1   5    1.18    0.26
   3   1  -5   47.63    1.36
   3   1  -5   44.87    1.21
   3   1  -5   48.32    1.26
   3   1  -5   45.23    1.34
  -3  -1   5   47.62    1.23
  -3  -1   5   46.06    1.64
  -3  -1   5   49.55    1.42
  -3  -1   5   48.04    1.66
  -3  -1   5   48.66    1.39
   2   1  -5   19.58    0.62
   2   1  -5   20.22    0.62
   2   1  -5   19.41    0.71
   2   1  -5   19.73    0.72
  -2  -1   5   19.63    0.82
  -2  -1   5   19.96    0.75
  -2  -1   5   20.15    0.61
  -2  -1   5   20.02    0.88
  -2  -1   5   19.24    0.72
   1   1  -5  166.48    3.94
   1   1  -5  168.03    3.78
   1   1  -5  165.08    4.20
   1   1  -5  165.58    4.72
   1   1  -5  162.48    3.90
  -1  -1   5  164.63    4.61
  -1  -1   5  170.31    3.79
  -1  -1   5  166.02    3.90
  -1  -1   5  164.63    4.52
  -1  -1   5  159.66    4.18
  -1  -1   5  166.78    3.95
  -1  -1   5  164.93    4.02
   0   1  -5    4.58    0.28
   0   1  -5    5.00    0.32
   0   1  -5    5.17    0.34
   0   1  -5    5.41    0.36
   0   1  -5    5.00    0.41
   0  -1   5    5.62    0.44
   0  -1   5    5.44    0.30
   0  -1   5    5.09    0.27
   0  -1   5    5.48    0.32
   0  -1   5    5.15    0.30
   0  -1   5    4.69    0.33
   0  -1   5    5.06    0.37
  -1   1  -5   94.10    2.42
  -1   1  -5   98.63    2.38
  -1   1  -5   95.96    2.59
  -1   1  -5   95.15    2.38
  -1   1  -5   97.73    2.84
   1  -1   5   97.13    2.42
   1  -1   5   98.22    2.38
   1  -1   5  103.20    2.69
  -2   1  -5    5.15    0.39
  -2   1  -5    5.15    0.36
  -2   1  -5    5.54    0.30
  -2   1  -5    5.28    0.33
   2  -1   5    5.12    0.31
   2  -1   5    5.31    0.35
  -3   1  -5    0.24    0.11
  -3   1  -5    0.11    0.12
  -3   1  -5    0.02    0.08
  -3   1  -5    0.08    0.15
   3  -1   5    0.08    0.14
   3  -1   5    0.10    0.17
   3  -1   5    0.15    0.12
  -4   1  -5    2.21    0.22
  -4   1  -5    2.57    0.24
  -4   1  -5    2.55    0.28
  -4   1  -5    1.71    0.27
   4  -1   5    2.63    0.33
   4  -1   5    2.42    0.24
   4  -1   5    2.06    0.32
  -5   1  -5    2.28    0.39
  -5   1  -5    1.31    0.31
   5  -1   5    2.05    0.27
   5  -1   5    1.59    0.35
  -6   1  -5    5.40    0.55
  -6   1  -5    4.32    0.69
   6  -1   5    5.67    0.58
   6  -1   5    5.71    0.37
  -7   1  -5    8.99    0.92
   7  -1   5    7.66    0.70
  -8   1  -5    0.25    0.38
   8  -1   5    0.13    0.38
   9  -1   5    0.01    0.40
   9   0  -5   -0.20    0.41
  -9   0   5   -0.05    0.65
   8   0  -5   -0.05    0.37
   8   0  -5   -0.01    0.33
  -8   0   5    0.16    0.56
  -8   0   5   -0.44    0.31
   7   0  -5    0.07    0.32
   7   0  -5    0.13    0.34
  -7   0   5   -0.03    0.28
  -7   0   5    0.11    0.39
   6   0  -5    3.64    0.46
   6   0  -5    3.50    0.41
  -6   0   5    4.30    0.73
  -6   0   5    2.79    0.42
  -6   0   5    4.06    0.65
   5   0  -5    3.23    0.39
   5   0  -5    2.71    0.42
  -5   0   5    2.13    0.34
  -5   0   5    2.67    0.38
  -5   0   5    2.37    0.47
   4   0  -5   17.36    0.72
   4   0  -5   18.29    0.75
  -4   0   5   19.01    0.90
  -4   0   5   18.67    0.95
  -4   0   5   18.56    0.75
   3   0  -5   32.64    0.96
   3   0  -5   32.03    1.03
   3   0  -5   31.01    1.03
  -3   0   5   31.98    0.94
  -3   0   5   32.68    1.06
  -3   0   5   32.78    1.25
  -3   0   5   32.31    1.21
   2   0  -5    4.65    0.36
   2   0  -5    3.88    0.34
   2   0  -5    4.29    0.30
   2   0  -5    4.06    0.34
  -2   0   5    4.30    0.16
  -2   0   5    4.07    0.37
  -2   0   5    4.55    0.28
  -2   0   5    4.36    0.41
  -2   0   5    5.11    0.44
   1   0  -5    9.22    0.46
   1   0  -5    9.92    0.41
   1   0  -5    9.98    0.45
   1   0  -5    9.83    0.55
   1   0  -5    9.62    0.46
   1   0  -5    9.48    0.46
  -1   0   5    8.69    0.45
  -1   0   5   10.03    0.56
  -1   0   5   10.20    0.40
  -1   0   5    9.84    0.44
  -1   0   5    9.62    0.48
  -1   0   5    9.26    0.49
  -1   0   5    9.89    0.32
  -1   0   5    9.80    0.44
   0   0  -5    8.35    0.51
   0   0  -5    8.11    0.38
   0   0  -5    8.24    0.38
   0   0  -5    7.88    0.38
   0   0  -5    7.98    0.37
   0   0  -5    8.62    0.41
   0   0   5    8.01    0.38
   0   0   5    8.53    0.33
   0   0   5    8.38    0.39
   0   0   5    7.85    0.43
   0   0   5    8.63    0.38
   0   0   5    8.13    0.37
   0   0   5    8.06    0.39
  -1   0  -5   92.67    2.26
  -1   0  -5   91.51    2.49
  -1   0  -5   92.21    2.41
  -1   0  -5   89.32    2.23
   1   0   5   90.65    2.22
   1   0   5   90.99    2.27
   1   0   5   88.91    2.26
   1   0   5   92.88    2.08
   1   0   5   91.55    2.41
  -2   0  -5   66.12    1.86
  -2   0  -5   65.69    1.75
  -2   0  -5   66.73    1.67
  -2   0  -5   66.16    1.84
   2   0   5   66.79    1.71
   2   0   5   65.25    1.66
   2   0   5   67.03    1.64
  -3   0  -5    0.34    0.16
  -3   0  -5    0.41    0.13
  -3   0  -5    0.36    0.15
   3   0   5    0.50    0.13
   3   0   5    0.34    0.16
   3   0   5    0.43    0.16
  -4   0  -5    0.15    0.18
   4   0   5    0.59    0.18
   4   0   5    0.25    0.09
   4   0   5    0.35    0.22
  -5   0  -5   11.70    0.78
  -5   0  -5   13.12    0.68
   5   0   5   11.81    0.42
   5   0   5   12.64    0.47
   5   0   5   11.90    0.70
  -6   0  -5    1.58    0.35
   6   0   5    1.39    0.38
  -7   0  -5   -0.04    0.30
   7   0   5   -0.20    0.32
  -8   0  -5    0.58    0.36
   8   0   5    0.19    0.38
  -9   0  -5    0.20    0.39
   9   0   5    0.16    0.41
   9  -1  -5    0.09    0.37
   9  -1  -5    0.13    0.41
  -9   1   5    0.07    0.66
   8  -1  -5    3.66    0.57
  -8   1   5    3.83    0.78
   7  -1  -5   -0.35    0.31
   7  -1  -5    0.01    0.31
  -7   1   5   -0.29    0.26
  -7   1   5    0.27    0.40
   6  -1  -5    6.95    0.55
   6  -1  -5    7.62    0.66
  -6   1   5    6.83    0.60
  -6   1   5    6.44    0.68
  -6   1   5    6.92    0.82
   5  -1  -5    0.47    0.26
   5  -1  -5    0.80    0.31
  -5   1   5    0.23    0.24
  -5   1   5    0.37    0.22
  -5   1   5    0.52    0.30
   4  -1  -5    2.96    0.35
   4  -1  -5    3.39    0.41
  -4   1   5    3.90    0.52
  -4   1   5    3.55    0.42
  -4   1   5    4.05    0.46
   3  -1  -5   30.30    1.01
   3  -1  -5   29.93    1.01
   3  -1  -5   31.87    0.97
   3  -1  -5   30.44    0.80
  -3   1   5   30.48    1.14
  -3   1   5   31.70    1.04
  -3   1   5   30.73    1.20
   2  -1  -5   41.17    1.22
   2  -1  -5   41.13    1.14
   2  -1  -5   40.69    1.40
   2  -1  -5   39.24    1.19
   2  -1  -5   42.40    1.41
   2  -1  -5   42.30    1.16
  -2   1   5   41.22    1.39
  -2   1   5   41.07    1.38
  -2   1   5   40.09    1.22
  -2   1   5   40.54    1.21
   1  -1  -5   25.13    0.82
   1  -1  -5   24.60    0.82
   1  -1  -5   25.18    0.77
   1  -1  -5   24.05    0.95
   1  -1  -5   24.32    0.89
  -1   1   5   24.99    0.80
  -1   1   5   24.49    0.89
  -1   1   5   24.40    0.82
  -1   1   5   24.87    0.77
  -1   1   5   25.15    0.62
  -1   1   5   24.47    0.78
   0  -1  -5   39.61    1.23
   0  -1  -5   37.43    1.10
   0  -1  -5   40.23    1.14
   0  -1  -5   38.38    1.12
   0   1   5   40.88    0.98
   0   1   5   39.45    1.13
   0   1   5   38.08    1.09
   0   1   5   39.10    1.14
   0   1   5   39.94    1.24
  -1  -1  -5   22.72    0.74
  -1  -1  -5   21.96    0.75
  -1  -1  -5   22.24    0.72
  -1  -1  -5   22.28    0.77
   1   1   5   21.94    0.74
   1   1   5   22.43    0.74
   1   1   5   22.81    0.69
   1   1   5   22.15    0.70
   1   1   5   22.02    0.69
  -2  -1  -5   13.50    0.54
  -2  -1  -5   13.47    0.55
  -2  -1  -5   13.73    0.58
  -2  -1  -5   13.01    0.49
   2   1   5   12.99    0.54
   2   1   5   13.24    0.48
   2   1   5   12.71    0.54
   2   1   5   13.04    0.52
  -3  -1  -5   -0.04    0.10
  -3  -1  -5   -0.19    0.12
  -3  -1  -5   -0.12    0.14
   3   1   5   -0.01    0.10
   3   1   5   -0.08    0.13
   3   1   5    0.03    0.13
  -4  -1  -5    2.66    0.19
  -4  -1  -5    3.25    0.42
  -4  -1  -5    2.61    0.43
   4   1   5    2.58    0.20
   4   1   5    2.64    0.33
   4   1   5    2.76    0.25
  -5  -1  -5   -0.02    0.19
  -5  -1  -5   -0.15    0.19
   5   1   5   -0.06    0.10
   5   1   5   -0.05    0.08
   5   1   5    0.26    0.24
   5   1   5   -0.20    0.26
  -6  -1  -5    0.47    0.30
  -6  -1  -5   -0.10    0.25
  -6  -1  -5    0.06    0.23
   6   1   5   -0.62    0.29
   6   1   5   -0.26    0.33
  -7  -1  -5    0.11    0.25
  -7  -1  -5    0.10    0.29
  -7  -1  -5    0.64    0.36
   7   1   5   -0.29    0.40
   7   1   5   -0.19    0.33
  -8  -1  -5   -0.24    0.28
  -8  -1  -5   -0.58    0.27
   8   1   5    0.03    0.28
   8   1   5    0.12    0.41
  -9  -1  -5    0.10    0.38
   9   1   5   -0.12    0.42
   9  -2  -5   -0.11    0.38
   9  -2  -5    0.47    0.44
  -9   2   5    0.31    0.64
   8  -2  -5    5.40    0.65
   8  -2  -5    6.80    0.74
  -8   2   5    6.54    1.03
   7  -2  -5    5.23    0.55
  -7   2   5    3.78    0.62
  -7   2   5    5.91    0.89
   6  -2  -5    1.04    0.34
   6  -2  -5    0.40    0.29
  -6   2   5    0.90    0.47
  -6   2   5    0.89    0.33
   5  -2  -5   10.66    0.66
  -5   2   5   10.89    0.69
  -5   2   5   10.31    0.64
  -5   2   5   10.20    0.75
   4  -2  -5    0.25    0.24
  -4   2   5    0.18    0.17
  -4   2   5    0.27    0.25
  -4   2   5    0.18    0.29
   3  -2  -5    1.31    0.29
   3  -2  -5    1.39    0.22
   3  -2  -5    0.74    0.18
   3  -2  -5    1.44    0.18
  -3   2   5    1.13    0.21
  -3   2   5    1.30    0.29
  -3   2   5    1.14    0.31
   2  -2  -5   33.26    1.00
   2  -2  -5   32.78    1.07
   2  -2  -5   31.84    1.17
   2  -2  -5   33.36    1.01
  -2   2   5   33.31    1.21
  -2   2   5   33.06    1.08
   1  -2  -5   10.14    0.48
   1  -2  -5   10.32    0.47
   1  -2  -5   10.80    0.52
   1  -2  -5   11.09    0.55
  -1   2   5   10.54    0.56
  -1   2   5   10.20    0.52
  -1   2   5   10.52    0.43
  -1   2   5   10.44    0.49
  -1   2   5   11.01    0.35
   0  -2  -5   58.67    1.59
   0  -2  -5   59.42    1.61
   0  -2  -5   61.49    1.61
   0  -2  -5   61.09    1.84
   0   2   5   61.15    1.84
   0   2   5   60.11    1.63
   0   2   5   62.08    1.42
   0   2   5   59.73    1.59
   0   2   5   60.17    1.61
  -1  -2  -5    5.96    0.36
  -1  -2  -5    5.10    0.35
  -1  -2  -5    5.23    0.37
  -1  -2  -5    5.54    0.30
   1   2   5    5.75    0.33
   1   2   5    4.73    0.32
   1   2   5    5.42    0.29
   1   2   5    5.28    0.36
  -2  -2  -5   18.23    0.65
  -2  -2  -5   17.67    0.71
  -2  -2  -5   18.57    0.70
  -2  -2  -5   18.18    0.62
   2   2   5   17.86    0.66
   2   2   5   18.75    0.56
   2   2   5   18.41    0.63
   2   2   5   17.63    0.60
  -3  -2  -5   21.52    0.78
  -3  -2  -5   21.26    0.81
  -3  -2  -5   20.30    0.64
   3   2   5   20.96    0.65
   3   2   5   21.26    0.79
   3   2   5   21.76    0.69
  -4  -2  -5    0.33    0.21
  -4  -2  -5    0.08    0.16
   4   2   5    0.11    0.14
   4   2   5    0.19    0.11
   4   2   5   -0.20    0.22
  -5  -2  -5    0.60    0.24
  -5  -2  -5    0.78    0.25
   5   2   5    0.87    0.34
   5   2   5    0.49    0.27
  -6  -2  -5    1.41    0.29
  -6  -2  -5    1.40    0.34
   6   2   5    1.25    0.32
   6   2   5    1.39    0.40
  -7  -2  -5    0.10    0.27
  -7  -2  -5    0.27    0.37
  -7  -2  -5    0.01    0.26
   7   2   5   -0.07    0.29
   7   2   5   -0.28    0.32
  -8  -2  -5   -0.22    0.26
  -8  -2  -5   -0.10    0.28
   8   2   5    0.08    0.39
   8   2   5   -0.22    0.43
   9  -3  -5   -0.15    0.44
   9  -3  -5    0.32    0.43
  -9   3   5   -0.43    0.68
   8  -3  -5    1.09    0.47
   8  -3  -5    0.70    0.39
  -8   3   5    0.63    0.67
   7  -3  -5    2.60    0.44
  -7   3   5    2.39    0.67
   6  -3  -5    0.80    0.31
  -6   3   5    1.42    0.53
  -6   3   5    0.66    0.22
  -6   3   5    1.57    0.38
   5  -3  -5    0.62    0.31
   5  -3  -5    0.61    0.25
  -5   3   5    0.76    0.42
  -5   3   5    0.30    0.31
   4  -3  -5    9.37    0.43
   4  -3  -5   10.37    0.65
  -4   3   5   10.07    0.76
  -4   3   5   10.26    0.64
   3  -3  -5   29.70    1.06
   3  -3  -5   30.65    1.01
   3  -3  -5   28.66    1.10
   3  -3  -5   29.42    0.95
  -3   3   5   31.04    1.24
  -3   3   5   30.40    1.07
   2  -3  -5   31.57    1.07
   2  -3  -5   31.39    1.03
   2  -3  -5   33.31    1.04
  -2   3   5   32.40    1.23
  -2   3   5   30.98    0.97
  -2   3   5   30.94    1.07
   1  -3  -5   10.02    0.49
   1  -3  -5    9.59    0.51
   1  -3  -5    9.16    0.50
  -1   3   5    9.12    0.52
  -1   3   5    9.32    0.39
  -1   3   5    9.37    0.57
   0  -3  -5   31.33    0.99
   0  -3  -5   30.17    1.10
   0  -3  -5   31.43    0.98
   0   3   5   31.80    0.86
   0   3   5   30.72    0.97
   0   3   5   31.81    1.01
   0   3   5   30.68    0.88
  -1  -3  -5   12.91    0.44
  -1  -3  -5   12.56    0.56
  -1  -3  -5   12.72    0.68
  -1  -3  -5   13.12    0.55
   1   3   5   12.18    0.45
   1   3   5   12.94    0.55
   1   3   5   12.76    0.51
   1   3   5   12.73    0.53
  -2  -3  -5    9.42    0.44
  -2  -3  -5    9.58    0.40
  -2  -3  -5    9.61    0.50
   2   3   5    9.14    0.46
   2   3   5    8.66    0.43
   2   3   5    9.17    0.47
  -3  -3  -5    0.08    0.11
  -3  -3  -5    0.13    0.17
   3   3   5   -0.05    0.16
   3   3   5    0.02    0.21
   3   3   5    0.14    0.14
  -4  -3  -5    8.78    0.51
  -4  -3  -5    7.48    0.55
   4   3   5    8.05    0.55
   4   3   5    7.62    0.34
   4   3   5    7.22    0.37
   4   3   5    7.00    0.51
  -5  -3  -5   18.19    0.83
  -5  -3  -5   17.69    0.89
   5   3   5   16.79    0.87
   5   3   5   17.98    0.85
  -6  -3  -5    0.08    0.21
  -6  -3  -5   -0.15    0.25
   6   3   5   -0.19    0.36
   6   3   5    0.11    0.31
  -7  -3  -5    0.20    0.25
  -7  -3  -5    0.21    0.27
  -7  -3  -5   -0.01    0.23
   7   3   5    0.00    0.41
   7   3   5    0.24    0.36
  -8  -3  -5   -0.01    0.27
  -8  -3  -5    0.26    0.31
   8   3   5   -0.51    0.40
   8   3   5    0.13    0.38
   9  -4  -5   -0.12    0.42
   9  -4  -5    0.16    0.46
  -9   4   5   -1.09    0.77
   8  -4  -5    0.49    0.47
   8  -4  -5    0.18    0.38
  -8   4   5   -0.04    0.69
   7  -4  -5    1.29    0.47
   7  -4  -5    1.39    0.35
  -7   4   5    0.88    0.64
   6  -4  -5   -0.04    0.35
   6  -4  -5   -0.04    0.24
  -6   4   5    0.12    0.49
  -6   4   5    0.03    0.31
   5  -4  -5    0.01    0.20
  -5   4   5   -0.13    0.42
  -5   4   5    0.03    0.31
   4  -4  -5    3.91    0.37
   4  -4  -5    3.88    0.42
  -4   4   5    4.14    0.45
  -4   4   5    4.06    0.36
  -4   4   5    5.20    0.69
   3  -4  -5   -0.14    0.16
   3  -4  -5   -0.06    0.09
   3  -4  -5   -0.04    0.24
  -3   4   5    0.14    0.32
  -3   4   5   -0.17    0.25
   2  -4  -5   20.33    0.81
   2  -4  -5   19.71    0.81
   2  -4  -5   20.46    0.78
  -2   4   5   19.54    0.84
  -2   4   5   20.18    0.96
   1  -4  -5    9.56    0.52
   1  -4  -5    8.98    0.49
   1  -4  -5    9.75    0.55
  -1   4   5    9.26    0.63
  -1   4   5    9.72    0.57
  -1   4   5    9.36    0.37
   0  -4  -5    2.87    0.34
   0  -4  -5    3.14    0.36
   0  -4  -5    2.93    0.40
   0   4   5    3.29    0.37
   0   4   5    2.93    0.33
   0   4   5    3.02    0.17
  -1  -4  -5   15.68    0.66
  -1  -4  -5   14.87    0.79
   1   4   5   15.07    0.64
   1   4   5   15.94    0.78
   1   4   5   14.94    0.67
   1   4   5   15.33    0.60
  -2  -4  -5   12.22    0.78
  -2  -4  -5   12.70    0.55
  -2  -4  -5   12.75    0.63
  -2  -4  -5   11.88    0.42
   2   4   5   11.72    0.75
   2   4   5   12.14    0.54
   2   4   5   12.29    0.58
   2   4   5   12.37    0.59
  -3  -4  -5   19.23    0.80
  -3  -4  -5   19.15    1.05
  -3  -4  -5   18.72    0.66
  -3  -4  -5   19.37    0.67
   3   4   5   19.87    0.70
   3   4   5   18.51    0.67
   3   4   5   17.80    0.97
   3   4   5   19.22    0.81
  -4  -4  -5    0.01    0.23
  -4  -4  -5    0.09    0.23
  -4  -4  -5   -0.11    0.15
   4   4   5   -0.38    0.17
   4   4   5   -0.06    0.28
   4   4   5    0.22    0.28
  -5  -4  -5    3.37    0.44
  -5  -4  -5    1.76    0.34
  -5  -4  -5    1.79    0.33
   5   4   5    2.45    0.16
   5   4   5    2.10    0.40
   5   4   5    2.56    0.45
  -6  -4  -5    0.81    0.28
  -6  -4  -5    0.78    0.31
  -6  -4  -5    1.02    0.25
   6   4   5    1.04    0.37
   6   4   5    0.92    0.42
  -7  -4  -5    0.15    0.27
  -7  -4  -5   -0.01    0.26
   7   4   5    0.19    0.29
   7   4   5    0.36    0.45
  -8  -4  -5   -0.14    0.27
  -8  -4  -5   -0.27    0.28
   8   4   5    0.09    0.30
   8   4   5   -0.20    0.43
   9  -5  -5    0.01    0.46
   8  -5  -5    1.05    0.40
   8  -5  -5    0.30    0.50
  -8   5   5   -0.60    0.73
   7  -5  -5    1.02    0.53
   7  -5  -5    1.23    0.35
  -7   5   5    0.65    0.69
   6  -5  -5    1.98    0.49
   6  -5  -5    1.42    0.30
  -6   5   5    1.06    0.61
  -6   5   5    1.54    0.43
   5  -5  -5   -0.27    0.35
   5  -5  -5   -0.09    0.18
   5  -5  -5   -0.04    0.11
  -5   5   5   -0.10    0.34
  -5   5   5   -0.40    0.45
   4  -5  -5    0.84    0.17
   4  -5  -5    1.15    0.40
   4  -5  -5    1.51    0.20
  -4   5   5    1.00    0.39
  -4   5   5    1.61    0.49
   3  -5  -5    0.75    0.17
   3  -5  -5    0.98    0.25
   3  -5  -5    1.21    0.31
  -3   5   5    0.81    0.34
  -3   5   5    1.19    0.40
   2  -5  -5    2.95    0.41
   2  -5  -5    2.15    0.36
  -2   5   5    1.98    0.37
  -2   5   5    2.50    0.43
   1  -5  -5    6.39    0.46
   1  -5  -5    6.15    0.51
   1  -5  -5    6.10    0.51
  -1   5   5    5.83    0.26
  -1   5   5    6.23    0.59
  -1   5   5    6.59    0.52
   0  -5  -5    0.25    0.22
   0  -5  -5    0.21    0.15
   0  -5  -5    0.31    0.17
   0   5   5    0.06    0.23
   0   5   5    0.12    0.26
  -1  -5  -5    4.47    0.42
  -1  -5  -5    5.22    0.58
  -1  -5  -5    4.88    0.42
   1   5   5    4.36    0.45
   1   5   5    4.71    0.46
   1   5   5    4.75    0.43
  -2  -5  -5    1.25    0.29
  -2  -5  -5    2.39    0.33
  -2  -5  -5    2.27    0.31
   2   5   5    2.10    0.36
   2   5   5    2.13    0.53
   2   5   5    2.05    0.31
  -3  -5  -5    7.38    0.56
  -3  -5  -5    5.88    0.75
  -3  -5  -5    5.64    0.30
   3   5   5    5.09    0.65
   3   5   5    5.47    0.47
   3   5   5    6.97    0.49
  -4  -5  -5    1.26    0.28
  -4  -5  -5    0.97    0.27
   4   5   5    0.76    0.33
   4   5   5    0.70    0.45
   4   5   5    1.03    0.23
   4   5   5    1.33    0.35
  -5  -5  -5    0.90    0.29
  -5  -5  -5    1.38    0.31
   5   5   5    1.37    0.33
   5   5   5    1.40    0.45
   5   5   5    1.43    0.40
   5   5   5    1.54    0.22
  -6  -5  -5   -0.10    0.23
  -6  -5  -5    0.00    0.24
   6   5   5   -0.23    0.32
   6   5   5   -0.23    0.37
   6   5   5   -0.02    0.33
  -7  -5  -5    0.02    0.26
  -7  -5  -5   -0.25    0.25
   7   5   5    0.29    0.38
   7   5   5   -0.27    0.41
   8  -6  -5   -0.02    0.56
  -8   6   5   -1.49    0.75
   7  -6  -5    2.42    0.58
  -7   6   5    0.67    0.72
   6  -6  -5    0.46    0.46
  -6   6   5   -0.60    0.56
  -6   6   5    0.01    0.36
   5  -6  -5    0.62    0.44
   5  -6  -5    0.19    0.16
  -5   6   5    0.59    0.55
  -5   6   5    0.59    0.33
   4  -6  -5    2.24    0.49
   4  -6  -5    1.33    0.23
  -4   6   5    1.54    0.53
  -4   6   5    1.57    0.43
   3  -6  -5    0.62    0.19
   3  -6  -5    0.98    0.38
   3  -6  -5    0.81    0.25
  -3   6   5    1.17    0.45
  -3   6   5    0.75    0.37
   2  -6  -5    0.31    0.21
   2  -6  -5    0.31    0.16
   2  -6  -5    0.47    0.32
  -2   6   5    0.69    0.29
  -2   6   5    0.44    0.10
  -2   6   5    0.41    0.35
   1  -6  -5    0.14    0.16
   1  -6  -5    0.16    0.21
   1  -6  -5    0.18    0.28
  -1   6   5    0.27    0.30
  -1   6   5    0.13    0.27
   0  -6  -5   78.19    2.15
   0  -6  -5   77.78    2.51
   0  -6  -5   80.36    2.24
   0   6   5   76.32    2.48
   0   6   5   85.67    2.25
  -1  -6  -5   27.17    1.04
  -1  -6  -5   25.65    0.98
  -1  -6  -5   26.35    1.27
   1   6   5   27.63    1.04
   1   6   5   24.82    1.20
  -2  -6  -5    0.38    0.24
  -2  -6  -5    0.32    0.26
  -2  -6  -5    0.65    0.26
   2   6   5    0.34    0.42
   2   6   5    0.00    0.31
  -3  -6  -5    0.05    0.22
  -3  -6  -5   -0.27    0.22
   3   6   5    0.29    0.26
   3   6   5   -0.03    0.40
  -4  -6  -5    0.13    0.26
  -4  -6  -5    0.28    0.22
   4   6   5    0.10    0.41
   4   6   5    0.40    0.23
  -5  -6  -5   -0.19    0.20
  -5  -6  -5    0.13    0.27
   5   6   5   -0.21    0.43
   5   6   5   -0.08    0.33
  -6  -6  -5    0.55    0.28
  -6  -6  -5    0.31    0.32
   6   6   5    0.42    0.55
   6   6   5    1.02    0.49
  -7  -6  -5    0.02    0.31
   7   6   5   -0.08    0.46
   7  -7  -5    0.09    0.49
   6  -7  -5    0.48    0.48
  -6   7   5    0.29    0.41
  -6   7   5   -0.80    0.57
   5  -7  -5   -0.08    0.17
   5  -7  -5   -0.18    0.39
  -5   7   5   -0.36    0.38
  -5   7   5   -0.48    0.54
   4  -7  -5    0.44    0.41
   4  -7  -5    0.13    0.19
  -4   7   5    0.40    0.40
  -4   7   5    0.59    0.51
   3  -7  -5    6.38    0.69
   3  -7  -5    6.66    0.72
  -3   7   5    5.76    0.59
  -3   7   5    6.18    0.80
   2  -7  -5   10.88    0.71
   2  -7  -5   12.16    0.83
   2  -7  -5   12.71    0.85
  -2   7   5   10.12    0.44
  -2   7   5   12.37    0.83
   1  -7  -5    1.22    0.30
   1  -7  -5    1.16    0.25
   1  -7  -5    1.91    0.41
  -1   7   5    1.67    0.42
  -1   7   5    1.51    0.39
   0  -7  -5   20.52    1.12
   0  -7  -5   19.31    0.90
   0  -7  -5   20.76    0.97
   0   7   5   17.65    0.99
   0   7   5   21.31    0.98
  -1  -7  -5    1.59    0.35
  -1  -7  -5    0.83    0.28
  -1  -7  -5    1.53    0.30
   1   7   5    1.70    0.38
   1   7   5    1.48    0.39
  -2  -7  -5   -0.01    0.23
  -2  -7  -5    0.24    0.21
   2   7   5    0.11    0.30
   2   7   5    0.05    0.29
  -3  -7  -5    0.08    0.21
  -3  -7  -5   -0.20    0.24
   3   7   5    0.01    0.26
   3   7   5   -0.20    0.37
  -4  -7  -5    1.42    0.29
  -4  -7  -5    1.00    0.33
   4   7   5    1.62    0.57
  -5  -7  -5    0.82    0.36
  -5  -7  -5    0.80    0.28
   5   7   5    1.17    0.60
  -6  -7  -5    1.33    0.39
   6   7   5    3.04    0.58
   6   7   5    1.96    0.68
   7  -8  -5    0.08    0.52
  -7   8   5    0.13    0.32
   6  -8  -5    0.10    0.48
  -6   8   5   -0.48    0.63
  -6   8   5    0.10    0.28
  -6   8   5    0.33    0.43
   5  -8  -5    2.98    0.61
  -5   8   5    2.83    0.56
  -5   8   5    1.83    0.69
   4  -8  -5    0.00    0.41
   4  -8  -5   -0.02    0.23
  -4   8   5    0.60    0.54
  -4   8   5    0.66    0.43
   3  -8  -5    0.06    0.21
   3  -8  -5    0.47    0.40
  -3   8   5    0.06    0.41
   2  -8  -5   16.93    1.02
   2  -8  -5   17.98    0.95
   2  -8  -5   19.18    1.09
  -2   8   5   18.56    1.04
   1  -8  -5    0.38    0.36
   1  -8  -5   -0.08    0.25
   1  -8  -5    0.46    0.26
  -1   8   5   -0.04    0.30
  -1   8   5    0.05    0.36
   0  -8  -5    2.17    0.43
   0  -8  -5    1.27    0.31
   0  -8  -5    1.80    0.34
   0   8   5    1.84    0.45
   0   8   5    2.25    0.44
  -1  -8  -5    1.65    0.36
  -1  -8  -5    0.68    0.29
  -1  -8  -5    1.24    0.30
   1   8   5    1.27    0.38
   1   8   5    1.37    0.46
  -2  -8  -5    0.23    0.23
  -2  -8  -5   -0.02    0.26
   2   8   5   -0.12    0.40
   2   8   5    0.10    0.33
  -3  -8  -5    0.26    0.24
  -3  -8  -5    0.12    0.29
   3   8   5    0.13    0.35
   3   8   5    0.19    0.29
  -4  -8  -5    1.50    0.41
   4   8   5    1.66    0.64
   4   8   5    1.82    0.34
  -5  -8  -5    0.14    0.34
   5   8   5    0.16    0.58
   6   8   5    0.07    0.63
   6  -9  -5    0.36    0.54
  -6   9   5    0.29    0.48
  -6   9   5   -0.86    0.63
   5  -9  -5   -0.52    0.24
   5  -9  -5    0.09    0.49
  -5   9   5    0.58    0.59
  -5   9   5    0.26    0.47
   4  -9  -5    0.62    0.49
   4  -9  -5   -0.11    0.24
  -4   9   5    0.39    0.48
   3  -9  -5    0.01    0.25
   3  -9  -5    0.19    0.42
  -3   9   5    0.09    0.33
   2  -9  -5    1.43    0.47
   2  -9  -5    0.36    0.30
  -2   9   5    1.09    0.45
   1  -9  -5   -0.21    0.26
   1  -9  -5    0.13    0.26
   1  -9  -5    0.10    0.34
  -1   9   5    0.19    0.38
  -1   9   5   -0.04    0.33
   0  -9  -5   -0.12    0.25
   0  -9  -5    0.09    0.31
   0  -9  -5   -0.15    0.22
   0   9   5   -0.03    0.34
   0   9   5    0.08    0.34
  -1  -9  -5   -0.28    0.26
  -1  -9  -5   -0.06    0.24
   1   9   5   -0.28    0.33
   1   9   5    0.13    0.39
  -2  -9  -5    1.48    0.39
  -2  -9  -5    1.42    0.32
   2   9   5    1.83    0.57
   2   9   5    2.25    0.46
  -3  -9  -5    0.04    0.31
   3   9   5   -0.20    0.31
   3   9   5    0.41    0.41
  -4  -9  -5    0.04    0.33
   4   9   5    0.13    0.28
   4   9   5   -0.01    0.55
   5   9   5   -0.49    0.56
  -6  10   5   -0.36    0.49
   5 -10  -5    0.83    0.58
  -5  10   5    0.13    0.49
   4 -10  -5   -0.08    0.47
  -4  10   5   -0.08    0.47
   3 -10  -5    0.28    0.45
   3 -10  -5   -0.36    0.26
  -3  10   5    0.13    0.45
   2 -10  -5    0.13    0.39
  -2  10   5    0.41    0.46
   1 -10  -5   -0.11    0.26
   1 -10  -5    0.34    0.38
  -1  10   5   -0.04    0.35
  -1  10   5    0.04    0.39
   0 -10  -5   -0.24    0.28
   0 -10  -5   -0.39    0.24
   0  10   5   -0.17    0.38
   0  10   5   -0.10    0.38
  -1 -10  -5   -0.38    0.27
   1  10   5   -0.03    0.41
   1  10   5    0.06    0.41
  -2 -10  -5    0.86    0.39
   2  10   5    1.54    0.58
   2  10   5    2.00    0.49
   3  10   5    0.21    0.56
   3  10   5    0.67    0.39
   4 -11  -5    0.47    0.57
   3 -11  -5    0.17    0.47
   3 -11  -5   -0.52    0.35
  -3  11   5   -0.27    0.48
   2 -11  -5    1.00    0.51
   2 -11  -5   -0.14    0.34
  -2  11   5    0.01    0.47
   1 -11  -5    0.41    0.36
  -1  11   5    0.41    0.47
  -1  11   5    0.08    0.47
   0 -11  -5   -0.43    0.30
   0  11   5   -0.24    0.45
   0  11   5    0.26    0.45
   1  11   5    0.51    0.51
   2  11   5   -0.38    0.50
  -2 -11   6   -0.53    0.30
  -2 -11   6   -0.47    0.35
  -1 -11   6    0.18    0.47
  -1 -11   6   -0.50    0.29
  -1 -11   6   -0.12    0.38
   0  11  -6    0.26    0.46
   0 -11   6   -0.41    0.33
   0 -11   6   -0.46    0.29
   0 -11   6    0.13    0.44
  -1  11  -6   -0.12    0.46
  -1  11  -6   -0.23    0.28
   1 -11   6   -0.06    0.44
  -2  11  -6    0.21    0.35
  -2  11  -6    0.65    0.49
   2 -11   6    1.11    0.56
  -3  11  -6    1.32    0.53
  -3  11  -6   -0.30    0.37
   3  10  -6    2.20    0.56
  -3 -10   6    0.30    0.34
  -3 -10   6    1.27    0.52
   2  10  -6    0.49    0.45
  -2 -10   6    0.82    0.45
  -2 -10   6    0.21    0.32
   1  10  -6    3.85    0.62
   1  10  -6    3.79    0.57
  -1 -10   6    3.75    0.64
   0  10  -6    0.26    0.42
   0  10  -6   -0.07    0.26
   0 -10   6   -0.12    0.26
   0 -10   6    0.04    0.34
   0 -10   6    0.30    0.42
  -1  10  -6    0.60    0.44
  -1  10  -6   -0.24    0.26
   1 -10   6   -0.15    0.31
   1 -10   6    0.24    0.44
  -2  10  -6   -0.47    0.30
  -2  10  -6   -0.07    0.39
   2 -10   6    0.39    0.47
  -3  10  -6   -0.27    0.39
  -3  10  -6    0.69    0.47
   3 -10   6    1.25    0.56
  -4  10  -6    0.21    0.44
  -4  10  -6   -0.65    0.36
   4 -10   6   -0.03    0.51
  -5  10  -6   -0.62    0.41
   5   9  -6    0.83    0.51
  -5  -9   6    0.07    0.43
   4   9  -6    0.21    0.44
  -4  -9   6    0.53    0.42
  -4  -9   6    0.13    0.29
   3   9  -6    0.32    0.45
  -3  -9   6   -0.07    0.24
  -3  -9   6    0.66    0.40
   2   9  -6   -0.06    0.38
  -2  -9   6    0.22    0.40
  -2  -9   6   -0.13    0.25
  -2  -9   6    0.26    0.34
   1   9  -6    0.09    0.24
   1   9  -6    0.13    0.35
  -1  -9   6   -0.04    0.30
  -1  -9   6    0.23    0.39
  -1  -9   6   -0.07    0.24
   0   9  -6   -0.13    0.36
   0   9  -6   -0.35    0.23
   0  -9   6   -0.05    0.31
   0  -9   6   -0.26    0.21
   0  -9   6   -0.34    0.33
  -1   9  -6   -0.50    0.26
  -1   9  -6   -0.05    0.36
   1  -9   6   -0.22    0.37
   1  -9   6   -0.23    0.26
  -2   9  -6    0.89    0.42
  -2   9  -6    0.25    0.31
   2  -9   6    0.87    0.47
  -3   9  -6   -0.50    0.34
  -3   9  -6   -0.01    0.37
   3  -9   6    0.49    0.46
  -4   9  -6    0.18    0.39
  -4   9  -6   -0.07    0.37
   4  -9   6    0.57    0.55
  -5   9  -6   -0.66    0.37
   5  -9   6   -0.24    0.46
   6   8  -6    0.37    0.42
   6   8  -6    0.37    0.49
  -6  -8   6    0.34    0.46
   5   8  -6    3.39    0.58
  -5  -8   6    2.21    0.56
   4   8  -6   -0.34    0.35
  -4  -8   6   -0.26    0.34
   3   8  -6    0.37    0.38
  -3  -8   6    0.10    0.34
  -3  -8   6   -0.27    0.21
  -3  -8   6    0.12    0.35
   2   8  -6    1.26    0.42
  -2  -8   6    1.21    0.39
  -2  -8   6    1.44    0.44
  -2  -8   6    0.51    0.27
   1   8  -6    0.82    0.38
   1   8  -6    0.33    0.24
  -1  -8   6    0.57    0.40
  -1  -8   6    0.14    0.23
  -1  -8   6    0.43    0.31
   0   8  -6    5.43    0.61
   0   8  -6    7.52    0.72
   0  -8   6    5.73    0.61
   0  -8   6    6.80    0.79
   0  -8   6    6.62    0.79
  -1   8  -6    0.07    0.26
  -1   8  -6    0.60    0.37
   1  -8   6    0.21    0.29
   1  -8   6    0.49    0.40
  -2   8  -6   -0.58    0.26
  -2   8  -6    0.10    0.33
   2  -8   6   -0.38    0.24
   2  -8   6   -0.24    0.35
  -3   8  -6   -0.14    0.31
  -3   8  -6    0.66    0.36
   3  -8   6    0.53    0.43
  -4   8  -6    0.20    0.37
  -4   8  -6    1.13    0.43
   4  -8   6    1.17    0.49
  -5   8  -6   -0.13    0.37
   5  -8   6    0.50    0.47
  -6   8  -6   -0.21    0.39
   6  -8   6    0.01    0.51
   7   7  -6   -0.06    0.46
   7   7  -6    0.45    0.44
  -7  -7   6    1.75    0.73
   6   7  -6   -0.05    0.41
  -6  -7   6    0.07    0.41
   5   7  -6    0.68    0.45
  -5  -7   6    0.29    0.41
  -4  -7   6    2.52    0.52
  -4  -7   6    1.90    0.30
  -3  -7   6    1.88    0.30
  -3  -7   6    2.61    0.49
   2   7  -6    6.29    0.66
  -2  -7   6    6.49    0.77
  -2  -7   6    7.01    0.84
  -2  -7   6    6.62    0.71
   1   7  -6   20.89    0.99
   1   7  -6   20.78    0.95
  -1  -7   6   23.21    1.10
  -1  -7   6   21.16    1.15
  -1  -7   6   21.10    1.25
   0   7  -6    0.41    0.11
   0   7  -6    0.16    0.32
   0   7  -6   -0.08    0.23
   0  -7   6    0.20    0.29
   0  -7   6    0.27    0.36
  -1   7  -6   -0.02    0.31
  -1   7  -6   -0.10    0.23
   1  -7   6   -0.15    0.33
   1  -7   6   -0.15    0.26
  -2   7  -6    0.09    0.26
  -2   7  -6    0.26    0.33
   2  -7   6    0.12    0.36
   2  -7   6   -0.16    0.25
  -3   7  -6    9.65    0.73
  -3   7  -6    8.86    0.79
   3  -7   6    7.87    0.65
   3  -7   6    9.60    0.82
  -4   7  -6   13.20    0.82
  -4   7  -6   13.84    1.03
   4  -7   6   14.17    0.96
  -5   7  -6    0.25    0.40
   5  -7   6    1.08    0.50
  -6   7  -6    0.05    0.39
   6  -7   6    0.26    0.45
   7  -7   6    1.40    0.51
   8   6  -6    0.24    0.49
   7   6  -6    1.86    0.48
   7   6  -6    1.39    0.51
  -7  -6   6    1.28    0.52
  -7  -6   6    2.10    0.69
   6   6  -6    0.05    0.38
  -6  -6   6   -0.08    0.37
  -6  -6   6    0.49    0.51
   5   6  -6    2.03    0.44
  -5  -6   6    1.34    0.41
  -5  -6   6    0.71    0.22
   4   6  -6    6.59    0.73
  -4  -6   6    4.99    0.63
  -4  -6   6    6.11    0.63
  -4  -6   6    4.96    0.85
   3   6  -6   24.01    1.04
  -3  -6   6   22.05    1.32
  -3  -6   6   24.53    1.11
  -3  -6   6   22.50    1.08
   2   6  -6    6.80    0.59
   2   6  -6    7.57    0.64
  -2  -6   6    6.81    0.68
  -2  -6   6    6.60    0.78
  -2  -6   6    6.23    0.56
   1   6  -6    6.05    0.26
   1   6  -6    7.42    0.61
   1   6  -6    6.49    0.58
  -1  -6   6    6.41    0.71
  -1  -6   6    7.57    0.69
  -1  -6   6    6.78    0.69
   0   6  -6    7.29    0.62
   0   6  -6    7.12    0.60
   0   6  -6    6.76    0.35
   0  -6   6    6.67    0.73
   0  -6   6    6.82    0.67
  -1   6  -6    2.54    0.42
  -1   6  -6    2.03    0.33
   1  -6   6    1.95    0.36
   1  -6   6    2.53    0.41
   1  -6   6    1.88    0.32
  -2   6  -6    0.85    0.34
  -2   6  -6    1.08    0.30
   2  -6   6    1.06    0.34
   2  -6   6    0.82    0.27
  -3   6  -6    1.73    0.39
  -3   6  -6    1.74    0.37
   3  -6   6    2.30    0.46
  -4   6  -6    2.21    0.38
  -4   6  -6    1.44    0.38
  -5   6  -6    6.20    0.80
   5  -6   6    7.35    0.80
  -6   6  -6    0.86    0.40
   6  -6   6    1.13    0.46
  -7   6  -6   -0.20    0.37
   7  -6   6    0.06    0.39
   7  -6   6   -0.10    0.37
   8  -6   6   -0.07    0.42
   8  -6   6    0.13    0.43
   8   5  -6    0.30    0.37
   8   5  -6    0.04    0.35
  -8  -5   6    0.07    0.44
   7   5  -6   -0.06    0.31
   7   5  -6   -0.57    0.36
  -7  -5   6    0.36    0.46
  -7  -5   6    0.03    0.60
   6   5  -6   -0.33    0.36
  -6  -5   6   -0.44    0.34
  -6  -5   6    0.06    0.52
   5   5  -6   -0.20    0.30
  -5  -5   6    0.30    0.36
  -5  -5   6    0.34    0.45
   4   5  -6   12.16    0.77
  -4  -5   6   10.01    0.69
  -4  -5   6    9.91    0.94
  -4  -5   6    9.51    0.65
   3   5  -6   25.46    1.02
  -3  -5   6   23.87    1.02
  -3  -5   6   24.55    1.31
  -3  -5   6   24.03    1.03
   2   5  -6   25.82    1.00
   2   5  -6   27.15    1.09
  -2  -5   6   27.89    1.12
  -2  -5   6   27.74    1.32
  -2  -5   6   27.56    1.09
   1   5  -6    6.41    0.30
   1   5  -6    7.41    0.57
   1   5  -6    7.52    0.56
  -1  -5   6    6.82    0.67
  -1  -5   6    7.74    0.62
   0   5  -6   10.14    0.43
   0   5  -6    9.88    0.57
   0   5  -6   11.34    0.65
   0  -5   6    9.77    0.62
   0  -5   6   10.58    0.74
  -1   5  -6   10.88    0.66
  -1   5  -6   10.50    0.63
   1  -5   6   10.23    0.74
   1  -5   6   10.29    0.68
   1  -5   6    9.75    0.45
  -2   5  -6    0.69    0.24
  -2   5  -6    0.47    0.28
   2  -5   6    0.74    0.25
   2  -5   6    0.15    0.31
   2  -5   6    0.96    0.13
  -3   5  -6    4.78    0.51
  -3   5  -6    6.10    0.62
   3  -5   6    4.20    0.58
  -4   5  -6    7.96    0.74
  -4   5  -6    5.95    0.54
   4  -5   6    7.12    0.66
  -5   5  -6    9.39    0.83
   5  -5   6    8.58    0.71
  -6   5  -6    6.40    0.80
   6  -5   6    6.17    0.65
  -7   5  -6   -0.26    0.34
   7  -5   6    0.05    0.35
   7  -5   6   -0.10    0.27
   8  -5   6    0.17    0.35
   8  -5   6    0.29    0.43
   8   4  -6   -0.15    0.34
   8   4  -6   -0.98    0.38
  -8  -4   6   -0.19    0.64
  -8  -4   6    0.00    0.43
   7   4  -6   -0.27    0.39
   7   4  -6   -0.39    0.34
  -7  -4   6   -0.11    0.36
  -7  -4   6   -0.11    0.54
   6   4  -6    6.98    0.64
  -6  -4   6    7.24    0.95
  -6  -4   6    7.87    0.99
   5   4  -6    0.33    0.31
  -5  -4   6    0.39    0.32
  -5  -4   6    0.40    0.34
  -5  -4   6    0.72    0.47
  -5  -4   6    0.23    0.13
   4   4  -6    4.85    0.42
   4   4  -6    5.74    0.56
  -4  -4   6    5.17    0.73
  -4  -4   6    4.56    0.45
  -4  -4   6    5.70    0.69
  -4  -4   6    5.10    0.59
   3   4  -6    4.59    0.48
  -3  -4   6    4.19    0.43
  -3  -4   6    4.58    0.64
  -3  -4   6    4.35    0.50
   2   4  -6    2.36    0.34
   2   4  -6    2.80    0.38
   2   4  -6    2.26    0.18
  -2  -4   6    2.85    0.40
  -2  -4   6    1.68    0.33
   1   4  -6    0.33    0.18
   1   4  -6    0.73    0.21
   1   4  -6    0.55    0.10
  -1  -4   6    0.47    0.26
  -1  -4   6    0.55    0.21
   0   4  -6   14.59    0.54
   0   4  -6   15.12    0.69
   0   4  -6   15.23    0.73
   0  -4   6   15.95    0.75
   0  -4   6   15.85    0.84
  -1   4  -6    6.01    0.37
  -1   4  -6    5.74    0.41
  -1   4  -6    6.19    0.50
   1  -4   6    6.35    0.54
   1  -4   6    6.14    0.28
   1  -4   6    6.57    0.52
  -2   4  -6    2.74    0.44
  -2   4  -6    2.43    0.33
   2  -4   6    1.74    0.29
   2  -4   6    2.62    0.39
  -3   4  -6   30.66    1.07
  -3   4  -6   32.55    1.26
   3  -4   6   31.41    1.16
  -4   4  -6   13.16    0.86
  -4   4  -6   12.14    0.64
   4  -4   6   13.39    0.80
  -5   4  -6    4.29    0.68
   5  -4   6    4.75    0.55
  -6   4  -6    0.71    0.37
   6  -4   6    0.75    0.36
   6  -4   6    0.56    0.38
  -7   4  -6    0.24    0.36
   7  -4   6   -0.05    0.33
   7  -4   6    0.52    0.32
  -8   4  -6    0.51    0.44
   8  -4   6    0.20    0.42
   9   3  -6   -0.61    0.42
  -9  -3   6   -0.85    0.46
   8   3  -6   -0.13    0.34
   8   3  -6    0.18    0.43
  -8  -3   6   -0.24    0.39
  -8  -3   6    0.31    0.63
   7   3  -6    3.30    0.50
   7   3  -6    3.34    0.57
  -7  -3   6    2.83    0.58
  -7  -3   6    3.92    0.55
  -7  -3   6    3.85    0.79
   6   3  -6   10.72    0.72
  -6  -3   6   10.95    1.01
  -6  -3   6   11.66    1.09
  -6  -3   6   11.81    0.78
   5   3  -6    4.24    0.54
  -5  -3   6    4.53    0.74
  -5  -3   6    5.36    0.53
  -5  -3   6    3.52    0.53
  -5  -3   6    4.38    0.74
   4   3  -6    0.10    0.07
   4   3  -6   -0.02    0.23
  -4  -3   6   -0.18    0.25
  -4  -3   6    0.18    0.23
  -4  -3   6   -0.48    0.26
  -4  -3   6   -0.01    0.08
  -4  -3   6    0.19    0.32
   3   3  -6    0.05    0.07
   3   3  -6   -0.01    0.20
  -3  -3   6   -0.11    0.20
  -3  -3   6   -0.16    0.23
  -3  -3   6    0.12    0.24
  -3  -3   6    0.07    0.08
  -3  -3   6    0.05    0.21
   2   3  -6    5.50    0.37
   2   3  -6    5.32    0.27
   2   3  -6    5.58    0.44
   2   3  -6    5.27    0.44
  -2  -3   6    5.41    0.56
  -2  -3   6    5.05    0.49
  -2  -3   6    4.98    0.47
   1   3  -6   -0.08    0.14
   1   3  -6   -0.01    0.08
   1   3  -6   -0.19    0.17
  -1  -3   6   -0.26    0.13
  -1  -3   6    0.14    0.20
  -1  -3   6   -0.23    0.21
   0   3  -6   11.96    0.49
   0   3  -6   13.56    0.65
   0   3  -6   12.49    0.59
   0  -3   6   13.26    0.74
   0  -3   6   12.93    0.52
   0  -3   6   12.40    0.61
  -1   3  -6   17.83    0.64
  -1   3  -6   17.26    0.67
  -1   3  -6   17.42    0.76
   1  -3   6   16.57    0.48
   1  -3   6   15.03    0.48
   1  -3   6   17.83    0.76
   1  -3   6   18.71    0.87
  -2   3  -6    1.07    0.24
  -2   3  -6    0.79    0.21
   2  -3   6    0.83    0.26
   2  -3   6    0.90    0.21
  -3   3  -6   21.82    0.96
  -3   3  -6   20.85    0.78
   3  -3   6   21.17    0.86
   3  -3   6   19.36    0.75
  -4   3  -6   22.96    1.06
  -4   3  -6   22.78    0.84
   4  -3   6   23.65    0.95
   4  -3   6   20.40    0.80
  -5   3  -6    6.03    0.69
   5  -3   6    6.16    0.57
   5  -3   6    4.17    0.48
  -6   3  -6    0.60    0.34
   6  -3   6    0.29    0.34
   6  -3   6    1.18    0.33
  -7   3  -6    0.31    0.39
   7  -3   6   -0.02    0.34
   7  -3   6    0.55    0.28
  -8   3  -6    0.34    0.40
   8  -3   6   -0.06    0.37
   9   2  -6   -0.15    0.30
   9   2  -6    0.01    0.46
   8   2  -6    2.73    0.56
   8   2  -6    5.49    0.64
  -8  -2   6    3.99    0.86
  -8  -2   6    4.82    0.65
   7   2  -6    0.34    0.36
   7   2  -6    0.25    0.40
  -7  -2   6    0.13    0.51
  -7  -2   6    0.41    0.37
  -7  -2   6    0.05    0.35
   6   2  -6    7.99    0.71
  -6  -2   6    8.22    0.87
  -6  -2   6    7.12    0.80
  -6  -2   6    8.58    0.65
   5   2  -6    1.86    0.36
   5   2  -6    2.11    0.40
  -5  -2   6    2.08    0.41
  -5  -2   6    2.28    0.52
  -5  -2   6    2.08    0.36
  -5  -2   6    1.87    0.35
   4   2  -6    0.39    0.25
  -4  -2   6    0.19    0.24
  -4  -2   6    0.44    0.25
  -4  -2   6    0.02    0.31
  -4  -2   6    0.23    0.11
  -4  -2   6    0.32    0.24
   3   2  -6    6.35    0.32
   3   2  -6    6.16    0.46
   3   2  -6    6.58    0.34
  -3  -2   6    6.31    0.57
  -3  -2   6    6.29    0.47
  -3  -2   6    6.20    0.31
  -3  -2   6    5.78    0.60
  -3  -2   6    5.92    0.49
   2   2  -6    2.79    0.23
   2   2  -6    2.20    0.34
   2   2  -6    2.62    0.26
  -2  -2   6    3.28    0.47
  -2  -2   6    2.47    0.32
  -2  -2   6    2.88    0.23
  -2  -2   6    2.45    0.34
  -2  -2   6    2.86    0.41
   1   2  -6   42.92    1.29
   1   2  -6   44.83    1.19
   1   2  -6   43.61    1.36
   1   2  -6   44.68    1.42
  -1  -2   6   44.28    1.43
  -1  -2   6   45.73    1.37
  -1  -2   6   46.28    1.20
  -1  -2   6   47.42    1.36
  -1  -2   6   44.08    1.59
   0   2  -6    1.61    0.24
   0   2  -6    2.48    0.30
   0  -2   6    2.61    0.35
   0  -2   6    2.10    0.21
   0  -2   6    2.80    0.41
  -1   2  -6   77.24    2.23
  -1   2  -6   80.32    2.03
  -1   2  -6   79.95    2.06
   1  -2   6   80.81    2.45
   1  -2   6   79.27    2.11
   1  -2   6   77.78    2.04
  -2   2  -6   22.73    0.82
  -2   2  -6   21.82    0.77
  -2   2  -6   21.80    0.88
   2  -2   6   21.46    0.82
   2  -2   6   21.62    0.76
  -3   2  -6   -0.08    0.18
  -3   2  -6    0.01    0.15
   3  -2   6    0.05    0.19
   3  -2   6   -0.15    0.14
  -4   2  -6   -0.17    0.21
  -4   2  -6   -0.08    0.17
   4  -2   6   -0.33    0.23
   4  -2   6   -0.23    0.16
   4  -2   6   -0.44    0.23
  -5   2  -6    2.25    0.39
   5  -2   6    2.58    0.39
   5  -2   6    3.10    0.40
  -6   2  -6   12.20    0.90
   6  -2   6   10.82    0.77
   6  -2   6   12.51    0.65
  -7   2  -6    6.15    0.80
   7  -2   6    6.86    0.49
   7  -2   6    6.40    0.69
  -8   2  -6    0.19    0.39
   8  -2   6    0.23    0.39
   9   1  -6   -0.13    0.42
   9   1  -6    0.64    0.36
  -9  -1   6    1.07    0.73
   8   1  -6    0.81    0.38
   8   1  -6    0.74    0.37
  -8  -1   6    0.57    0.40
  -8  -1   6    1.04    0.40
  -8  -1   6    0.94    0.66
   7   1  -6    0.92    0.41
   7   1  -6    0.89    0.39
  -7  -1   6    0.89    0.41
  -7  -1   6    1.20    0.59
  -7  -1   6    0.68    0.40
   6   1  -6    0.23    0.32
  -6  -1   6    0.48    0.34
  -6  -1   6    0.18    0.27
  -6  -1   6    0.75    0.48
  -6  -1   6    0.32    0.34
   5   1  -6    0.26    0.27
   5   1  -6    0.08    0.27
  -5  -1   6   -0.03    0.25
  -5  -1   6    0.19    0.29
  -5  -1   6   -0.37    0.35
  -5  -1   6    0.30    0.26
   4   1  -6   19.35    0.81
  -4  -1   6   18.05    0.80
  -4  -1   6   18.35    0.99
  -4  -1   6   19.14    0.81
  -4  -1   6   18.11    0.98
   3   1  -6   12.16    0.51
   3   1  -6   11.86    0.41
   3   1  -6   11.81    0.61
  -3  -1   6   11.84    0.75
  -3  -1   6   12.03    0.48
  -3  -1   6   12.71    0.63
  -3  -1   6   11.37    0.71
  -3  -1   6   11.62    0.63
   2   1  -6    5.89    0.34
   2   1  -6    5.81    0.32
   2   1  -6    5.61    0.38
  -2  -1   6    5.69    0.33
  -2  -1   6    6.23    0.46
  -2  -1   6    5.25    0.42
  -2  -1   6    5.66    0.46
  -2  -1   6    6.37    0.55
   1   1  -6   93.82    2.42
   1   1  -6   95.88    2.59
   1   1  -6   97.05    2.32
  -1  -1   6   94.03    2.86
  -1  -1   6   94.73    2.46
  -1  -1   6   97.43    2.49
  -1  -1   6   93.05    2.72
  -1  -1   6   96.43    2.31
   0   1  -6    0.31    0.18
   0   1  -6    0.08    0.13
   0   1  -6    0.06    0.11
   0  -1   6    0.19    0.20
   0  -1   6    0.08    0.17
   0  -1   6    0.38    0.13
   0  -1   6    0.18    0.16
   0  -1   6    0.46    0.16
  -1   1  -6   22.13    0.76
  -1   1  -6   21.86    0.75
  -1   1  -6   21.34    0.82
   1  -1   6   21.74    0.80
   1  -1   6   21.79    0.74
  -2   1  -6    1.14    0.20
  -2   1  -6    1.02    0.20
  -2   1  -6    1.55    0.23
  -2   1  -6    1.63    0.20
   2  -1   6    1.22    0.24
   2  -1   6    1.81    0.23
   2  -1   6    1.59    0.24
  -3   1  -6   -0.06    0.06
  -3   1  -6    0.07    0.14
  -3   1  -6    0.01    0.16
  -3   1  -6    0.01    0.05
  -3   1  -6    0.09    0.18
  -3   1  -6    0.11    0.12
   3  -1   6    0.01    0.12
   3  -1   6   -0.10    0.19
   3  -1   6   -0.11    0.15
  -4   1  -6    0.32    0.22
  -4   1  -6    0.35    0.17
  -4   1  -6    0.46    0.15
  -4   1  -6    0.25    0.14
  -4   1  -6    0.45    0.24
   4  -1   6    0.35    0.23
   4  -1   6    0.30    0.16
   4  -1   6    0.31    0.25
  -5   1  -6   24.49    0.92
  -5   1  -6   26.57    1.18
   5  -1   6   23.52    1.02
   5  -1   6   27.72    0.90
  -6   1  -6    0.50    0.31
   6  -1   6    0.51    0.22
  -7   1  -6    0.34    0.33
   7  -1   6    0.37    0.36
  -8   1  -6    0.11    0.36
   8  -1   6   -0.16    0.36
   9   0  -6    0.09    0.45
  -9   0   6    0.92    0.67
   8   0  -6    0.49    0.42
   8   0  -6    0.18    0.38
  -8   0   6    0.12    0.42
  -8   0   6    0.49    0.51
  -8   0   6   -0.54    0.34
   7   0  -6   -0.09    0.34
   7   0  -6   -0.57    0.29
  -7   0   6   -0.10    0.34
  -7   0   6   -0.02    0.50
   6   0  -6    0.01    0.35
  -6   0   6    0.08    0.30
  -6   0   6   -0.09    0.29
  -6   0   6    0.43    0.45
   5   0  -6    3.62    0.50
  -5   0   6    2.94    0.53
  -5   0   6    3.12    0.46
  -5   0   6    3.98    0.66
   4   0  -6    2.30    0.35
  -4   0   6    2.89    0.51
  -4   0   6    2.20    0.35
  -4   0   6    2.02    0.41
   3   0  -6   38.01    1.11
   3   0  -6   35.57    0.97
   3   0  -6   37.47    1.20
  -3   0   6   38.30    1.41
  -3   0   6   37.27    1.22
  -3   0   6   37.74    1.41
   2   0  -6   11.33    0.54
   2   0  -6   12.07    0.51
  -2   0   6   11.43    0.61
  -2   0   6   11.71    0.34
  -2   0   6   12.06    0.67
  -2   0   6   11.35    0.62
   1   0  -6   24.81    0.87
   1   0  -6   25.35    0.80
   1   0  -6   23.87    0.84
   1   0  -6   24.21    0.90
  -1   0   6   24.92    0.90
  -1   0   6   25.41    0.66
  -1   0   6   23.44    0.84
  -1   0   6   23.06    0.85
  -1   0   6   24.72    1.01
   0   0  -6    5.14    0.32
   0   0  -6    5.02    0.35
   0   0  -6    5.18    0.36
   0   0  -6    5.16    0.33
   0   0   6    4.68    0.33
   0   0   6    5.14    0.32
   0   0   6    5.08    0.34
   0   0   6    4.84    0.39
   0   0   6    4.84    0.28
  -1   0  -6    9.19    0.38
  -1   0  -6    8.38    0.44
  -1   0  -6    8.83    0.46
  -1   0  -6    9.00    0.46
   1   0   6    8.25    0.40
   1   0   6    9.10    0.42
   1   0   6    8.68    0.47
   1   0   6    8.63    0.42
  -2   0  -6    4.22    0.27
  -2   0  -6    4.35    0.32
  -2   0  -6    4.43    0.36
  -2   0  -6    4.98    0.39
   2   0   6    4.44    0.36
   2   0   6    4.70    0.32
   2   0   6    4.32    0.32
  -3   0  -6   14.57    0.68
  -3   0  -6   14.78    0.56
  -3   0  -6   14.15    0.55
  -3   0  -6   14.60    0.69
   3   0   6   14.76    0.67
   3   0   6   15.42    0.62
   3   0   6   14.84    0.55
  -4   0  -6    7.64    0.63
  -4   0  -6    8.84    0.41
  -4   0  -6   10.18    0.62
   4   0   6    8.88    0.41
   4   0   6    9.67    0.50
   4   0   6    8.24    0.53
  -5   0  -6    7.06    0.70
  -5   0  -6    6.37    0.52
  -5   0  -6    7.74    0.62
   5   0   6    6.35    0.42
   5   0   6    6.16    0.60
  -6   0  -6    1.25    0.34
  -6   0  -6    1.10    0.33
   6   0   6    1.21    0.17
   6   0   6    0.93    0.37
  -7   0  -6    0.36    0.32
  -7   0  -6    0.92    0.33
   7   0   6    0.58    0.38
  -8   0  -6   -0.01    0.31
  -8   0  -6    0.16    0.34
   8   0   6   -0.09    0.35
   9  -1  -6    0.10    0.45
  -9   1   6   -0.04    0.67
   8  -1  -6    2.46    0.52
   8  -1  -6    1.63    0.48
  -8   1   6    2.93    0.75
   7  -1  -6   -0.16    0.32
   7  -1  -6   -0.54    0.30
  -7   1   6   -0.28    0.29
  -7   1   6    0.02    0.49
   6  -1  -6    2.69    0.45
  -6   1   6    1.76    0.37
  -6   1   6    2.61    0.44
  -6   1   6    2.55    0.52
   5  -1  -6   15.67    0.81
  -5   1   6   15.31    0.91
  -5   1   6   13.30    0.76
  -5   1   6   15.32    0.99
   4  -1  -6    0.55    0.27
  -4   1   6    0.12    0.21
  -4   1   6    0.33    0.24
  -4   1   6    0.20    0.31
   3  -1  -6   21.30    0.83
   3  -1  -6   20.54    0.63
   3  -1  -6   22.57    0.79
  -3   1   6   21.82    0.88
  -3   1   6   22.36    1.00
  -3   1   6   21.86    0.97
   2  -1  -6   33.17    1.00
   2  -1  -6   31.85    1.07
  -2   1   6   31.55    1.18
  -2   1   6   32.11    1.23
  -2   1   6   32.19    1.09
  -2   1   6   32.27    0.73
   1  -1  -6   21.80    0.85
   1  -1  -6   21.29    0.78
   1  -1  -6   21.36    0.77
   1  -1  -6   22.71    0.76
  -1   1   6   20.77    0.75
  -1   1   6   22.09    0.83
  -1   1   6   22.61    0.87
  -1   1   6   22.30    0.60
   0  -1  -6   47.17    1.35
   0  -1  -6   46.74    1.33
   0  -1  -6   47.93    1.48
   0  -1  -6   47.09    1.37
   0   1   6   45.44    1.31
   0   1   6   48.76    1.18
   0   1   6   47.29    1.37
   0   1   6   47.53    1.38
   0   1   6   48.07    1.48
  -1  -1  -6    4.53    0.36
  -1  -1  -6    4.81    0.34
  -1  -1  -6    4.86    0.34
  -1  -1  -6    4.64    0.34
   1   1   6    5.52    0.34
   1   1   6    4.78    0.31
   1   1   6    4.38    0.31
   1   1   6    5.05    0.33
   1   1   6    4.66    0.37
  -2  -1  -6   15.82    0.64
  -2  -1  -6   16.06    0.66
  -2  -1  -6   16.31    0.70
  -2  -1  -6   16.10    0.61
   2   1   6   15.43    0.57
   2   1   6   15.92    0.64
   2   1   6   16.09    0.64
  -3  -1  -6   -0.20    0.14
  -3  -1  -6   -0.01    0.17
  -3  -1  -6   -0.17    0.13
  -3  -1  -6   -0.11    0.15
   3   1   6    0.08    0.13
   3   1   6   -0.06    0.17
   3   1   6    0.03    0.15
  -4  -1  -6    4.47    0.46
  -4  -1  -6    3.41    0.26
  -4  -1  -6    4.49    0.50
   4   1   6    2.95    0.38
   4   1   6    3.36    0.35
  -5  -1  -6    0.20    0.25
  -5  -1  -6   -0.23    0.24
   5   1   6   -0.15    0.15
  -6  -1  -6    0.24    0.29
  -6  -1  -6    0.56    0.28
  -6  -1  -6    0.95    0.34
   6   1   6    0.29    0.33
  -7  -1  -6   -0.02    0.29
  -7  -1  -6    0.26    0.28
   7   1   6    0.03    0.34
  -8  -1  -6    0.07    0.34
  -8  -1  -6   -0.44    0.28
   8   1   6   -0.14    0.36
   9  -2  -6   -0.02    0.43
   9  -2  -6    0.19    0.44
  -9   2   6    0.37    0.73
   8  -2  -6    0.89    0.47
  -8   2   6    0.96    0.66
   7  -2  -6    1.52    0.40
   7  -2  -6    1.99    0.47
  -7   2   6    2.10    0.63
   6  -2  -6    1.50    0.41
   6  -2  -6    1.70    0.36
  -6   2   6    0.58    0.29
  -6   2   6    1.15    0.52
  -6   2   6    1.20    0.39
   5  -2  -6    4.04    0.55
  -5   2   6    2.18    0.34
  -5   2   6    2.58    0.43
   4  -2  -6   13.79    0.75
   4  -2  -6   12.65    0.64
  -4   2   6   11.72    0.65
  -4   2   6   13.74    0.86
  -4   2   6   13.53    0.78
   3  -2  -6    0.24    0.07
   3  -2  -6    0.55    0.20
   3  -2  -6    0.00    0.26
  -3   2   6    0.39    0.22
  -3   2   6    0.23    0.27
   2  -2  -6    2.10    0.26
   2  -2  -6    2.60    0.35
   2  -2  -6    2.65    0.34
  -2   2   6    2.15    0.35
  -2   2   6    2.43    0.37
   1  -2  -6   20.12    0.78
   1  -2  -6   20.14    0.78
   1  -2  -6   20.87    0.75
  -1   2   6   19.87    0.78
  -1   2   6   20.48    0.85
  -1   2   6   20.78    0.58
  -1   2   6   19.86    0.70
   0  -2  -6    7.88    0.45
   0  -2  -6    7.83    0.47
   0  -2  -6    8.13    0.47
   0  -2  -6    8.21    0.40
   0   2   6    8.07    0.39
   0   2   6    7.75    0.43
   0   2   6    8.24    0.49
   0   2   6    8.43    0.37
   0   2   6    8.16    0.49
  -1  -2  -6   10.14    0.46
  -1  -2  -6   10.22    0.55
  -1  -2  -6   10.93    0.54
  -1  -2  -6   11.37    0.53
   1   2   6   10.81    0.53
   1   2   6   10.39    0.49
   1   2   6   10.61    0.48
   1   2   6   10.67    0.46
  -2  -2  -6    0.02    0.11
  -2  -2  -6    0.33    0.15
  -2  -2  -6    0.36    0.17
  -2  -2  -6   -0.08    0.19
   2   2   6    0.14    0.11
   2   2   6    0.08    0.19
   2   2   6    0.28    0.16
   2   2   6    0.31    0.19
   2   2   6    0.27    0.12
  -3  -2  -6    1.04    0.19
  -3  -2  -6    0.81    0.23
  -3  -2  -6    0.66    0.18
   3   2   6    0.50    0.26
   3   2   6    0.86    0.17
   3   2   6    0.45    0.21
  -4  -2  -6   -0.16    0.19
  -4  -2  -6   -0.14    0.16
   4   2   6   -0.09    0.04
   4   2   6   -0.39    0.18
  -5  -2  -6    0.25    0.23
  -5  -2  -6    0.24    0.24
   5   2   6   -0.10    0.30
   5   2   6    0.13    0.13
  -6  -2  -6    0.06    0.27
  -6  -2  -6   -0.25    0.23
   6   2   6    0.06    0.31
  -7  -2  -6    0.24    0.27
  -7  -2  -6    0.13    0.27
   7   2   6   -0.08    0.26
  -8  -2  -6   -0.09    0.28
  -8  -2  -6   -0.41    0.30
   8   2   6    0.59    0.42
   9  -3  -6    1.03    0.47
   9  -3  -6    1.17    0.53
  -9   3   6    0.27    0.75
   8  -3  -6    0.25    0.38
   8  -3  -6    0.34    0.48
  -8   3   6    0.09    0.65
   7  -3  -6    2.56    0.43
  -7   3   6    2.33    0.69
   6  -3  -6    1.01    0.40
   6  -3  -6    0.88    0.31
  -6   3   6    1.12    0.41
  -6   3   6    1.07    0.54
   5  -3  -6    0.01    0.31
  -5   3   6   -0.17    0.31
  -5   3   6    0.01    0.40
   4  -3  -6    1.59    0.24
   4  -3  -6    0.99    0.26
   4  -3  -6    1.44    0.37
  -4   3   6    1.31    0.37
  -4   3   6    1.58    0.44
   3  -3  -6    0.50    0.10
   3  -3  -6    1.26    0.32
   3  -3  -6    0.76    0.22
  -3   3   6    0.92    0.27
  -3   3   6    0.85    0.35
   2  -3  -6   43.81    1.36
   2  -3  -6   42.39    1.36
   2  -3  -6   46.15    1.34
  -2   3   6   45.05    1.58
  -2   3   6   40.76    1.28
  -2   3   6   45.48    1.41
   1  -3  -6   11.27    0.58
   1  -3  -6   11.64    0.61
   1  -3  -6   11.25    0.60
  -1   3   6   11.81    0.67
  -1   3   6   10.64    0.46
  -1   3   6   10.84    0.57
   0  -3  -6   15.68    0.66
   0  -3  -6   14.74    0.73
   0  -3  -6   15.58    0.67
   0   3   6   15.55    0.55
   0   3   6   15.90    0.70
   0   3   6   15.19    0.64
   0   3   6   15.23    0.55
  -1  -3  -6   10.45    0.55
  -1  -3  -6    9.29    0.40
  -1  -3  -6    9.32    0.51
  -1  -3  -6    9.51    0.63
   1   3   6    9.06    0.46
   1   3   6    9.24    0.40
   1   3   6    9.30    0.48
   1   3   6    8.91    0.53
  -2  -3  -6    0.46    0.13
  -2  -3  -6    0.64    0.19
  -2  -3  -6    0.69    0.20
   2   3   6    0.52    0.19
   2   3   6    0.30    0.21
   2   3   6    0.12    0.22
  -3  -3  -6    0.13    0.18
  -3  -3  -6    0.03    0.13
   3   3   6   -0.34    0.15
  -4  -3  -6    2.97    0.42
  -4  -3  -6    3.95    0.52
   4   3   6    2.40    0.33
   4   3   6    2.20    0.39
  -5  -3  -6    0.21    0.25
  -5  -3  -6    0.25    0.21
   5   3   6    0.06    0.11
   5   3   6    0.01    0.23
  -6  -3  -6    0.25    0.23
  -6  -3  -6   -0.01    0.24
   6   3   6    0.00    0.31
  -7  -3  -6    0.26    0.30
  -7  -3  -6    0.15    0.27
   7   3   6    0.61    0.38
  -8  -3  -6    0.03    0.29
  -8  -3  -6    0.07    0.31
   8   3   6    0.00    0.37
   9  -4  -6    0.78    0.44
   9  -4  -6    0.07    0.50
   8  -4  -6   -0.23    0.48
   8  -4  -6   -0.33    0.38
  -8   4   6   -1.21    0.63
   7  -4  -6    0.30    0.34
   7  -4  -6    0.02    0.43
  -7   4   6   -0.40    0.61
   6  -4  -6    0.31    0.28
  -6   4   6    0.27    0.36
  -6   4   6    0.08    0.42
   5  -4  -6    4.90    0.55
   5  -4  -6    5.65    0.43
  -5   4   6    5.71    0.83
  -5   4   6    5.73    0.65
   4  -4  -6    1.95    0.32
   4  -4  -6    2.79    0.45
  -4   4   6    2.84    0.47
  -4   4   6    2.40    0.52
   3  -4  -6    4.51    0.38
   3  -4  -6    4.86    0.47
   3  -4  -6    4.51    0.55
  -3   4   6    5.30    0.66
  -3   4   6    3.97    0.55
   2  -4  -6    0.12    0.25
   2  -4  -6    0.08    0.11
   2  -4  -6    0.18    0.18
  -2   4   6    0.08    0.22
  -2   4   6    0.42    0.30
  -2   4   6    0.08    0.11
   1  -4  -6    1.87    0.27
   1  -4  -6    2.16    0.34
  -1   4   6    1.81    0.20
  -1   4   6    2.10    0.38
  -1   4   6    1.80    0.34
   0  -4  -6    2.33    0.33
   0  -4  -6    2.46    0.34
   0   4   6    2.55    0.36
   0   4   6    2.66    0.19
  -1  -4  -6   -0.06    0.19
  -1  -4  -6    0.05    0.15
  -1  -4  -6    0.43    0.20
   1   4   6   -0.06    0.20
   1   4   6   -0.05    0.22
   1   4   6    0.34    0.19
  -2  -4  -6    7.16    0.35
  -2  -4  -6    8.23    0.53
  -2  -4  -6    7.31    0.70
   2   4   6    6.64    0.44
   2   4   6    6.35    0.49
   2   4   6    7.40    0.51
  -3  -4  -6   14.96    0.74
  -3  -4  -6   13.87    0.57
  -3  -4  -6   14.60    0.92
   3   4   6   14.30    0.65
   3   4   6   13.79    0.45
   3   4   6   14.02    0.73
  -4  -4  -6   -0.29    0.23
  -4  -4  -6    0.11    0.22
  -4  -4  -6   -0.01    0.13
   4   4   6   -0.35    0.19
   4   4   6    0.08    0.28
  -5  -4  -6    0.40    0.20
  -5  -4  -6    0.30    0.26
  -5  -4  -6    0.49    0.26
   5   4   6    0.40    0.13
   5   4   6    0.43    0.34
  -6  -4  -6    0.17    0.26
  -6  -4  -6    0.31    0.26
   6   4   6    0.22    0.33
  -7  -4  -6   -0.16    0.27
  -7  -4  -6   -0.26    0.27
   7   4   6   -0.24    0.36
   8  -5  -6   -0.80    0.43
   7  -5  -6   -0.03    0.31
   7  -5  -6    0.33    0.48
  -7   5   6   -1.14    0.64
   6  -5  -6   -0.06    0.24
   6  -5  -6   -0.32    0.41
  -6   5   6   -0.66    0.55
  -6   5   6   -0.20    0.38
   5  -5  -6   -0.18    0.29
   5  -5  -6   -0.10    0.11
   5  -5  -6   -0.10    0.18
  -5   5   6   -0.25    0.36
  -5   5   6   -0.20    0.50
   4  -5  -6    4.00    0.31
   4  -5  -6    3.66    0.45
  -4   5   6    3.61    0.53
  -4   5   6    5.10    0.78
   3  -5  -6    0.21    0.13
   3  -5  -6    0.37    0.22
  -3   5   6    0.24    0.39
  -3   5   6   -0.23    0.31
   2  -5  -6    0.18    0.13
   2  -5  -6    0.54    0.22
  -2   5   6    0.26    0.33
  -2   5   6    0.31    0.33
  -2   5   6    0.22    0.11
   1  -5  -6    7.64    0.62
   1  -5  -6    7.35    0.52
  -1   5   6    7.82    0.67
  -1   5   6    7.01    0.60
  -1   5   6    6.65    0.30
   0  -5  -6    9.39    0.69
   0  -5  -6    9.56    0.60
   0   5   6    9.03    0.63
  -1  -5  -6   14.76    0.73
  -1  -5  -6   12.92    0.72
  -1  -5  -6   13.35    0.91
   1   5   6   12.07    0.66
   1   5   6   13.53    0.72
  -2  -5  -6   -0.29    0.19
  -2  -5  -6   -0.15    0.20
  -2  -5  -6   -0.50    0.20
  -3  -5  -6    7.50    0.63
  -3  -5  -6    8.54    0.83
   3   5   6    8.33    0.55
   3   5   6    8.45    0.61
  -4  -5  -6    4.70    0.55
  -4  -5  -6    7.05    0.83
   4   5   6    5.74    0.59
   4   5   6    6.16    0.46
  -5  -5  -6    0.00    0.24
  -5  -5  -6    0.01    0.26
   5   5   6    0.08    0.32
  -6  -5  -6    0.32    0.28
  -6  -5  -6    0.10    0.29
   6   5   6    0.31    0.38
  -7  -5  -6   -0.55    0.27
  -7  -5  -6    0.39    0.29
   7   5   6    0.06    0.40
   8  -6  -6    0.29    0.55
   7  -6  -6   -0.06    0.51
   6  -6  -6    0.45    0.48
  -6   6   6   -0.77    0.61
  -6   6   6   -0.17    0.40
   5  -6  -6   -0.02    0.42
   5  -6  -6    0.13    0.15
  -5   6   6   -0.50    0.52
  -5   6   6    0.39    0.42
   4  -6  -6    1.09    0.39
   4  -6  -6    0.49    0.18
  -4   6   6    0.82    0.44
  -4   6   6    0.62    0.50
   3  -6  -6   -0.04    0.24
   3  -6  -6   -0.56    0.34
   3  -6  -6    0.21    0.16
  -3   6   6   -0.08    0.38
  -3   6   6   -0.39    0.42
   2  -6  -6    3.25    0.51
   2  -6  -6    4.37    0.57
   2  -6  -6    3.58    0.52
  -2   6   6    3.04    0.54
  -2   6   6    4.06    0.62
   1  -6  -6    0.26    0.18
   1  -6  -6    0.23    0.22
   1  -6  -6    0.28    0.30
  -1   6   6    0.50    0.37
   0  -6  -6    0.04    0.30
   0  -6  -6   -0.03    0.20
   0  -6  -6    0.21    0.24
   0   6   6   -0.13    0.38
  -1  -6  -6    8.86    0.66
  -1  -6  -6    8.78    0.66
  -1  -6  -6    9.89    0.85
   1   6   6    8.38    0.67
   1   6   6    8.92    0.67
  -2  -6  -6    0.11    0.25
  -2  -6  -6    0.20    0.23
   2   6   6    0.05    0.27
   2   6   6    0.64    0.43
  -3  -6  -6   11.10    0.94
  -3  -6  -6    9.14    0.69
   3   6   6    9.99    0.63
   3   6   6    9.36    0.85
  -4  -6  -6    0.95    0.30
  -4  -6  -6    0.64    0.30
   4   6   6    1.50    0.29
   4   6   6    0.81    0.42
  -5  -6  -6    0.33    0.30
  -5  -6  -6    0.30    0.27
  -6  -6  -6    0.04    0.27
  -6  -6  -6   -0.07    0.31
   7  -7  -6   -0.24    0.51
   6  -7  -6    0.67    0.52
  -6   7   6    0.15    0.42
   5  -7  -6    1.53    0.54
  -5   7   6    1.04    0.48
  -5   7   6    0.38    0.61
   4  -7  -6    0.99    0.46
  -4   7   6    1.12    0.46
  -4   7   6    0.20    0.52
   3  -7  -6    0.21    0.18
   3  -7  -6    0.24    0.27
   3  -7  -6    0.42    0.42
  -3   7   6    0.38    0.42
  -3   7   6    0.26    0.48
   2  -7  -6   47.53    1.77
   2  -7  -6   45.24    1.58
   2  -7  -6   47.44    1.69
  -2   7   6   47.69    1.67
   1  -7  -6   11.76    0.89
   1  -7  -6   11.28    0.73
   1  -7  -6   12.42    0.85
  -1   7   6   12.75    0.87
   0  -7  -6    1.86    0.37
   0  -7  -6    2.11    0.42
   0  -7  -6    1.61    0.31
   0   7   6    2.43    0.46
  -1  -7  -6    0.06    0.26
  -1  -7  -6   -0.17    0.26
  -1  -7  -6   -0.02    0.23
   1   7   6    0.11    0.35
   1   7   6    0.38    0.39
  -2  -7  -6    0.53    0.29
  -2  -7  -6    0.48    0.28
   2   7   6    1.26    0.37
   2   7   6    1.41    0.50
  -3  -7  -6    0.21    0.27
  -3  -7  -6    0.06    0.23
   3   7   6    0.03    0.32
   3   7   6    0.14    0.28
  -4  -7  -6    3.84    0.56
   4   7   6    2.43    0.66
   4   7   6    4.84    0.50
  -5  -7  -6    0.03    0.31
  -5  -7  -6    0.04    0.26
   5   7   6    0.40    0.44
   6  -8  -6    0.60    0.54
  -6   8   6   -0.59    0.71
  -6   8   6    0.33    0.46
   5  -8  -6    1.58    0.57
  -5   8   6    0.52    0.65
  -5   8   6    1.18    0.50
   4  -8  -6    8.10    0.91
   4  -8  -6    5.49    0.73
  -4   8   6    7.62    0.86
  -4   8   6    6.86    0.97
   3  -8  -6    1.60    0.49
   3  -8  -6    0.81    0.26
  -3   8   6    1.43    0.48
  -3   8   6    0.84    0.38
   2  -8  -6    1.29    0.36
   2  -8  -6    1.99    0.49
   2  -8  -6    1.29    0.31
  -2   8   6    2.21    0.44
   1  -8  -6    7.54    0.74
   1  -8  -6    7.89    0.83
   1  -8  -6    6.71    0.65
  -1   8   6    7.74    0.78
   0  -8  -6    0.83    0.36
   0  -8  -6    0.14    0.28
   0  -8  -6    0.16    0.27
   0   8   6    0.82    0.41
   0   8   6    0.76    0.41
  -1  -8  -6   -0.20    0.24
  -1  -8  -6   -0.31    0.23
   1   8   6   -0.26    0.37
   1   8   6   -0.06    0.39
  -2  -8  -6    1.33    0.37
  -2  -8  -6    1.90    0.35
   2   8   6    2.26    0.45
   2   8   6    1.49    0.53
  -3  -8  -6    1.06    0.38
  -3  -8  -6    0.98    0.31
   3   8   6    1.44    0.37
   3   8   6    1.39    0.59
  -4  -8  -6    0.79    0.36
  -4  -8  -6    0.99    0.34
   4   8   6    1.09    0.51
   4   8   6    1.47    0.33
   5   8   6    0.04    0.61
  -6   9   6   -0.33    0.71
  -6   9   6    0.04    0.49
   5  -9  -6    0.42    0.52
  -5   9   6    0.22    0.48
  -5   9   6    0.56    0.61
   4  -9  -6    2.54    0.61
  -4   9   6    2.83    0.61
   3  -9  -6   -0.14    0.24
   3  -9  -6    0.21    0.43
  -3   9   6   -0.09    0.44
   2  -9  -6    0.74    0.29
   2  -9  -6    1.45    0.47
   2  -9  -6    0.78    0.33
  -2   9   6    1.24    0.49
   1  -9  -6    0.04    0.25
   1  -9  -6   -0.04    0.39
   1  -9  -6    0.16    0.30
  -1   9   6    0.31    0.41
   0  -9  -6   -0.22    0.26
   0  -9  -6    0.10    0.27
   0   9   6    0.25    0.40
   0   9   6    0.05    0.38
  -1  -9  -6   -0.36    0.25
  -1  -9  -6    0.10    0.29
   1   9   6    0.29    0.37
   1   9   6   -0.17    0.43
  -2  -9  -6    0.52    0.38
  -2  -9  -6    0.24    0.29
   2   9   6    1.01    0.44
   2   9   6    1.01    0.55
  -3  -9  -6   -0.20    0.32
   3   9   6   -0.37    0.50
   3   9   6    0.25    0.34
   4   9   6    0.38    0.32
   4   9   6    0.36    0.59
  -5  10   6    0.17    0.53
   4 -10  -6    0.26    0.48
  -4  10   6    0.01    0.47
   3 -10  -6   -0.30    0.26
   3 -10  -6   -0.56    0.39
  -3  10   6   -0.24    0.44
   2 -10  -6   -0.22    0.26
   2 -10  -6    0.12    0.41
  -2  10   6    0.38    0.44
   1 -10  -6   -0.21    0.27
   1 -10  -6   -0.26    0.27
  -1  10   6   -0.20    0.42
   0 -10  -6   -0.26    0.30
   0 -10  -6   -0.22    0.28
   0  10   6   -0.11    0.43
   0  10   6    0.04    0.41
  -1 -10  -6    0.24    0.33
  -1 -10  -6    0.00    0.28
   1  10   6   -0.25    0.38
   1  10   6    0.51    0.52
  -2 -10  -6   -0.01    0.35
   2  10   6   -0.32    0.50
   2  10   6    0.11    0.37
   3  10   6   -0.13    0.35
   3  10   6   -0.83    0.51
   3 -11  -6    0.08    0.48
   3 -11  -6   -0.69    0.34
   2 -11  -6   -0.36    0.33
   1 -11  -6   -0.03    0.33
   0  11   6    1.09    0.56
   1  11   6    0.77    0.55
  -2 -11   7   -0.71    0.45
  -1 -11   7    0.44    0.44
  -1 -11   7    2.43    0.70
   0  11  -7    0.61    0.36
   0 -11   7    1.31    0.61
  -1  11  -7   -0.14    0.47
  -1  11  -7   -0.05    0.30
   1 -11   7    0.38    0.56
  -2  11  -7   -0.65    0.35
  -2  11  -7    0.32    0.48
  -3 -10   7    0.29    0.45
  -3 -10   7   -0.04    0.30
   2  10  -7    0.50    0.48
  -2 -10   7   -0.22    0.26
  -2 -10   7   -0.12    0.39
   1  10  -7    0.12    0.26
   1  10  -7   -0.02    0.43
  -1 -10   7    0.31    0.49
  -1 -10   7   -0.38    0.34
   0  10  -7    2.06    0.56
   0  10  -7    1.75    0.40
   0 -10   7    1.34    0.43
   0 -10   7    3.09    0.67
  -1  10  -7    0.53    0.46
  -1  10  -7    0.44    0.31
   1 -10   7    1.30    0.55
  -2  10  -7   -0.69    0.33
  -2  10  -7   -0.33    0.41
   2 -10   7   -0.33    0.32
  -3  10  -7   -0.36    0.39
   3 -10   7    0.16    0.51
  -4  10  -7   -0.62    0.39
   4   9  -7    1.42    0.53
  -4  -9   7    0.57    0.46
   3   9  -7    2.07    0.53
  -3  -9   7    0.59    0.28
  -3  -9   7    0.75    0.43
   2   9  -7    0.66    0.44
  -2  -9   7    0.30    0.38
  -2  -9   7    0.76    0.46
  -2  -9   7    0.24    0.26
   1   9  -7    0.43    0.41
   1   9  -7   -0.07    0.23
  -1  -9   7   -0.26    0.30
  -1  -9   7   -0.03    0.43
   0   9  -7    0.60    0.42
   0   9  -7    0.12    0.28
   0  -9   7    0.33    0.32
   0  -9   7    0.50    0.38
  -1   9  -7    0.06    0.29
  -1   9  -7    0.48    0.40
   1  -9   7   -0.31    0.30
   1  -9   7    1.15    0.50
  -2   9  -7   -0.49    0.36
  -2   9  -7   -0.51    0.28
   2  -9   7    0.14    0.34
  -3   9  -7    1.41    0.46
   3  -9   7    0.93    0.52
  -4   9  -7   -0.19    0.38
   4  -9   7    0.88    0.53
  -5   9  -7   -0.02    0.49
   6   8  -7   -0.45    0.45
  -6  -8   7    1.38    0.62
   5   8  -7    1.03    0.47
  -5  -8   7    0.03    0.43
   4   8  -7    0.69    0.47
  -4  -8   7    0.96    0.46
  -4  -8   7    0.41    0.27
   3   8  -7    2.22    0.54
  -3  -8   7    2.30    0.53
  -3  -8   7    1.29    0.45
  -3  -8   7    1.20    0.30
   2   8  -7    3.49    0.56
  -2  -8   7    1.93    0.35
  -2  -8   7    2.12    0.48
  -2  -8   7    3.97    0.61
   1   8  -7   -0.13    0.37
   1   8  -7    0.09    0.24
  -1  -8   7   -0.01    0.30
  -1  -8   7   -0.16    0.37
   0   8  -7    1.98    0.39
   0   8  -7    2.73    0.52
   0  -8   7    2.93    0.58
   0  -8   7    1.79    0.44
  -1   8  -7   -0.35    0.27
  -1   8  -7    0.32    0.37
   1  -8   7    0.24    0.41
   1  -8   7   -0.21    0.26
  -2   8  -7    0.47    0.33
  -2   8  -7    0.88    0.40
   2  -8   7    1.44    0.49
   2  -8   7    0.43    0.30
  -3   8  -7   -0.43    0.33
  -3   8  -7    0.14    0.36
   3  -8   7    0.73    0.45
  -4   8  -7   -0.24    0.36
  -4   8  -7    0.42    0.37
   4  -8   7    0.37    0.45
  -5   8  -7   -0.46    0.38
   5  -8   7    0.05    0.44
   7   7  -7    1.19    0.49
   7   7  -7    0.90    0.52
   6   7  -7   -0.25    0.44
  -6  -7   7   -0.13    0.40
  -6  -7   7    1.05    0.58
   5   7  -7    0.10    0.40
  -5  -7   7    0.04    0.39
   4   7  -7    0.95    0.43
  -4  -7   7    0.73    0.41
   3   7  -7    2.22    0.50
  -3  -7   7    0.78    0.25
  -3  -7   7    1.36    0.44
   2   7  -7    5.65    0.68
  -2  -7   7    5.05    0.79
  -2  -7   7    4.68    0.65
  -2  -7   7    5.55    0.70
   1   7  -7    4.34    0.65
   1   7  -7    3.67    0.55
  -1  -7   7    2.64    0.49
  -1  -7   7    4.50    0.62
   0   7  -7    3.23    0.27
   0   7  -7    3.50    0.48
   0   7  -7    3.57    0.56
   0  -7   7    3.95    0.60
   0  -7   7    2.75    0.46
  -1   7  -7   -0.07    0.26
  -1   7  -7    0.28    0.27
  -1   7  -7    0.24    0.14
   1  -7   7   -0.19    0.25
   1  -7   7    0.40    0.40
  -2   7  -7    0.18    0.33
  -2   7  -7   -0.29    0.27
   2  -7   7   -0.09    0.35
  -3   7  -7    0.52    0.35
  -3   7  -7    1.09    0.38
   3  -7   7    0.80    0.43
  -4   7  -7    0.27    0.33
  -4   7  -7   -0.41    0.34
   4  -7   7    0.38    0.43
  -5   7  -7   -0.29    0.34
   5  -7   7    0.36    0.41
  -6   7  -7   -0.58    0.40
   6  -7   7    0.46    0.44
   7   6  -7    0.41    0.45
   7   6  -7    0.32    0.46
  -7  -6   7    0.05    0.44
  -7  -6   7    1.40    0.70
   6   6  -7    0.11    0.39
  -6  -6   7    0.86    0.56
  -6  -6   7    0.16    0.42
   5   6  -7    0.64    0.46
  -5  -6   7    0.60    0.50
  -5  -6   7    0.65    0.41
   4   6  -7    3.63    0.54
  -4  -6   7    2.49    0.52
  -4  -6   7    3.23    0.55
   3   6  -7   14.96    0.87
  -3  -6   7   12.59    1.08
  -3  -6   7   13.57    0.87
  -3  -6   7   12.72    0.82
   2   6  -7    1.91    0.33
   2   6  -7    3.02    0.49
  -2  -6   7    2.39    0.49
  -2  -6   7    1.49    0.40
   1   6  -7    0.30    0.24
   1   6  -7    0.29    0.32
   1   6  -7    0.39    0.10
  -1  -6   7    0.65    0.31
  -1  -6   7    0.09    0.29
   0   6  -7   -0.11    0.30
   0   6  -7   -0.02    0.22
   0   6  -7   -0.14    0.10
   0  -6   7   -0.44    0.32
   0  -6   7   -0.31    0.29
  -1   6  -7   16.52    0.68
  -1   6  -7   17.40    0.94
  -1   6  -7   18.39    0.92
   1  -6   7   18.97    1.02
   1  -6   7   17.28    1.04
  -2   6  -7   40.40    1.41
  -2   6  -7   38.14    1.50
   2  -6   7   39.97    1.50
   2  -6   7   37.60    1.54
  -3   6  -7    6.12    0.61
  -3   6  -7    5.17    0.70
   3  -6   7    6.67    0.72
  -4   6  -7   -0.43    0.30
  -4   6  -7    0.10    0.27
   4  -6   7    0.14    0.38
  -5   6  -7    1.02    0.43
   5  -6   7    1.96    0.55
  -6   6  -7    0.81    0.43
   6  -6   7    0.86    0.50
   7  -6   7    0.07    0.39
   7  -6   7   -0.17    0.39
   8   5  -7   -0.19    0.44
   8   5  -7   -0.57    0.40
  -8  -5   7   -0.14    0.61
   7   5  -7   -0.36    0.40
  -7  -5   7   -0.02    0.43
  -7  -5   7    0.83    0.63
   6   5  -7    1.61    0.46
  -6  -5   7    2.43    0.67
  -6  -5   7    0.89    0.46
   5   5  -7   15.60    0.95
  -5  -5   7   14.89    1.21
  -5  -5   7   12.24    1.14
   4   5  -7    8.72    0.72
  -4  -5   7    7.73    0.93
  -4  -5   7    8.06    0.84
  -4  -5   7    7.77    0.76
   3   5  -7    0.67    0.34
  -3  -5   7    0.68    0.36
  -3  -5   7    0.23    0.25
  -3  -5   7    0.84    0.35
   2   5  -7    9.45    0.70
   2   5  -7    8.53    0.33
   2   5  -7   10.03    0.70
  -2  -5   7    9.85    0.73
  -2  -5   7    8.90    0.84
   1   5  -7   15.24    0.84
   1   5  -7   14.12    0.51
   1   5  -7   15.34    0.80
  -1  -5   7   16.17    0.88
  -1  -5   7   14.59    0.98
   0   5  -7    1.73    0.31
   0   5  -7    2.69    0.40
   0   5  -7    1.97    0.26
   0  -5   7    2.80    0.47
   0  -5   7    1.43    0.34
  -1   5  -7    5.26    0.38
  -1   5  -7    4.09    0.54
  -1   5  -7    4.71    0.54
   1  -5   7    4.57    0.57
   1  -5   7    4.37    0.29
   1  -5   7    4.50    0.64
  -2   5  -7    0.10    0.24
   2  -5   7   -0.34    0.32
   2  -5   7   -0.28    0.22
  -3   5  -7    1.21    0.34
  -3   5  -7    2.13    0.37
   3  -5   7    2.39    0.49
  -4   5  -7    1.92    0.41
  -4   5  -7    3.48    0.48
   4  -5   7    3.16    0.54
  -5   5  -7   -0.21    0.32
   5  -5   7    0.41    0.37
  -6   5  -7    0.83    0.41
   6  -5   7    0.75    0.34
   6  -5   7    0.87    0.44
  -7   5  -7    0.19    0.39
   7  -5   7    0.38    0.39
   7  -5   7   -0.18    0.38
   8   4  -7    0.07    0.43
   8   4  -7   -0.33    0.38
  -8  -4   7   -0.10    0.46
  -8  -4   7    0.48    0.72
   7   4  -7   -0.26    0.40
  -7  -4   7    0.32    0.59
  -7  -4   7    0.31    0.44
   6   4  -7    1.65    0.49
  -6  -4   7    0.54    0.41
  -6  -4   7    1.49    0.59
   5   4  -7    4.09    0.60
  -5  -4   7    3.24    0.66
  -5  -4   7    4.27    0.63
  -5  -4   7    2.43    0.50
   4   4  -7    5.18    0.66
  -4  -4   7    5.24    0.77
  -4  -4   7    4.63    0.59
  -4  -4   7    4.39    0.77
   3   4  -7    3.88    0.53
  -3  -4   7    2.60    0.45
  -3  -4   7    3.64    0.46
  -3  -4   7    3.89    0.56
   2   4  -7    3.57    0.50
   2   4  -7    3.58    0.25
   2   4  -7    3.80    0.46
  -2  -4   7    4.17    0.51
  -2  -4   7    4.01    0.50
  -2  -4   7    4.04    0.64
   1   4  -7   -0.36    0.22
   1   4  -7    0.01    0.09
   1   4  -7    0.18    0.18
  -1  -4   7   -0.22    0.26
  -1  -4   7    0.00    0.23
  -1  -4   7    0.02    0.18
   0   4  -7   -0.07    0.17
   0   4  -7   -0.16    0.17
   0   4  -7   -0.06    0.10
   0  -4   7   -0.02    0.13
   0  -4   7   -0.20    0.25
   0  -4   7   -0.14    0.22
  -1   4  -7    2.71    0.45
  -1   4  -7    2.65    0.35
  -1   4  -7    2.85    0.32
   1  -4   7    2.53    0.16
   1  -4   7    1.71    0.32
   1  -4   7    2.49    0.42
   1  -4   7    2.66    0.17
  -2   4  -7    9.29    0.67
  -2   4  -7    7.66    0.60
  -2   4  -7    6.65    0.49
   2  -4   7    7.51    0.67
   2  -4   7    8.39    0.65
  -3   4  -7   29.76    1.10
  -3   4  -7   31.06    1.28
   3  -4   7   31.14    1.21
  -4   4  -7   23.64    1.16
  -4   4  -7   23.47    0.95
   4  -4   7   23.73    1.04
  -5   4  -7    1.10    0.38
   5  -4   7    2.31    0.46
  -6   4  -7   -0.23    0.32
   6  -4   7    0.41    0.34
   6  -4   7   -0.18    0.30
  -7   4  -7   -0.20    0.36
   7  -4   7   -0.04    0.36
   7  -4   7    0.15    0.33
   8  -4   7   -0.42    0.39
   9   3  -7   -0.32    0.32
   9   3  -7   -0.11    0.37
   8   3  -7    0.55    0.44
   8   3  -7    0.76    0.43
  -8  -3   7    0.47    0.44
  -8  -3   7    1.75    0.73
  -8  -3   7    0.60    0.53
   7   3  -7    0.22    0.41
  -7  -3   7    0.23    0.41
  -7  -3   7   -0.01    0.40
  -7  -3   7    0.28    0.60
   6   3  -7    4.21    0.62
  -6  -3   7    3.59    0.72
  -6  -3   7    4.23    0.66
  -6  -3   7    2.50    0.52
   5   3  -7    7.24    0.72
  -5  -3   7    6.34    0.62
  -5  -3   7    7.91    0.65
  -5  -3   7    6.36    0.83
  -5  -3   7    7.16    0.88
   4   3  -7    2.21    0.40
  -4  -3   7    1.52    0.41
  -4  -3   7    1.91    0.37
  -4  -3   7    1.24    0.42
  -4  -3   7    1.09    0.37
   3   3  -7    2.53    0.25
   3   3  -7    2.53    0.35
   3   3  -7    2.35    0.29
  -3  -3   7    2.07    0.41
  -3  -3   7    2.69    0.23
  -3  -3   7    2.77    0.43
  -3  -3   7    2.68    0.41
  -3  -3   7    2.15    0.40
   2   3  -7   23.88    0.98
   2   3  -7   23.46    0.73
   2   3  -7   23.10    0.93
  -2  -3   7   23.64    1.16
  -2  -3   7   24.77    1.04
  -2  -3   7   22.97    0.94
   1   3  -7    0.16    0.17
   1   3  -7    0.16    0.10
   1   3  -7    0.07    0.22
  -1  -3   7    0.01    0.17
  -1  -3   7    0.22    0.23
  -1  -3   7   -0.10    0.24
   0   3  -7    0.12    0.13
   0   3  -7    0.13    0.17
   0   3  -7    0.42    0.19
   0  -3   7    0.32    0.13
   0  -3   7    0.10    0.21
   0  -3   7    0.46    0.26
  -1   3  -7   14.22    0.60
  -1   3  -7   13.52    0.72
  -1   3  -7   12.96    0.62
   1  -3   7   13.74    0.72
   1  -3   7   14.88    0.85
  -2   3  -7    8.14    0.55
  -2   3  -7    8.62    0.56
  -2   3  -7    9.32    0.64
   2  -3   7    8.17    0.62
  -3   3  -7    0.25    0.25
  -3   3  -7    0.07    0.23
   3  -3   7   -0.17    0.33
  -4   3  -7   11.86    0.61
  -4   3  -7   13.02    0.85
   4  -3   7   13.12    0.77
  -5   3  -7    0.89    0.35
   5  -3   7    0.60    0.28
   5  -3   7    1.44    0.37
  -6   3  -7   -0.17    0.34
   6  -3   7    0.12    0.32
   6  -3   7    0.68    0.31
  -7   3  -7   -0.35    0.35
   7  -3   7   -0.22    0.27
   7  -3   7    0.12    0.29
   8  -3   7    0.07    0.42
   9   2  -7    0.78    0.42
   9   2  -7    0.34    0.47
  -9  -2   7   -0.88    0.44
   8   2  -7    1.61    0.47
   8   2  -7    1.33    0.48
  -8  -2   7    2.31    0.75
  -8  -2   7    2.00    0.49
  -8  -2   7    1.01    0.54
   7   2  -7    3.06    0.52
  -7  -2   7    2.05    0.52
  -7  -2   7    4.45    0.63
  -7  -2   7    2.97    0.73
   6   2  -7    0.40    0.36
  -6  -2   7    0.02    0.36
  -6  -2   7    0.41    0.51
  -6  -2   7    0.68    0.40
   5   2  -7    4.48    0.57
  -5  -2   7    2.78    0.48
  -5  -2   7    3.53    0.62
  -5  -2   7    2.98    0.45
  -5  -2   7    4.69    0.56
   4   2  -7    1.23    0.14
   4   2  -7    1.39    0.33
  -4  -2   7    1.53    0.33
  -4  -2   7    1.18    0.41
  -4  -2   7    1.09    0.35
  -4  -2   7    0.90    0.33
   3   2  -7    1.56    0.33
   3   2  -7    0.66    0.10
   3   2  -7    1.05    0.17
  -3  -2   7    1.03    0.31
  -3  -2   7    1.31    0.34
  -3  -2   7    0.95    0.16
  -3  -2   7    1.16    0.29
  -3  -2   7    1.32    0.34
   2   2  -7    0.19    0.11
   2   2  -7    0.21    0.18
   2   2  -7    0.01    0.08
  -2  -2   7    0.23    0.23
  -2  -2   7    0.21    0.11
  -2  -2   7   -0.04    0.21
  -2  -2   7    0.21    0.21
  -2  -2   7    0.26    0.27
   1   2  -7   48.34    1.44
   1   2  -7   46.72    1.53
   1   2  -7   48.49    1.30
  -1  -2   7   48.25    1.45
  -1  -2   7   48.46    1.74
  -1  -2   7   47.01    1.47
  -1  -2   7   47.88    1.52
   0   2  -7    0.93    0.22
   0   2  -7    1.41    0.26
   0   2  -7    1.08    0.18
   0  -2   7    0.91    0.25
   0  -2   7    1.49    0.20
   0  -2   7    1.42    0.30
  -1   2  -7   27.00    1.04
  -1   2  -7   28.06    0.96
  -1   2  -7   27.95    0.93
   1  -2   7   28.15    1.01
  -2   2  -7   39.57    1.25
  -2   2  -7   39.64    1.22
  -2   2  -7   39.21    1.36
   2  -2   7   40.77    1.31
   2  -2   7   37.80    1.19
  -3   2  -7    6.71    0.55
  -3   2  -7    7.34    0.51
  -3   2  -7    8.40    0.64
   3  -2   7    6.85    0.61
   3  -2   7    7.37    0.45
   3  -2   7    6.61    0.55
  -4   2  -7    7.56    0.61
  -4   2  -7    7.83    0.70
  -4   2  -7    8.39    0.51
   4  -2   7    7.37    0.62
   4  -2   7    8.60    0.62
  -5   2  -7    1.30    0.36
   5  -2   7    1.81    0.35
   5  -2   7    1.38    0.37
  -6   2  -7    0.09    0.34
   6  -2   7   -0.08    0.23
   6  -2   7   -0.06    0.26
  -7   2  -7   -0.01    0.35
   7  -2   7   -0.14    0.34
  -8   2  -7    0.31    0.42
   8  -2   7   -0.11    0.38
   9   1  -7    0.24    0.47
   9   1  -7    0.80    0.43
   8   1  -7    1.13    0.48
   8   1  -7    2.40    0.51
  -8  -1   7    3.16    0.80
  -8  -1   7    2.86    0.57
   7   1  -7    1.40    0.44
  -7  -1   7    1.70    0.54
  -7  -1   7    0.85    0.42
  -7  -1   7    1.38    0.47
   6   1  -7   -0.16    0.38
  -6  -1   7   -0.05    0.32
  -6  -1   7   -0.03    0.34
  -6  -1   7   -0.08    0.29
  -6  -1   7   -0.33    0.47
   5   1  -7   -0.47    0.28
  -5  -1   7   -0.05    0.29
  -5  -1   7   -0.29    0.33
  -5  -1   7    0.14    0.30
  -5  -1   7   -0.34    0.37
   4   1  -7    1.86    0.36
  -4  -1   7    1.44    0.40
  -4  -1   7    1.38    0.34
  -4  -1   7    1.38    0.34
  -4  -1   7    1.49    0.36
   3   1  -7   21.55    0.71
   3   1  -7   23.25    0.79
   3   1  -7   23.40    0.93
  -3  -1   7   23.24    0.96
  -3  -1   7   23.42    1.05
  -3  -1   7   24.04    0.95
  -3  -1   7   23.17    1.13
   2   1  -7    0.21    0.14
   2   1  -7    0.19    0.08
   2   1  -7    0.40    0.19
  -2  -1   7    0.33    0.22
  -2  -1   7    0.20    0.22
  -2  -1   7    0.35    0.26
  -2  -1   7    0.36    0.22
   1   1  -7   15.70    0.70
   1   1  -7   15.75    0.60
   1   1  -7   15.73    0.71
  -1  -1   7   15.25    0.74
  -1  -1   7   15.71    0.68
  -1  -1   7   16.18    0.69
  -1  -1   7   16.39    0.86
   0   1  -7    5.59    0.38
   0   1  -7    5.21    0.42
   0   1  -7    5.60    0.43
   0  -1   7    5.90    0.35
   0  -1   7    5.51    0.41
   0  -1   7    5.77    0.55
   0  -1   7    5.13    0.46
  -1   1  -7    0.20    0.15
  -1   1  -7    0.06    0.17
  -1   1  -7    0.02    0.13
   1  -1   7    0.00    0.20
   1  -1   7    0.04    0.16
   1  -1   7    0.06    0.16
  -2   1  -7    0.45    0.20
  -2   1  -7    0.44    0.18
  -2   1  -7    0.42    0.20
   2  -1   7    0.56    0.21
   2  -1   7    0.38    0.24
   2  -1   7    0.34    0.20
  -3   1  -7   27.45    1.08
  -3   1  -7   25.63    0.88
  -3   1  -7   24.77    0.98
   3  -1   7   25.78    0.96
   3  -1   7   23.68    0.89
   3  -1   7   22.89    0.83
  -4   1  -7   16.60    0.90
  -4   1  -7   16.94    0.86
  -4   1  -7   16.09    0.66
   4  -1   7   15.12    0.74
   4  -1   7   17.48    0.76
  -5   1  -7   18.89    1.01
  -5   1  -7   19.73    0.97
   5  -1   7   15.32    0.81
   5  -1   7   19.66    0.80
  -6   1  -7    0.22    0.34
  -6   1  -7    0.23    0.28
   6  -1   7    0.27    0.32
   6  -1   7   -0.01    0.22
  -7   1  -7   -0.05    0.30
  -7   1  -7   -0.03    0.32
   7  -1   7    0.34    0.35
  -8   1  -7   -0.02    0.35
  -8   1  -7    0.16    0.40
   8  -1   7    0.01    0.37
   9   0  -7    0.59    0.49
   9   0  -7    1.01    0.46
  -9   0   7    1.19    0.74
  -9   0   7    0.53    0.49
   8   0  -7   -0.22    0.40
   8   0  -7   -0.13    0.38
  -8   0   7   -0.32    0.44
  -8   0   7   -0.55    0.40
  -8   0   7    0.12    0.60
   7   0  -7    0.11    0.42
  -7   0   7    0.14    0.56
  -7   0   7   -0.11    0.39
  -7   0   7   -0.34    0.33
   6   0  -7    6.83    0.75
  -6   0   7    5.47    0.60
  -6   0   7    5.56    0.86
  -6   0   7    6.72    0.80
   5   0  -7    2.03    0.41
  -5   0   7    2.04    0.40
  -5   0   7    1.63    0.49
  -5   0   7    1.54    0.36
   4   0  -7    0.65    0.20
   4   0  -7    0.86    0.32
  -4   0   7    1.00    0.30
  -4   0   7    0.76    0.33
  -4   0   7    1.11    0.38
   3   0  -7   13.32    0.48
   3   0  -7   15.47    0.75
   3   0  -7   14.93    0.63
  -3   0   7   15.69    0.85
  -3   0   7   14.65    0.76
  -3   0   7   15.01    0.87
   2   0  -7    3.15    0.32
   2   0  -7    2.52    0.35
  -2   0   7    2.80    0.39
  -2   0   7    2.59    0.37
  -2   0   7    2.85    0.18
  -2   0   7    3.02    0.42
  -2   0   7    3.34    0.50
   1   0  -7    1.16    0.22
   1   0  -7    0.91    0.23
   1   0  -7    0.98    0.20
   1   0  -7    0.94    0.19
  -1   0   7    0.83    0.22
  -1   0   7    0.40    0.26
  -1   0   7    0.77    0.24
  -1   0   7    0.97    0.15
  -1   0   7    0.90    0.22
   0   0  -7    0.78    0.17
   0   0  -7    0.51    0.17
   0   0  -7    0.51    0.16
   0   0  -7    0.79    0.20
   0   0   7    0.77    0.17
   0   0   7    0.39    0.24
   0   0   7    0.57    0.20
   0   0   7    0.83    0.19
  -1   0  -7    0.12    0.16
  -1   0  -7    0.36    0.12
  -1   0  -7    0.21    0.19
  -1   0  -7    0.22    0.14
   1   0   7    0.33    0.17
   1   0   7    0.22    0.22
   1   0   7    0.24    0.17
   1   0   7    0.20    0.16
  -2   0  -7   10.99    0.61
  -2   0  -7   10.07    0.44
  -2   0  -7   10.59    0.59
  -2   0  -7   11.51    0.56
   2   0   7   10.63    0.50
   2   0   7   10.74    0.55
   2   0   7   11.71    0.58
  -3   0  -7   47.90    1.54
  -3   0  -7   46.77    1.31
  -3   0  -7   42.56    1.34
  -3   0  -7   46.93    1.47
   3   0   7   47.77    1.38
   3   0   7   44.41    1.29
   3   0   7   42.77    1.33
  -4   0  -7    0.27    0.24
  -4   0  -7    0.09    0.25
   4   0   7   -0.30    0.25
   4   0   7   -0.01    0.27
  -5   0  -7    8.08    0.69
  -5   0  -7    9.30    0.77
   5   0   7    7.22    0.57
   5   0   7    7.63    0.51
  -6   0  -7   -0.04    0.27
  -6   0  -7   -0.02    0.27
   6   0   7    0.28    0.18
   6   0   7    0.50    0.34
  -7   0  -7   -0.27    0.33
  -7   0  -7    0.17    0.33
   7   0   7    0.13    0.36
  -8   0  -7   -0.03    0.38
  -8   0  -7    0.25    0.37
   8   0   7    0.54    0.42
   9  -1  -7    0.33    0.49
   8  -1  -7    0.04    0.43
   8  -1  -7   -0.30    0.42
  -8   1   7    0.55    0.65
   7  -1  -7    0.10    0.43
   7  -1  -7   -0.02    0.36
  -7   1   7   -0.34    0.36
  -7   1   7    0.44    0.56
   6  -1  -7   -0.25    0.33
  -6   1   7   -0.30    0.27
  -6   1   7    0.05    0.48
  -6   1   7    0.26    0.32
   5  -1  -7    4.01    0.60
  -5   1   7    2.52    0.44
  -5   1   7    2.54    0.49
  -5   1   7    3.54    0.62
   4  -1  -7    0.50    0.24
   4  -1  -7    0.95    0.34
  -4   1   7    1.08    0.38
  -4   1   7    0.78    0.34
  -4   1   7    1.05    0.31
   3  -1  -7    1.87    0.36
   3  -1  -7    1.48    0.26
   3  -1  -7    1.79    0.19
  -3   1   7    1.86    0.33
  -3   1   7    1.14    0.28
  -3   1   7    1.81    0.36
   2  -1  -7    0.25    0.15
   2  -1  -7    0.36    0.21
  -2   1   7    0.12    0.21
  -2   1   7    0.18    0.08
  -2   1   7    0.23    0.21
  -2   1   7    0.03    0.25
   1  -1  -7    6.43    0.42
   1  -1  -7    6.54    0.45
   1  -1  -7    7.23    0.43
  -1   1   7    6.13    0.51
  -1   1   7    7.39    0.50
  -1   1   7    6.77    0.31
   0  -1  -7   13.28    0.62
   0  -1  -7   12.89    0.59
   0  -1  -7   12.92    0.58
   0  -1  -7   12.83    0.60
   0   1   7   13.66    0.60
   0   1   7   13.71    0.62
   0   1   7   13.12    0.65
   0   1   7   13.49    0.52
  -1  -1  -7    8.64    0.47
  -1  -1  -7    8.78    0.51
  -1  -1  -7    8.73    0.49
  -1  -1  -7    8.32    0.48
   1   1   7    8.36    0.45
   1   1   7    8.53    0.45
   1   1   7    7.71    0.42
   1   1   7    8.25    0.52
  -2  -1  -7    3.24    0.35
  -2  -1  -7    4.13    0.42
  -2  -1  -7    4.18    0.41
  -2  -1  -7    4.14    0.36
   2   1   7    4.57    0.41
   2   1   7    4.44    0.42
   2   1   7    4.13    0.33
  -3  -1  -7    0.80    0.23
  -3  -1  -7    1.27    0.27
  -3  -1  -7    1.10    0.22
   3   1   7    0.73    0.28
   3   1   7    1.04    0.22
   3   1   7    0.65    0.28
  -4  -1  -7    7.67    0.63
  -4  -1  -7    8.63    0.63
   4   1   7    7.60    0.62
   4   1   7    8.38    0.51
  -5  -1  -7   -0.07    0.23
  -5  -1  -7    0.10    0.27
   5   1   7   -0.08    0.19
   5   1   7   -0.16    0.29
  -6  -1  -7    0.04    0.27
  -6  -1  -7    0.13    0.28
   6   1   7    0.00    0.31
  -7  -1  -7    0.05    0.32
  -7  -1  -7   -0.18    0.31
   7   1   7   -0.05    0.33
  -8  -1  -7    0.00    0.35
  -8  -1  -7    0.35    0.38
   8   1   7    0.20    0.39
   9  -2  -7    0.15    0.45
   8  -2  -7    0.76    0.42
  -8   2   7    0.44    0.67
   7  -2  -7    3.13    0.52
   7  -2  -7    3.99    0.63
  -7   2   7    3.97    0.77
   6  -2  -7    0.78    0.40
  -6   2   7   -0.02    0.49
  -6   2   7    0.66    0.37
  -6   2   7    0.07    0.30
   5  -2  -7    3.81    0.52
  -5   2   7    3.24    0.49
  -5   2   7    2.91    0.58
  -5   2   7    2.48    0.40
   4  -2  -7   11.49    0.74
   4  -2  -7    9.36    0.62
   4  -2  -7    9.23    0.32
  -4   2   7   10.96    0.74
  -4   2   7   10.37    0.74
  -4   2   7   10.46    0.73
   3  -2  -7    0.09    0.18
   3  -2  -7    0.13    0.07
   3  -2  -7    0.12    0.27
  -3   2   7   -0.06    0.22
  -3   2   7    0.02    0.29
   2  -2  -7    8.53    0.59
   2  -2  -7    8.47    0.52
   2  -2  -7    7.97    0.45
  -2   2   7    8.39    0.63
  -2   2   7    7.77    0.60
   1  -2  -7   11.36    0.57
   1  -2  -7   11.55    0.63
  -1   2   7   11.71    0.43
  -1   2   7   11.40    0.65
  -1   2   7   11.37    0.65
   0  -2  -7   13.19    0.64
   0  -2  -7   13.12    0.57
   0  -2  -7   13.31    0.63
   0   2   7   12.77    0.61
   0   2   7   14.69    0.70
   0   2   7   13.78    0.52
   0   2   7   14.33    0.68
  -1  -2  -7   14.31    0.61
  -1  -2  -7   14.82    0.65
  -1  -2  -7   15.19    0.70
   1   2   7   15.29    0.62
   1   2   7   14.27    0.60
   1   2   7   14.67    0.68
   1   2   7   14.23    0.61
  -2  -2  -7    3.49    0.37
  -2  -2  -7    4.01    0.36
  -2  -2  -7    4.30    0.42
   2   2   7    3.56    0.40
   2   2   7    3.32    0.40
   2   2   7    3.77    0.36
   2   2   7    4.31    0.31
  -3  -2  -7    0.68    0.23
  -3  -2  -7    0.32    0.19
  -3  -2  -7    0.46    0.18
   3   2   7    0.45    0.20
   3   2   7    0.15    0.24
   3   2   7   -0.01    0.26
  -4  -2  -7   -0.32    0.17
  -4  -2  -7   -0.14    0.21
   4   2   7   -0.33    0.19
  -5  -2  -7   -0.13    0.26
  -5  -2  -7    0.26    0.22
   5   2   7    0.26    0.17
   5   2   7    0.38    0.33
  -6  -2  -7   -0.07    0.26
  -6  -2  -7    0.13    0.25
   6   2   7    0.22    0.33
  -7  -2  -7    0.60    0.30
  -7  -2  -7    0.39    0.34
   7   2   7    0.13    0.28
   8   2   7    0.28    0.42
   9  -3  -7    0.66    0.49
   9  -3  -7    0.43    0.54
   8  -3  -7    0.46    0.45
  -8   3   7   -0.58    0.63
   7  -3  -7   -0.24    0.32
   7  -3  -7    0.15    0.44
  -7   3   7   -0.54    0.57
   6  -3  -7    0.91    0.43
  -6   3   7    0.57    0.41
  -6   3   7    0.30    0.54
   5  -3  -7    0.73    0.40
  -5   3   7    0.29    0.37
  -5   3   7    0.20    0.46
   4  -3  -7    0.27    0.27
   4  -3  -7    0.21    0.08
   4  -3  -7    0.01    0.25
  -4   3   7    0.06    0.40
  -4   3   7    0.24    0.37
   3  -3  -7    9.83    0.69
   3  -3  -7    8.52    0.47
   3  -3  -7    8.79    0.59
  -3   3   7    9.72    0.78
  -3   3   7    9.00    0.69
   2  -3  -7   -0.03    0.20
   2  -3  -7   -0.32    0.16
   2  -3  -7    0.08    0.10
  -2   3   7   -0.23    0.28
  -2   3   7    0.22    0.29
   1  -3  -7    3.78    0.46
   1  -3  -7    3.06    0.41
   1  -3  -7    3.25    0.38
  -1   3   7    3.00    0.29
  -1   3   7    3.59    0.48
  -1   3   7    2.83    0.39
   0  -3  -7    4.76    0.47
   0  -3  -7    3.89    0.44
   0  -3  -7    4.55    0.42
   0   3   7    5.07    0.50
   0   3   7    4.83    0.32
   0   3   7    4.81    0.34
  -1  -3  -7    1.23    0.24
  -1  -3  -7    0.97    0.26
  -1  -3  -7    1.16    0.16
   1   3   7    1.23    0.26
   1   3   7    1.02    0.23
   1   3   7    1.70    0.22
   1   3   7    1.15    0.30
  -2  -3  -7   -0.07    0.17
  -2  -3  -7   -0.31    0.18
  -2  -3  -7    0.04    0.12
   2   3   7    0.21    0.14
   2   3   7   -0.36    0.20
   2   3   7   -0.33    0.16
  -3  -3  -7   -0.21    0.14
  -3  -3  -7    0.16    0.21
   3   3   7   -0.53    0.22
   3   3   7   -0.21    0.25
  -4  -3  -7    0.03    0.22
  -4  -3  -7   -0.31    0.15
   4   3   7   -0.61    0.26
   4   3   7   -0.29    0.20
  -5  -3  -7    4.83    0.64
  -5  -3  -7    4.39    0.50
   5   3   7    3.87    0.48
   5   3   7    4.35    0.33
  -6  -3  -7    0.25    0.23
  -6  -3  -7   -0.16    0.26
   6   3   7    0.13    0.35
  -7  -3  -7    0.71    0.36
  -7  -3  -7    0.09    0.30
   7   3   7    0.82    0.43
   9  -4  -7    0.94    0.50
   8  -4  -7   -0.17    0.40
   8  -4  -7   -0.30    0.48
  -8   4   7   -1.38    0.71
   7  -4  -7   -0.05    0.33
  -7   4   7   -0.32    0.50
   6  -4  -7   -0.17    0.26
  -6   4   7   -0.53    0.54
  -6   4   7   -0.45    0.36
   5  -4  -7    1.84    0.45
  -5   4   7    1.15    0.56
  -5   4   7    1.00    0.43
   4  -4  -7   12.46    0.83
   4  -4  -7   10.65    0.71
   4  -4  -7    9.32    0.53
  -4   4   7   11.48    0.83
  -4   4   7   10.66    0.93
   3  -4  -7    1.55    0.31
   3  -4  -7    1.69    0.41
  -3   4   7    1.56    0.43
  -3   4   7    2.04    0.48
   2  -4  -7    2.80    0.40
   2  -4  -7    2.79    0.41
   2  -4  -7    2.34    0.33
  -2   4   7    2.26    0.43
  -2   4   7    2.59    0.46
   1  -4  -7    0.42    0.16
   1  -4  -7    0.68    0.22
   1  -4  -7    0.45    0.25
  -1   4   7    0.50    0.12
  -1   4   7    0.19    0.32
  -1   4   7    0.90    0.32
   0  -4  -7   -0.15    0.17
   0  -4  -7   -0.04    0.14
   0   4   7    0.05    0.08
  -1  -4  -7   -0.20    0.17
   1   4   7   -0.45    0.17
  -2  -4  -7    2.55    0.34
  -2  -4  -7    1.95    0.26
  -2  -4  -7    1.21    0.29
   2   4   7    1.60    0.37
   2   4   7    2.35    0.33
  -3  -4  -7    0.05    0.13
  -3  -4  -7    0.06    0.22
  -3  -4  -7   -0.01    0.22
   3   4   7   -0.03    0.26
   3   4   7    0.07    0.26
  -4  -4  -7    0.27    0.17
  -4  -4  -7    0.21    0.25
  -4  -4  -7    0.26    0.26
   4   4   7    0.65    0.25
   4   4   7    0.71    0.29
  -5  -4  -7    0.48    0.30
  -5  -4  -7    0.32    0.28
   5   4   7    0.49    0.18
   5   4   7    0.43    0.27
  -6  -4  -7    0.13    0.29
  -6  -4  -7    0.01    0.29
   6   4   7    0.17    0.36
  -7  -4  -7   -0.10    0.32
  -7  -4  -7    0.10    0.29
   7   4   7    0.22    0.41
   8  -5  -7   -0.56    0.50
   7  -5  -7   -0.22    0.50
  -7   5   7   -0.53    0.70
   6  -5  -7   -0.34    0.42
  -6   5   7   -1.10    0.59
  -6   5   7   -0.18    0.41
  -5   5   7   -0.01    0.54
  -5   5   7    0.65    0.42
   4  -5  -7    2.46    0.39
   4  -5  -7    2.58    0.39
  -4   5   7    2.89    0.53
  -4   5   7    2.65    0.61
   3  -5  -7    8.65    0.60
   3  -5  -7    8.65    0.68
   3  -5  -7    9.42    0.67
  -3   5   7    8.95    0.68
  -3   5   7    8.89    0.85
   2  -5  -7   -0.01    0.21
   2  -5  -7   -0.01    0.13
  -2   5   7   -0.09    0.11
  -2   5   7   -0.38    0.33
  -2   5   7   -0.33    0.34
   1  -5  -7   -0.07    0.35
   1  -5  -7    0.91    0.25
   1  -5  -7    0.60    0.19
  -1   5   7    0.42    0.36
  -1   5   7    1.28    0.39
  -1   5   7    0.68    0.12
   0  -5  -7    6.19    0.65
   0  -5  -7    6.78    0.54
   0   5   7    4.42    0.62
  -1  -5  -7    1.82    0.32
   1   5   7    2.94    0.44
  -2  -5  -7    0.00    0.23
  -2  -5  -7   -0.01    0.22
   2   5   7   -0.12    0.26
   2   5   7    0.19    0.25
  -3  -5  -7    0.27    0.25
  -3  -5  -7    0.01    0.23
   3   5   7    0.04    0.29
   3   5   7    0.29    0.31
  -4  -5  -7   -0.19    0.23
  -4  -5  -7   -0.08    0.25
   4   5   7   -0.40    0.21
   4   5   7    0.01    0.30
  -5  -5  -7   -0.15    0.26
  -5  -5  -7    0.05    0.29
   5   5   7    0.22    0.33
  -6  -5  -7    0.14    0.30
  -6  -5  -7    0.59    0.32
   6   5   7    0.77    0.42
  -7  -5  -7    0.53    0.32
   7   5   7    0.16    0.33
   7  -6  -7    0.15    0.57
   6  -6  -7    0.74    0.52
  -6   6   7    0.44    0.46
  -6   6   7   -1.17    0.64
   5  -6  -7   -0.13    0.44
  -5   6   7   -0.67    0.57
  -5   6   7    0.14    0.43
   4  -6  -7    0.30    0.16
   4  -6  -7    0.48    0.44
  -4   6   7    0.71    0.46
  -4   6   7    0.06    0.53
   3  -6  -7   -0.54    0.35
   3  -6  -7    0.14    0.15
   3  -6  -7    0.14    0.26
  -3   6   7    0.02    0.32
   2  -6  -7    5.82    0.60
   2  -6  -7    5.04    0.71
   2  -6  -7    6.61    0.65
  -2   6   7    5.27    0.72
  -2   6   7    6.14    0.77
   1  -6  -7    1.90    0.32
   1  -6  -7    3.15    0.51
   1  -6  -7    3.72    0.53
  -1   6   7    3.09    0.53
   0  -6  -7   -0.02    0.26
   0  -6  -7   -0.24    0.19
   0  -6  -7   -0.63    0.28
   0   6   7   -0.68    0.33
  -1  -6  -7    1.99    0.34
  -1  -6  -7    2.31    0.39
  -1  -6  -7    1.61    0.33
   1   6   7    2.00    0.42
  -2  -6  -7    5.18    0.85
  -2  -6  -7    5.05    0.60
   2   6   7    4.90    0.62
  -3  -6  -7    0.18    0.26
  -3  -6  -7   -0.18    0.24
   3   6   7   -0.16    0.28
  -4  -6  -7    0.02    0.29
  -4  -6  -7    0.61    0.28
   4   6   7    0.73    0.27
  -5  -6  -7   -0.10    0.32
  -5  -6  -7    0.12    0.29
  -6  -6  -7    0.23    0.31
  -6  -6  -7    0.29    0.35
   7  -7  -7   -0.26    0.55
   6  -7  -7    0.16    0.51
  -6   7   7    0.38    0.50
  -6   7   7   -1.25    0.68
   5  -7  -7    0.66    0.50
  -5   7   7   -0.94    0.55
  -5   7   7   -0.06    0.47
   4  -7  -7    4.00    0.62
   4  -7  -7    6.21    0.85
  -4   7   7    4.24    0.76
   3  -7  -7    0.23    0.31
   3  -7  -7    0.40    0.44
   3  -7  -7    0.15    0.19
  -3   7   7    0.08    0.35
  -3   7   7    0.46    0.52
   2  -7  -7    0.47    0.42
   2  -7  -7    0.10    0.20
   2  -7  -7   -0.12    0.26
  -2   7   7    0.43    0.46
   1  -7  -7   10.03    0.81
   1  -7  -7    9.36    0.84
   1  -7  -7    9.11    0.73
  -1   7   7   10.38    0.84
   0  -7  -7   -0.08    0.25
   0  -7  -7    0.15    0.35
   0  -7  -7   -0.21    0.22
   0   7   7    0.20    0.38
  -1  -7  -7    9.15    0.92
  -1  -7  -7    9.13    0.69
   1   7   7    9.89    0.75
  -2  -7  -7    8.68    0.71
  -2  -7  -7    8.92    0.95
   2   7   7    9.00    0.74
  -3  -7  -7    0.36    0.27
  -3  -7  -7    0.24    0.32
   3   7   7    0.52    0.32
  -4  -7  -7    0.35    0.28
  -4  -7  -7    0.11    0.34
   4   7   7    0.05    0.28
  -5  -7  -7   -0.27    0.27
  -5  -7  -7   -0.51    0.30
   6  -8  -7    0.26    0.55
  -6   8   7    0.71    0.52
  -6   8   7   -0.11    0.72
   5  -8  -7    1.12    0.56
  -5   8   7    0.47    0.50
  -5   8   7    0.21    0.66
   4  -8  -7   13.62    0.99
   4  -8  -7   16.05    1.13
  -4   8   7   15.20    1.08
  -4   8   7   14.14    1.21
   3  -8  -7    0.40    0.23
   3  -8  -7    0.85    0.39
   3  -8  -7    1.01    0.36
  -3   8   7    1.14    0.51
   2  -8  -7    0.70    0.33
   2  -8  -7    1.18    0.45
   2  -8  -7    0.71    0.26
  -2   8   7    1.25    0.50
   1  -8  -7    0.40    0.37
   1  -8  -7    0.02    0.24
   1  -8  -7   -0.12    0.26
  -1   8   7    0.50    0.41
   0  -8  -7    0.38    0.34
   0  -8  -7   -0.15    0.29
   0  -8  -7    0.42    0.30
   0   8   7    0.72    0.45
  -1  -8  -7    0.09    0.27
  -1  -8  -7    0.03    0.28
   1   8   7    0.32    0.39
  -2  -8  -7    1.59    0.40
  -2  -8  -7    1.94    0.38
   2   8   7    2.49    0.45
  -3  -8  -7    0.13    0.33
  -3  -8  -7    0.25    0.29
   3   8   7    0.47    0.34
  -4  -8  -7    0.77    0.34
  -4  -8  -7    0.51    0.38
   4   8   7    0.74    0.30
  -6   9   7    1.05    0.58
   5  -9  -7    0.28    0.51
  -5   9   7    0.10    0.49
  -5   9   7    1.07    0.67
   4  -9  -7    1.09    0.53
  -4   9   7    0.41    0.52
   3  -9  -7    3.20    0.62
  -3   9   7    3.30    0.62
   2  -9  -7    1.23    0.46
   2  -9  -7    0.90    0.31
   2  -9  -7    0.73    0.35
  -2   9   7    1.50    0.53
   1  -9  -7    0.23    0.39
   1  -9  -7    0.21    0.32
   1  -9  -7    0.04    0.27
  -1   9   7    0.61    0.45
   0  -9  -7    0.91    0.34
   0  -9  -7    0.86    0.35
   0   9   7    1.48    0.48
  -1  -9  -7    0.97    0.36
  -1  -9  -7    0.70    0.36
   1   9   7    1.22    0.44
  -2  -9  -7   -0.17    0.28
  -2  -9  -7    0.28    0.35
   2   9   7    0.05    0.35
   3   9   7    0.60    0.39
   4 -10  -7    0.29    0.51
  -4  10   7    0.43    0.54
   3 -10  -7   -0.25    0.26
   3 -10  -7   -0.37    0.39
  -3  10   7    0.24    0.50
   2 -10  -7   -0.44    0.39
   2 -10  -7   -0.25    0.27
  -2  10   7    0.15    0.48
   1 -10  -7    0.15    0.30
   1 -10  -7   -0.39    0.31
  -1  10   7   -0.37    0.44
   0 -10  -7   -0.29    0.30
   0 -10  -7    0.00    0.31
   0  10   7    0.22    0.45
  -1 -10  -7   -0.18    0.35
  -1 -10  -7   -0.28    0.29
   1  10   7   -0.53    0.44
  -2 -10   8   -0.25    0.47
   1  10  -8    0.40    0.29
   1  10  -8    0.29    0.48
  -1 -10   8   -0.31    0.38
  -1 -10   8    0.73    0.54
   0  10  -8    1.45    0.55
   0  10  -8    0.58    0.32
   0 -10   8   -0.29    0.41
   0 -10   8    1.25    0.51
  -1  10  -8    1.61    0.55
   1 -10   8    1.92    0.64
  -2  10  -8   -0.21    0.39
  -2  10  -8    0.13    0.48
   2 -10   8    0.47    0.58
  -3  10  -8    0.19    0.47
  -3  10  -8   -0.67    0.40
  -4  -9   8   -0.21    0.44
   3   9  -8    0.14    0.47
  -3  -9   8   -0.12    0.42
   2   9  -8    2.97    0.60
  -2  -9   8    2.78    0.62
  -2  -9   8    1.50    0.53
   1   9  -8    0.11    0.26
   1   9  -8    0.12    0.43
  -1  -9   8    0.91    0.51
  -1  -9   8    0.16    0.38
   0   9  -8    0.14    0.32
   0   9  -8    0.27    0.42
   0  -9   8   -0.11    0.45
  -1   9  -8    0.10    0.42
   1  -9   8   -0.22    0.48
  -2   9  -8    0.33    0.37
  -2   9  -8    1.00    0.47
   2  -9   8    1.04    0.57
  -3   9  -8   -0.55    0.38
  -3   9  -8    0.18    0.42
   3  -9   8    0.59    0.53
  -4   9  -8    0.11    0.44
   5   8  -8   -0.43    0.44
  -5  -8   8   -0.31    0.42
  -5  -8   8    0.67    0.48
   4   8  -8    0.29    0.46
  -4  -8   8    0.54    0.46
   3   8  -8    1.63    0.52
  -3  -8   8    1.35    0.51
  -3  -8   8    0.81    0.44
   2   8  -8    1.27    0.48
  -2  -8   8    1.06    0.43
  -2  -8   8    1.53    0.51
   1   8  -8   -0.28    0.36
   1   8  -8   -0.16    0.24
  -1  -8   8    0.21    0.43
  -1  -8   8   -0.30    0.34
   0   8  -8    2.56    0.52
   0   8  -8    1.24    0.36
   0  -8   8    2.04    0.57
   0  -8   8    1.25    0.40
  -1   8  -8    1.77    0.49
  -1   8  -8    0.55    0.36
   1  -8   8    0.58    0.38
   1  -8   8    1.15    0.52
  -2   8  -8   -0.23    0.31
  -2   8  -8    0.55    0.40
   2  -8   8   -0.36    0.27
   2  -8   8    0.03    0.46
  -3   8  -8    3.04    0.54
   3  -8   8    2.81    0.63
  -4   8  -8   -0.41    0.38
   4  -8   8    0.55    0.53
  -5   8  -8   -0.45    0.40
   5  -8   8    0.43    0.54
   6   7  -8    0.46    0.53
  -6  -7   8    0.16    0.51
  -6  -7   8    1.14    0.62
   5   7  -8    0.41    0.46
  -5  -7   8    1.40    0.55
  -5  -7   8    0.63    0.48
   4   7  -8   10.19    0.95
  -4  -7   8    9.66    1.02
  -4  -7   8    8.41    1.08
   3   7  -8    4.06    0.61
  -3  -7   8    3.42    0.59
  -3  -7   8    2.57    0.54
   2   7  -8    0.68    0.28
   2   7  -8    0.58    0.41
  -2  -7   8    1.57    0.43
  -2  -7   8    0.69    0.39
   1   7  -8    0.60    0.40
   1   7  -8    0.44    0.27
  -1  -7   8    0.30    0.34
  -1  -7   8    0.79    0.38
   0   7  -8   -0.03    0.36
   0   7  -8   -0.18    0.25
   0  -7   8   -0.51    0.38
   0  -7   8   -0.22    0.29
  -1   7  -8    2.17    0.46
  -1   7  -8    1.35    0.21
  -1   7  -8    1.12    0.35
   1  -7   8    0.95    0.37
   1  -7   8    2.33    0.54
  -2   7  -8   -0.52    0.29
  -2   7  -8   -0.09    0.16
  -2   7  -8    0.07    0.32
   2  -7   8   -0.07    0.41
  -3   7  -8   -0.48    0.32
  -3   7  -8    0.23    0.33
   3  -7   8    0.31    0.43
  -4   7  -8   -0.61    0.34
   4  -7   8    0.37    0.44
  -5   7  -8   -0.68    0.39
   5  -7   8   -0.33    0.42
   6  -7   8   -0.05    0.46
   7   6  -8    0.06    0.47
  -7  -6   8    0.98    0.67
   6   6  -8    0.12    0.42
  -6  -6   8    0.67    0.59
  -6  -6   8    0.43    0.46
   5   6  -8    7.22    0.78
  -5  -6   8    6.01    1.01
  -5  -6   8    6.80    0.94
   4   6  -8    2.17    0.51
  -4  -6   8    1.28    0.45
  -4  -6   8    1.26    0.48
  -4  -6   8    0.50    0.41
   3   6  -8    2.29    0.48
  -3  -6   8    1.44    0.42
  -3  -6   8    0.86    0.41
  -3  -6   8    1.99    0.48
   2   6  -8    7.63    0.74
   2   6  -8    6.61    0.66
  -2  -6   8    6.39    0.89
  -2  -6   8    7.65    0.78
  -2  -6   8    8.04    0.70
   1   6  -8   -0.06    0.23
   1   6  -8   -0.04    0.09
   1   6  -8    0.11    0.28
  -1  -6   8    0.29    0.39
  -1  -6   8   -0.18    0.29
   0   6  -8    7.23    0.42
   0   6  -8    7.23    0.70
   0   6  -8    7.41    0.70
   0  -6   8    8.05    0.79
   0  -6   8    6.37    0.78
  -1   6  -8   -0.33    0.25
  -1   6  -8    0.14    0.15
  -1   6  -8   -0.11    0.31
   1  -6   8   -0.02    0.38
   1  -6   8   -0.40    0.24
  -2   6  -8    1.23    0.38
  -2   6  -8    0.51    0.33
  -2   6  -8    0.80    0.21
   2  -6   8    1.51    0.48
   2  -6   8    0.44    0.30
  -3   6  -8   -0.18    0.32
  -3   6  -8    0.41    0.33
   3  -6   8    0.66    0.43
  -4   6  -8    0.16    0.37
   4  -6   8    0.88    0.46
  -5   6  -8   -0.72    0.34
   5  -6   8   -0.11    0.44
  -6   6  -8   -0.18    0.41
   6  -6   8    0.18    0.46
   7  -6   8    0.61    0.52
   7  -6   8    0.03    0.31
   8   5  -8   -0.07    0.49
   7   5  -8    0.02    0.46
  -7  -5   8   -0.08    0.47
  -7  -5   8    0.84    0.67
   6   5  -8    2.36    0.54
  -6  -5   8    0.91    0.49
  -6  -5   8    1.90    0.64
   5   5  -8    2.01    0.52
  -5  -5   8    2.70    0.62
  -5  -5   8    1.38    0.47
   4   5  -8    7.47    0.73
  -4  -5   8    6.17    0.79
  -4  -5   8    5.66    0.91
  -4  -5   8    5.65    0.70
   3   5  -8    7.59    0.72
  -3  -5   8    7.46    0.72
  -3  -5   8    6.31    0.89
  -3  -5   8    7.39    0.76
   2   5  -8    0.00    0.09
   2   5  -8   -0.05    0.31
   2   5  -8   -0.17    0.23
  -2  -5   8    0.24    0.28
  -2  -5   8    0.19    0.28
  -2  -5   8   -0.02    0.31
   1   5  -8   15.17    0.85
   1   5  -8   13.11    0.52
   1   5  -8   14.23    0.85
  -1  -5   8   14.86    0.90
  -1  -5   8   14.08    0.75
  -1  -5   8   14.12    1.02
   0   5  -8   24.31    0.85
   0   5  -8   27.06    1.11
   0   5  -8   25.74    1.15
   0  -5   8   27.56    1.19
   0  -5   8   25.24    1.28
   0  -5   8   25.14    0.94
  -1   5  -8    5.89    0.63
  -1   5  -8    7.05    0.47
  -1   5  -8    7.14    0.67
   1  -5   8    5.90    0.61
   1  -5   8    6.50    0.76
  -2   5  -8   -0.03    0.16
  -2   5  -8   -0.28    0.26
  -2   5  -8   -0.29    0.26
   2  -5   8   -0.44    0.24
   2  -5   8   -0.65    0.32
  -3   5  -8    0.66    0.24
  -3   5  -8    0.99    0.34
  -3   5  -8    0.09    0.32
   3  -5   8    0.60    0.39
  -4   5  -8   -0.01    0.33
   4  -5   8    0.74    0.45
  -5   5  -8    0.41    0.38
   5  -5   8    1.40    0.45
  -6   5  -8    0.32    0.44
   6  -5   8    0.75    0.44
   6  -5   8    1.00    0.42
   7  -5   8    0.14    0.42
   7  -5   8    0.10    0.39
   8   4  -8   -0.08    0.43
   8   4  -8   -0.40    0.42
  -8  -4   8   -0.31    0.55
   7   4  -8    2.50    0.58
  -7  -4   8    2.85    0.75
  -7  -4   8    2.11    0.60
   6   4  -8    2.91    0.56
  -6  -4   8    2.84    0.72
  -6  -4   8    2.02    0.54
   5   4  -8    0.52    0.39
  -5  -4   8    0.12    0.35
  -5  -4   8   -0.08    0.35
  -5  -4   8    0.51    0.47
   4   4  -8    5.32    0.66
  -4  -4   8    4.62    0.83
  -4  -4   8    4.55    0.65
  -4  -4   8    4.19    0.70
   3   4  -8    3.48    0.28
   3   4  -8    3.79    0.51
  -3  -4   8    4.14    0.59
  -3  -4   8    4.00    0.56
  -3  -4   8    2.31    0.47
   2   4  -8   -0.14    0.28
   2   4  -8   -0.18    0.18
   2   4  -8   -0.08    0.10
  -2  -4   8   -0.27    0.23
  -2  -4   8    0.00    0.29
  -2  -4   8   -0.15    0.32
   1   4  -8    4.99    0.33
   1   4  -8    5.42    0.55
   1   4  -8    4.71    0.48
  -1  -4   8    4.42    0.51
  -1  -4   8    4.79    0.44
  -1  -4   8    4.77    0.69
   0   4  -8    0.90    0.27
   0   4  -8    0.84    0.18
   0   4  -8    0.44    0.32
   0  -4   8    0.37    0.29
   0  -4   8    0.32    0.36
   0  -4   8    0.82    0.18
  -1   4  -8    0.38    0.32
  -1   4  -8    0.68    0.27
  -1   4  -8    1.15    0.22
   1  -4   8    0.33    0.36
   1  -4   8    0.53    0.28
  -2   4  -8    2.25    0.38
  -2   4  -8    1.75    0.35
  -2   4  -8    1.79    0.28
   2  -4   8    2.10    0.46
  -3   4  -8   -0.17    0.22
  -3   4  -8    0.05    0.24
  -3   4  -8   -0.03    0.26
   3  -4   8    0.27    0.38
  -4   4  -8    4.09    0.52
   4  -4   8    3.63    0.53
  -5   4  -8   -0.58    0.31
   5  -4   8   -0.16    0.36
   5  -4   8    0.21    0.34
  -6   4  -8   -0.26    0.35
   6  -4   8    0.33    0.36
   6  -4   8   -0.19    0.32
  -7   4  -8    0.02    0.40
   7  -4   8    0.52    0.35
   7  -4   8    0.06    0.41
   8   3  -8   -0.02    0.44
   8   3  -8   -0.07    0.43
  -8  -3   8   -0.07    0.46
  -8  -3   8   -0.08    0.51
  -8  -3   8    0.18    0.64
   7   3  -8   -0.09    0.42
  -7  -3   8   -0.08    0.43
  -7  -3   8    0.77    0.60
  -7  -3   8    0.21    0.50
   6   3  -8    0.18    0.47
  -6  -3   8    0.53    0.46
  -6  -3   8    0.20    0.41
  -6  -3   8    0.44    0.52
   5   3  -8    0.60    0.39
  -5  -3   8    0.77    0.43
  -5  -3   8    0.63    0.37
  -5  -3   8    0.73    0.48
  -5  -3   8    0.24    0.38
   4   3  -8   -0.12    0.30
  -4  -3   8    0.04    0.32
  -4  -3   8   -0.24    0.31
  -4  -3   8   -0.43    0.31
  -4  -3   8   -0.12    0.34
   3   3  -8   -0.01    0.08
   3   3  -8    0.06    0.12
   3   3  -8    0.11    0.30
  -3  -3   8    0.06    0.29
  -3  -3   8   -0.01    0.32
  -3  -3   8   -0.04    0.28
  -3  -3   8    0.06    0.28
   2   3  -8    0.42    0.14
   2   3  -8    0.37    0.29
   2   3  -8    0.45    0.22
  -2  -3   8    0.45    0.26
  -2  -3   8    0.18    0.28
  -2  -3   8    0.67    0.35
   1   3  -8    0.52    0.28
   1   3  -8    0.52    0.23
   1   3  -8    0.74    0.16
  -1  -3   8    0.68    0.34
  -1  -3   8    0.54    0.20
  -1  -3   8    0.48    0.25
   0   3  -8    9.02    0.62
   0   3  -8    9.62    0.49
   0   3  -8    9.07    0.64
   0  -3   8    8.65    0.75
   0  -3   8    8.47    0.60
   0  -3   8    9.05    0.43
  -1   3  -8   28.74    1.09
  -1   3  -8   27.61    1.14
  -1   3  -8   28.70    1.00
   1  -3   8   28.72    1.15
   1  -3   8   27.32    1.26
  -2   3  -8   49.27    1.52
  -2   3  -8   48.81    1.68
  -2   3  -8   46.18    1.50
   2  -3   8   48.64    1.61
  -3   3  -8   13.71    0.77
  -3   3  -8   14.21    0.73
  -3   3  -8   14.35    0.88
   3  -3   8   15.16    0.90
  -4   3  -8   -0.01    0.28
  -4   3  -8    0.30    0.26
   4  -3   8   -0.23    0.29
   4  -3   8    0.23    0.31
  -5   3  -8   -0.03    0.27
  -5   3  -8   -0.35    0.31
   5  -3   8    0.25    0.31
   5  -3   8   -0.03    0.23
  -6   3  -8   -0.43    0.34
  -6   3  -8   -0.25    0.27
   6  -3   8   -0.10    0.32
   6  -3   8    0.05    0.33
  -7   3  -8   -0.17    0.33
  -7   3  -8   -0.51    0.37
   7  -3   8   -0.15    0.30
   7  -3   8   -0.12    0.38
   9   2  -8    0.19    0.43
   8   2  -8    0.39    0.48
   8   2  -8    0.58    0.50
  -8  -2   8    0.92    0.51
  -8  -2   8   -0.26    0.53
  -8  -2   8    1.20    0.70
   7   2  -8    0.85    0.51
  -7  -2   8    0.39    0.45
  -7  -2   8    1.52    0.65
  -7  -2   8    1.23    0.52
   6   2  -8    1.23    0.45
  -6  -2   8    0.59    0.47
  -6  -2   8    1.12    0.56
  -6  -2   8    1.25    0.46
   5   2  -8    0.75    0.39
  -5  -2   8    0.10    0.38
  -5  -2   8    0.41    0.45
  -5  -2   8    0.63    0.40
  -5  -2   8    0.82    0.39
   4   2  -8    2.56    0.45
  -4  -2   8    3.04    0.49
  -4  -2   8    1.90    0.47
  -4  -2   8    2.46    0.43
  -4  -2   8    1.82    0.43
   3   2  -8    6.16    0.60
   3   2  -8    6.87    0.41
   3   2  -8    5.89    0.37
  -3  -2   8    6.59    0.77
  -3  -2   8    5.95    0.63
  -3  -2   8    6.59    0.58
  -3  -2   8    5.96    0.60
   2   2  -8    0.61    0.29
   2   2  -8    0.68    0.22
   2   2  -8    0.96    0.18
  -2  -2   8    0.82    0.27
  -2  -2   8    0.96    0.35
  -2  -2   8    0.38    0.29
  -2  -2   8    0.62    0.28
   1   2  -8    0.13    0.13
   1   2  -8   -0.23    0.16
   1   2  -8    0.13    0.19
  -1  -2   8   -0.21    0.26
  -1  -2   8   -0.12    0.24
  -1  -2   8    0.10    0.22
  -1  -2   8   -0.04    0.16
   0   2  -8    1.67    0.28
   0   2  -8    2.04    0.30
   0   2  -8    2.25    0.36
   0  -2   8    2.04    0.27
   0  -2   8    1.42    0.32
   0  -2   8    2.40    0.41
  -1   2  -8   13.50    0.74
  -1   2  -8   12.55    0.67
  -1   2  -8   14.10    0.71
   1  -2   8   13.60    0.78
  -2   2  -8   71.85    2.08
  -2   2  -8   74.66    2.28
  -2   2  -8   75.93    2.08
   2  -2   8   76.53    2.16
  -3   2  -8   15.83    0.84
  -3   2  -8   15.45    0.88
  -3   2  -8   15.19    0.71
   3  -2   8   14.56    0.76
   3  -2   8   15.78    0.82
  -4   2  -8    0.16    0.25
  -4   2  -8   -0.51    0.27
   4  -2   8   -0.06    0.31
   4  -2   8   -0.39    0.27
  -5   2  -8   -0.41    0.29
  -5   2  -8    0.19    0.27
   5  -2   8    0.40    0.33
   5  -2   8    0.40    0.33
  -6   2  -8   -0.11    0.31
  -6   2  -8   -0.47    0.30
   6  -2   8   -0.33    0.27
   6  -2   8   -0.16    0.32
  -7   2  -8    0.09    0.40
  -7   2  -8   -0.22    0.34
   7  -2   8   -0.21    0.34
   8  -2   8   -0.17    0.37
   9   1  -8    1.13    0.50
   9   1  -8    1.04    0.53
   8   1  -8    0.46    0.45
   8   1  -8    0.76    0.48
  -8  -1   8   -0.53    0.49
  -8  -1   8    1.68    0.73
  -8  -1   8    0.46    0.47
   7   1  -8    1.28    0.51
  -7  -1   8    2.17    0.51
  -7  -1   8    0.45    0.50
  -7  -1   8    1.58    0.67
   6   1  -8    0.74    0.42
  -6  -1   8    0.38    0.49
  -6  -1   8    1.30    0.42
  -6  -1   8    0.88    0.45
   5   1  -8    1.09    0.40
  -5  -1   8    1.23    0.40
  -5  -1   8    0.38    0.43
  -5  -1   8    0.95    0.39
  -5  -1   8    0.55    0.40
   4   1  -8    1.28    0.36
   4   1  -8    0.66    0.20
  -4  -1   8    0.49    0.34
  -4  -1   8    0.89    0.34
  -4  -1   8    1.05    0.38
  -4  -1   8    0.79    0.38
   3   1  -8   18.45    0.72
   3   1  -8   16.91    0.64
   3   1  -8   18.65    0.84
  -3  -1   8   19.52    0.94
  -3  -1   8   19.79    0.89
  -3  -1   8   18.89    0.96
  -3  -1   8   18.33    1.07
   2   1  -8    0.79    0.13
   2   1  -8    1.21    0.20
   2   1  -8    1.83    0.35
  -2  -1   8    1.80    0.33
  -2  -1   8    1.22    0.32
  -2  -1   8    1.44    0.31
  -2  -1   8    2.01    0.39
   1   1  -8    6.92    0.54
   1   1  -8    6.28    0.43
   1   1  -8    6.15    0.50
  -1  -1   8    6.34    0.65
  -1  -1   8    6.43    0.49
  -1  -1   8    6.77    0.58
  -1  -1   8    6.26    0.45
   0   1  -8   38.79    1.23
   0   1  -8   39.26    1.35
   0   1  -8   39.95    1.29
   0  -1   8   40.62    1.11
   0  -1   8   39.75    1.27
   0  -1   8   39.85    1.25
   0  -1   8   40.46    1.35
  -1   1  -8   -0.32    0.24
  -1   1  -8    0.23    0.19
  -1   1  -8   -0.01    0.18
   1  -1   8    0.19    0.19
   1  -1   8   -0.26    0.27
  -2   1  -8   10.15    0.60
  -2   1  -8    8.56    0.65
  -2   1  -8    9.79    0.63
   2  -1   8    9.77    0.66
   2  -1   8    9.28    0.55
   2  -1   8    9.61    0.59
  -3   1  -8   10.74    0.69
  -3   1  -8    9.70    0.73
  -3   1  -8   11.39    0.62
   3  -1   8   10.47    0.65
   3  -1   8   11.38    0.72
  -4   1  -8   -0.08    0.26
  -4   1  -8    0.06    0.27
   4  -1   8    0.24    0.30
   4  -1   8   -0.13    0.28
  -5   1  -8    0.25    0.32
  -5   1  -8    0.48    0.32
   5  -1   8    0.39    0.28
   5  -1   8    0.33    0.31
  -6   1  -8   -0.38    0.29
  -6   1  -8   -0.29    0.28
   6  -1   8    0.00    0.32
   6  -1   8   -0.02    0.24
  -7   1  -8    0.46    0.37
  -7   1  -8    0.72    0.37
   7  -1   8    0.54    0.40
   8  -1   8    0.40    0.43
   9   0  -8    0.46    0.50
   9   0  -8    0.96    0.49
  -9   0   8    1.10    0.56
   8   0  -8    0.24    0.43
   8   0  -8    0.12    0.45
  -8   0   8    0.83    0.68
  -8   0   8    0.46    0.48
  -8   0   8   -0.83    0.47
   7   0  -8    0.21    0.45
  -7   0   8    0.08    0.44
  -7   0   8    0.22    0.45
  -7   0   8   -0.46    0.40
   6   0  -8    0.53    0.41
  -6   0   8    0.33    0.39
  -6   0   8   -0.25    0.37
  -6   0   8    0.43    0.39
  -6   0   8    0.85    0.51
   5   0  -8    8.91    0.74
  -5   0   8    8.33    0.71
  -5   0   8    6.88    0.82
  -5   0   8    7.78    0.76
  -5   0   8    7.46    0.92
   4   0  -8    0.23    0.20
   4   0  -8    0.63    0.36
  -4   0   8    0.43    0.35
  -4   0   8    0.35    0.31
  -4   0   8    0.31    0.35
  -4   0   8    0.25    0.30
   3   0  -8    1.32    0.35
   3   0  -8    0.78    0.21
  -3   0   8    0.85    0.33
  -3   0   8    0.67    0.30
  -3   0   8    0.88    0.33
  -3   0   8    0.84    0.36
   2   0  -8    0.52    0.20
   2   0  -8    1.15    0.28
  -2   0   8    0.92    0.14
  -2   0   8    1.35    0.30
  -2   0   8    0.82    0.25
  -2   0   8    0.90    0.34
  -2   0   8    0.75    0.27
   1   0  -8    0.99    0.29
   1   0  -8    0.60    0.19
   1   0  -8    0.65    0.19
  -1   0   8    0.68    0.26
  -1   0   8    0.96    0.17
  -1   0   8    0.84    0.25
  -1   0   8    0.81    0.32
   0   0  -8   -0.10    0.22
   0   0  -8    0.44    0.18
   0   0  -8    0.13    0.16
   0   0  -8    0.19    0.18
   0   0   8    0.15    0.16
   0   0   8    0.06    0.20
   0   0   8    0.17    0.18
   0   0   8    0.15    0.28
  -1   0  -8   41.30    1.32
  -1   0  -8   43.85    1.36
  -1   0  -8   43.96    1.36
  -1   0  -8   42.72    1.42
   1   0   8   43.56    1.23
   1   0   8   44.24    1.41
   1   0   8   42.32    1.32
  -2   0  -8   15.81    0.70
  -2   0  -8   13.24    0.56
  -2   0  -8   15.99    0.77
  -2   0  -8   14.37    0.77
   2   0   8   15.72    0.72
   2   0   8   15.45    0.68
   2   0   8   16.88    0.78
  -3   0  -8    9.68    0.56
  -3   0  -8   10.97    0.73
  -3   0  -8   11.04    0.71
   3   0   8   11.46    0.69
   3   0   8   10.13    0.65
  -4   0  -8    0.11    0.29
  -4   0  -8    0.09    0.27
   4   0   8    0.35    0.29
   4   0   8    0.22    0.27
  -5   0  -8    0.29    0.28
  -5   0  -8   -0.01    0.28
   5   0   8    0.04    0.25
   5   0   8    0.24    0.32
  -6   0  -8    0.00    0.29
  -6   0  -8    0.08    0.30
   6   0   8    0.04    0.20
   6   0   8    0.21    0.32
  -7   0  -8    1.24    0.43
  -7   0  -8    0.86    0.40
   7   0   8    1.13    0.43
  -8   0  -8    0.19    0.38
   8   0   8    0.06    0.41
   9  -1  -8    1.06    0.51
   9  -1  -8    0.12    0.48
  -9   1   8   -0.01    0.52
   8  -1  -8    0.44    0.50
   8  -1  -8    0.38    0.46
  -8   1   8    0.51    0.67
   7  -1  -8    0.99    0.47
  -7   1   8    0.85    0.64
   6  -1  -8   -0.01    0.40
  -6   1   8   -0.39    0.31
  -6   1   8   -0.11    0.47
  -6   1   8   -0.02    0.35
   5  -1  -8    0.11    0.35
  -5   1   8    0.16    0.35
  -5   1   8    0.51    0.33
  -5   1   8    0.38    0.45
   4  -1  -8    2.76    0.46
   4  -1  -8    1.52    0.30
  -4   1   8    2.11    0.41
  -4   1   8    2.50    0.47
  -4   1   8    2.63    0.49
   3  -1  -8    2.18    0.41
   3  -1  -8    1.28    0.29
   3  -1  -8    1.91    0.23
  -3   1   8    1.40    0.33
  -3   1   8    1.65    0.39
  -3   1   8    2.16    0.43
   2  -1  -8    5.94    0.49
   2  -1  -8    7.23    0.59
  -2   1   8    6.91    0.63
  -2   1   8    6.55    0.28
  -2   1   8    5.90    0.52
   1  -1  -8   -0.05    0.24
   1  -1  -8    0.00    0.16
   1  -1  -8   -0.05    0.14
  -1   1   8    0.04    0.21
  -1   1   8    0.10    0.12
  -1   1   8    0.14    0.27
   0  -1  -8   18.40    0.80
   0  -1  -8   19.29    0.82
   0  -1  -8   17.86    0.78
   0  -1  -8   17.68    0.76
   0   1   8   18.51    0.66
   0   1   8   18.91    0.79
   0   1   8   18.81    0.79
   0   1   8   18.45    0.81
  -1  -1  -8   28.91    1.07
  -1  -1  -8   30.98    1.10
  -1  -1  -8   31.31    1.10
  -1  -1  -8   31.29    1.10
   1   1   8   31.09    1.12
   1   1   8   29.52    0.96
   1   1   8   30.49    1.02
  -2  -1  -8    0.98    0.25
  -2  -1  -8    1.29    0.29
  -2  -1  -8    1.31    0.25
  -2  -1  -8    1.38    0.31
   2   1   8    1.20    0.31
   2   1   8    1.05    0.25
   2   1   8    1.42    0.38
  -3  -1  -8   16.53    0.70
  -3  -1  -8   19.40    0.93
  -3  -1  -8   17.08    0.81
   3   1   8   16.78    0.81
   3   1   8   17.68    0.81
  -4  -1  -8    0.83    0.33
  -4  -1  -8    0.67    0.25
   4   1   8    0.73    0.28
   4   1   8    0.58    0.32
  -5  -1  -8   -0.20    0.23
  -5  -1  -8    0.05    0.30
   5   1   8   -0.33    0.21
   5   1   8   -0.47    0.27
  -6  -1  -8    0.26    0.31
  -6  -1  -8   -0.06    0.28
   6   1   8    0.65    0.31
  -7  -1  -8    0.10    0.37
  -7  -1  -8    0.07    0.33
   7   1   8    0.24    0.39
   9  -2  -8    0.65    0.54
   8  -2  -8   -0.21    0.45
   8  -2  -8   -0.22    0.39
  -8   2   8   -0.53    0.65
   7  -2  -8    0.27    0.38
   7  -2  -8    0.56    0.51
  -7   2   8   -0.04    0.60
  -7   2   8   -0.28    0.34
   6  -2  -8    0.38    0.42
  -6   2   8   -0.04    0.39
  -6   2   8   -0.42    0.50
  -6   2   8   -0.24    0.28
   5  -2  -8   -0.33    0.35
  -5   2   8   -0.37    0.34
  -5   2   8   -0.16    0.43
  -5   2   8    0.04    0.27
   4  -2  -8    1.18    0.41
   4  -2  -8    1.11    0.16
   4  -2  -8    0.43    0.27
  -4   2   8    0.96    0.43
  -4   2   8    0.80    0.40
   3  -2  -8    0.12    0.33
   3  -2  -8    0.05    0.08
  -3   2   8   -0.51    0.32
  -3   2   8    0.01    0.31
   2  -2  -8    3.96    0.45
   2  -2  -8    4.56    0.55
   2  -2  -8    4.74    0.40
  -2   2   8    5.03    0.59
  -2   2   8    4.45    0.57
   1  -2  -8   -0.34    0.24
  -1   2   8   -0.07    0.26
  -1   2   8   -0.20    0.27
  -1   2   8   -0.16    0.12
   0  -2  -8    0.10    0.26
   0  -2  -8    0.47    0.16
   0  -2  -8   -0.13    0.20
   0   2   8    0.28    0.17
   0   2   8    0.38    0.24
   0   2   8    0.05    0.30
  -1  -2  -8    0.08    0.15
  -1  -2  -8   -0.50    0.21
  -1  -2  -8   -0.24    0.20
   1   2   8   -0.21    0.18
  -2  -2  -8    5.46    0.44
  -2  -2  -8    6.28    0.48
  -2  -2  -8    5.48    0.52
   2   2   8    5.67    0.41
   2   2   8    5.44    0.50
   2   2   8    5.43    0.52
   2   2   8    6.68    0.40
  -3  -2  -8    0.54    0.21
  -3  -2  -8    0.73    0.27
   3   2   8    0.86    0.31
   3   2   8    0.19    0.29
  -4  -2  -8    1.05    0.25
  -4  -2  -8    1.43    0.34
   4   2   8    0.91    0.29
   4   2   8    1.31    0.32
  -5  -2  -8    0.10    0.30
  -5  -2  -8   -0.16    0.22
   5   2   8    0.08    0.20
   5   2   8   -0.03    0.30
  -6  -2  -8   -0.34    0.27
  -6  -2  -8   -0.02    0.25
   6   2   8    0.11    0.34
  -7  -2  -8    0.45    0.40
   7   2   8    0.30    0.31
   9  -3  -8    0.36    0.48
   8  -3  -8    0.03    0.40
  -8   3   8   -1.11    0.66
   7  -3  -8    0.33    0.41
   7  -3  -8    0.84    0.50
  -7   3   8   -0.78    0.60
   6  -3  -8    0.78    0.46
  -6   3   8    0.60    0.43
  -6   3   8    0.56    0.61
   5  -3  -8    0.79    0.43
  -5   3   8    0.21    0.41
  -5   3   8    0.18    0.40
   4  -3  -8    0.65    0.28
   4  -3  -8    1.20    0.42
   4  -3  -8    0.46    0.10
  -4   3   8    0.87    0.48
  -4   3   8    0.77    0.44
   3  -3  -8    2.88    0.34
   3  -3  -8    2.71    0.37
   3  -3  -8    3.02    0.45
  -3   3   8    3.15    0.53
  -3   3   8    3.41    0.52
   2  -3  -8    1.23    0.28
   2  -3  -8    1.12    0.39
   2  -3  -8    1.02    0.17
  -2   3   8    1.31    0.35
  -2   3   8    1.69    0.41
   1  -3  -8    6.98    0.56
   1  -3  -8    5.64    0.50
   1  -3  -8    5.17    0.51
  -1   3   8    5.48    0.36
  -1   3   8    6.44    0.65
  -1   3   8    5.28    0.62
   0  -3  -8    1.31    0.29
   0  -3  -8    0.57    0.30
   0  -3  -8    0.85    0.21
   0   3   8    1.29    0.38
   0   3   8    0.88    0.23
  -1  -3  -8   -0.05    0.19
  -1  -3  -8   -0.27    0.23
  -1  -3  -8    0.30    0.14
   1   3   8   -0.35    0.29
   1   3   8   -0.03    0.20
  -2  -3  -8   -0.37    0.19
   2   3   8   -0.36    0.22
   2   3   8   -0.25    0.14
  -3  -3  -8   -0.15    0.21
   3   3   8   -0.42    0.25
   3   3   8   -0.35    0.25
  -4  -3  -8    0.80    0.22
  -4  -3  -8    0.87    0.35
   4   3   8    1.23    0.37
   4   3   8    1.26    0.30
  -5  -3  -8    0.17    0.28
  -5  -3  -8   -0.09    0.21
   5   3   8    0.01    0.24
   5   3   8   -0.13    0.18
  -6  -3  -8   -0.07    0.29
   6   3   8   -0.07    0.35
  -7  -3  -8    0.01    0.30
   7   3   8    0.34    0.42
   8  -4  -8   -0.28    0.35
   8  -4  -8   -0.75    0.49
   7  -4  -8    0.30    0.37
  -7   4   8   -0.81    0.68
   6  -4  -8    0.86    0.48
   6  -4  -8   -0.04    0.28
  -6   4   8    0.09    0.64
  -6   4   8    0.20    0.43
   5  -4  -8    2.01    0.52
  -5   4   8    0.64    0.57
  -5   4   8    1.51    0.48
   4  -4  -8   -0.13    0.38
   4  -4  -8   -0.08    0.09
   4  -4  -8   -0.09    0.24
  -4   4   8   -0.09    0.40
  -4   4   8   -0.10    0.45
   3  -4  -8   -0.36    0.22
   3  -4  -8   -0.14    0.10
  -3   4   8   -0.35    0.37
  -3   4   8   -0.24    0.38
   2  -4  -8    0.48    0.28
   2  -4  -8    0.37    0.15
   2  -4  -8   -0.71    0.35
  -2   4   8    0.36    0.38
  -2   4   8    0.84    0.40
   1  -4  -8    4.10    0.53
   1  -4  -8    4.70    0.54
   1  -4  -8    3.20    0.51
  -1   4   8    3.27    0.51
  -1   4   8    4.11    0.58
   0  -4  -8   -0.11    0.17
   0  -4  -8   -0.31    0.25
   0  -4  -8   -0.15    0.19
   0   4   8   -0.24    0.17
  -1  -4  -8   -0.31    0.18
  -1  -4  -8   -0.16    0.22
  -1  -4  -8   -0.11    0.21
   1   4   8   -0.05    0.20
  -2  -4  -8    0.17    0.13
  -2  -4  -8    0.16    0.22
  -2  -4  -8    0.43    0.25
   2   4   8   -0.12    0.28
   2   4   8    0.23    0.25
   2   4   8    0.71    0.20
  -3  -4  -8   11.26    0.96
  -3  -4  -8   11.04    0.75
   3   4   8   11.07    0.67
   3   4   8   10.51    0.64
  -4  -4  -8    0.17    0.26
  -4  -4  -8    0.42    0.27
   4   4   8    0.52    0.33
   4   4   8    0.38    0.27
  -5  -4  -8    0.54    0.32
  -5  -4  -8    0.97    0.35
   5   4   8    0.50    0.30
  -6  -4  -8    1.12    0.38
  -6  -4  -8    1.85    0.41
   6   4   8    1.30    0.46
   7   4   8    0.07    0.41
   7  -5  -8   -0.25    0.50
  -6   5   8    1.25    0.53
  -6   5   8   -0.39    0.68
  -5   5   8    0.03    0.35
   4  -5  -8    0.54    0.47
   4  -5  -8    0.32    0.28
   4  -5  -8    0.04    0.13
  -4   5   8    0.31    0.44
  -4   5   8   -0.18    0.48
   3  -5  -8   -0.31    0.30
   3  -5  -8    0.10    0.26
   3  -5  -8    0.02    0.13
  -3   5   8   -0.02    0.44
  -3   5   8   -0.38    0.39
   2  -5  -8    0.00    0.13
   2  -5  -8   -0.12    0.24
   2  -5  -8   -0.71    0.33
  -2   5   8   -0.21    0.35
  -2   5   8   -0.78    0.37
   1  -5  -8    0.86    0.28
   1  -5  -8    0.68    0.35
   1  -5  -8    0.36    0.19
  -1   5   8   -0.30    0.38
   0  -5  -8    3.63    0.50
   0  -5  -8    3.81    0.54
   0  -5  -8    3.68    0.62
   0   5   8    3.17    0.52
  -1  -5  -8   -0.04    0.20
  -1  -5  -8    0.03    0.24
   1   5   8   -0.07    0.33
  -2  -5  -8    0.32    0.26
  -2  -5  -8    0.50    0.28
   2   5   8    0.83    0.31
   2   5   8    0.83    0.37
  -3  -5  -8   -0.25    0.25
  -3  -5  -8   -0.26    0.24
   3   5   8    0.22    0.31
   3   5   8   -0.31    0.29
  -4  -5  -8    0.44    0.30
  -4  -5  -8    1.16    0.35
   4   5   8    0.74    0.31
   4   5   8    0.86    0.31
  -5  -5  -8   -0.03    0.30
  -5  -5  -8    0.15    0.31
   5   5   8    0.03    0.28
  -6  -5  -8    0.70    0.36
  -6  -5  -8    0.51    0.35
   6   5   8    0.48    0.42
   7  -6  -8   -0.57    0.52
   6  -6  -8    1.05    0.60
  -6   6   8   -1.11    0.69
  -6   6   8    0.68    0.51
   5  -6  -8    2.15    0.61
  -5   6   8    2.27    0.60
  -5   6   8    0.96    0.70
   4  -6  -8    0.22    0.32
   4  -6  -8    0.03    0.14
  -4   6   8   -0.33    0.54
  -4   6   8    0.25    0.48
   3  -6  -8    0.07    0.16
   3  -6  -8    0.20    0.29
  -3   6   8   -0.17    0.48
  -3   6   8    0.26    0.37
   2  -6  -8    1.29    0.35
   2  -6  -8    0.82    0.24
  -2   6   8    1.88    0.52
  -2   6   8   -0.01    0.46
   1  -6  -8    0.47    0.23
   1  -6  -8    0.71    0.31
  -1   6   8    0.70    0.44
   0  -6  -8    0.49    0.29
   0  -6  -8    0.24    0.34
   0  -6  -8    0.35    0.25
   0   6   8    0.57    0.40
  -1  -6  -8    0.00    0.26
  -1  -6  -8   -0.35    0.22
   1   6   8    0.00    0.35
  -2  -6  -8    0.94    0.34
  -2  -6  -8    0.43    0.30
   2   6   8    0.51    0.38
  -3  -6  -8    0.57    0.31
  -3  -6  -8    0.86    0.33
   3   6   8    0.56    0.35
  -4  -6  -8    0.91    0.34
  -4  -6  -8    0.10    0.31
   4   6   8    0.71    0.32
  -5  -6  -8    0.14    0.33
  -5  -6  -8    0.30    0.31
   6  -7  -8    0.93    0.60
  -6   7   8    1.08    0.58
  -6   7   8   -0.61    0.69
   5  -7  -8    0.75    0.46
  -5   7   8   -0.53    0.66
  -5   7   8    0.65    0.54
   4  -7  -8    2.09    0.61
   4  -7  -8    1.04    0.25
  -4   7   8    2.13    0.62
  -4   7   8    1.57    0.68
   3  -7  -8    0.31    0.46
   3  -7  -8    0.05    0.20
   3  -7  -8    0.10    0.33
  -3   7   8    0.27    0.47
  -3   7   8    0.11    0.49
   2  -7  -8   -0.01    0.20
   2  -7  -8    0.33    0.42
   2  -7  -8   -0.22    0.31
  -2   7   8    0.27    0.48
   1  -7  -8    0.08    0.37
   1  -7  -8    0.09    0.21
   1  -7  -8   -0.01    0.28
  -1   7   8   -0.14    0.40
   0  -7  -8    0.13    0.25
   0  -7  -8    0.64    0.35
   0  -7  -8    0.04    0.30
   0   7   8    0.60    0.43
  -1  -7  -8    0.39    0.31
  -1  -7  -8    0.21    0.27
   1   7   8    0.59    0.44
  -2  -7  -8   -0.03    0.28
  -2  -7  -8    0.07    0.29
   2   7   8    0.28    0.41
  -3  -7  -8    0.13    0.28
  -3  -7  -8   -0.27    0.30
   3   7   8   -0.18    0.34
  -4  -7  -8    0.43    0.39
  -4  -7  -8    0.57    0.35
   4   7   8    0.69    0.30
  -5  -7  -8    0.05    0.31
  -6   8   8    1.73    0.63
   5  -8  -8    0.48    0.56
  -5   8   8    0.07    0.65
  -5   8   8    0.07    0.54
   4  -8  -8    0.40    0.49
  -4   8   8    0.72    0.60
  -4   8   8    0.51    0.52
   3  -8  -8    6.23    0.76
   3  -8  -8    5.79    0.74
   3  -8  -8    6.52    0.88
  -3   8   8    7.51    0.92
   2  -8  -8    0.80    0.45
   2  -8  -8    0.31    0.26
   2  -8  -8    0.27    0.32
  -2   8   8    0.53    0.50
   1  -8  -8    1.49    0.34
   1  -8  -8    2.12    0.51
   1  -8  -8    1.75    0.43
  -1   8   8    2.69    0.56
   0  -8  -8    8.08    0.81
   0  -8  -8    7.82    0.93
   0   8   8    9.55    0.86
  -1  -8  -8    0.36    0.32
  -1  -8  -8    0.19    0.30
   1   8   8    0.05    0.43
  -2  -8  -8   -0.08    0.27
  -2  -8  -8   -0.24    0.28
   2   8   8   -0.33    0.39
  -3  -8  -8   -0.12    0.33
  -3  -8  -8    0.18    0.29
   3   8   8    0.22    0.34
  -4  -8  -8   -0.20    0.32
   4   8   8    0.32    0.32
   5  -9  -8    0.48    0.57
  -5   9   8    0.06    0.54
   4  -9  -8    0.46    0.51
  -4   9   8    0.85    0.58
   3  -9  -8    0.55    0.30
   3  -9  -8    0.70    0.50
  -3   9   8    1.08    0.55
   2  -9  -8   -0.32    0.32
   2  -9  -8   -0.10    0.26
   2  -9  -8    0.15    0.42
  -2   9   8    0.11    0.48
   1  -9  -8    0.04    0.29
   1  -9  -8    0.09    0.36
  -1   9   8    0.76    0.49
   0  -9  -8    0.25    0.33
   0  -9  -8    0.55    0.33
   0   9   8    0.93    0.49
  -1  -9  -8   -0.54    0.29
  -1  -9  -8    0.07    0.33
   1   9   8   -0.32    0.43
  -2  -9  -8    0.79    0.36
  -2  -9  -8    0.41    0.39
   2   9   8    1.63    0.48
   3   9   8    0.65    0.40
   3 -10  -8   -0.13    0.43
   3 -10  -8   -0.26    0.29
   2 -10  -8    0.07    0.35
   2 -10  -8    0.12    0.30
   1 -10  -8    0.30    0.36
   1 -10  -8    0.40    0.39
   0 -10  -8   -0.41    0.33
   0 -10  -8   -0.38    0.36
  -1 -10  -8   -0.05    0.36
   1  10  -9    0.61    0.33
  -1 -10   9    1.02    0.59
   0  10  -9    0.96    0.56
   0  10  -9    0.85    0.36
   0 -10   9   -0.17    0.44
   0 -10   9    1.72    0.64
  -1  10  -9    1.13    0.56
  -1  10  -9    0.53    0.39
  -2  10  -9    0.58    0.53
  -4  -9   9    1.76    0.48
   2   9  -9    0.39    0.51
  -2  -9   9   -0.39    0.43
  -2  -9   9    0.54    0.52
   1   9  -9    2.07    0.44
   1   9  -9    3.01    0.63
  -1  -9   9    3.96    0.73
  -1  -9   9    1.55    0.54
   0   9  -9    0.01    0.31
   0   9  -9    0.70    0.50
   0  -9   9   -0.66    0.40
   0  -9   9    0.98    0.56
  -1   9  -9   -0.12    0.31
  -1   9  -9    0.42    0.47
   1  -9   9    0.98    0.56
  -2   9  -9    2.17    0.56
  -2   9  -9    1.26    0.44
   2  -9   9    2.26    0.68
  -3   9  -9    1.15    0.51
  -3   9  -9   -0.21    0.39
  -5  -8   9    0.93    0.53
   4   8  -9    1.65    0.58
  -4  -8   9    1.45    0.51
   3   8  -9    0.57    0.48
  -3  -8   9    0.89    0.51
  -3  -8   9   -0.02    0.42
  -3  -8   9    1.12    0.43
   2   8  -9   -0.21    0.42
  -2  -8   9    0.18    0.44
  -2  -8   9   -0.51    0.36
   1   8  -9   -0.04    0.33
   1   8  -9   -0.15    0.28
  -1  -8   9   -0.12    0.45
  -1  -8   9   -0.65    0.34
   0   8  -9    0.48    0.32
   0   8  -9    1.03    0.46
   0  -8   9   -0.14    0.35
   0  -8   9    1.43    0.55
  -1   8  -9   -0.40    0.33
  -1   8  -9    0.50    0.41
   1  -8   9    0.16    0.47
   1  -8   9   -0.37    0.32
  -2   8  -9    1.93    0.51
  -2   8  -9    0.77    0.44
   2  -8   9    3.45    0.66
  -3   8  -9    0.35    0.41
  -3   8  -9   -0.52    0.36
   3  -8   9    0.16    0.51
  -4   8  -9    0.01    0.25
   4  -8   9    0.21    0.52
  -6  -7   9    0.80    0.59
   5   7  -9    0.17    0.48
  -5  -7   9    1.13    0.53
  -5  -7   9    0.25    0.47
   4   7  -9    1.53    0.54
  -4  -7   9    0.69    0.47
  -4  -7   9    1.38    0.48
   3   7  -9    0.92    0.48
  -3  -7   9    0.69    0.47
  -3  -7   9    0.85    0.39
  -3  -7   9   -0.02    0.40
   2   7  -9    1.98    0.54
  -2  -7   9    3.18    0.57
  -2  -7   9    2.12    0.55
  -2  -7   9    1.12    0.45
   1   7  -9    2.10    0.51
   1   7  -9    1.77    0.40
  -1  -7   9    3.03    0.61
  -1  -7   9    1.04    0.43
   0   7  -9    0.09    0.29
   0   7  -9    0.36    0.40
   0  -7   9   -0.46    0.35
   0  -7   9    0.22    0.47
  -1   7  -9    1.74    0.42
  -1   7  -9    1.21    0.38
   1  -7   9    1.57    0.55
   1  -7   9    0.90    0.37
  -2   7  -9   -0.50    0.29
  -2   7  -9   -0.05    0.18
  -2   7  -9    0.12    0.37
   2  -7   9   -0.03    0.34
   2  -7   9   -0.36    0.27
  -3   7  -9    1.71    0.46
  -3   7  -9    2.14    0.34
  -3   7  -9    2.18    0.48
   3  -7   9    3.62    0.65
  -4   7  -9    0.76    0.28
  -4   7  -9    0.08    0.46
   4  -7   9    0.95    0.52
  -5   7  -9   -0.77    0.40
  -5   7  -9    0.17    0.27
   5  -7   9    0.63    0.50
   6   6  -9    5.45    0.83
  -6  -6   9    6.48    1.13
   5   6  -9    6.34    0.85
  -5  -6   9    7.07    1.03
   4   6  -9    0.07    0.42
  -4  -6   9   -0.56    0.44
  -4  -6   9    0.00    0.40
  -4  -6   9    0.49    0.46
   3   6  -9    1.17    0.45
  -3  -6   9    0.38    0.41
  -3  -6   9    1.51    0.43
  -3  -6   9    1.28    0.50
   2   6  -9    1.13    0.33
   2   6  -9    1.42    0.47
  -2  -6   9    1.53    0.38
  -2  -6   9    1.84    0.52
  -2  -6   9    0.90    0.45
   1   6  -9    2.13    0.39
   1   6  -9    3.67    0.57
  -1  -6   9    3.76    0.48
  -1  -6   9    3.18    0.61
   0   6  -9    2.46    0.44
   0   6  -9    2.28    0.31
   0   6  -9    1.66    0.37
   0  -6   9    1.43    0.43
   0  -6   9    3.11    0.60
  -1   6  -9   -0.23    0.29
  -1   6  -9    0.05    0.16
  -1   6  -9   -0.10    0.33
   1  -6   9   -0.52    0.25
   1  -6   9    0.24    0.42
  -2   6  -9   -0.13    0.29
  -2   6  -9   -0.06    0.17
  -2   6  -9    0.07    0.33
   2  -6   9    0.19    0.42
   2  -6   9   -0.25    0.27
  -3   6  -9    0.43    0.34
  -3   6  -9    0.55    0.25
  -3   6  -9   -0.21    0.34
   3  -6   9    0.67    0.45
  -4   6  -9   -0.44    0.34
  -4   6  -9   -0.01    0.23
   4  -6   9    0.28    0.49
  -5   6  -9   -0.13    0.27
   5  -6   9   -0.29    0.40
  -6   6  -9    0.76    0.35
   6  -6   9    0.89    0.51
   6  -6   9   -0.29    0.41
   7   5  -9    2.25    0.62
  -7  -5   9    2.55    0.76
  -7  -5   9    0.71    0.63
   6   5  -9    0.46    0.49
  -6  -5   9    0.76    0.60
  -6  -5   9    0.24    0.46
   5   5  -9    0.68    0.45
  -5  -5   9   -0.07    0.42
  -5  -5   9    0.89    0.53
   4   5  -9    4.94    0.73
  -4  -5   9    5.66    0.86
  -4  -5   9    5.03    0.74
   3   5  -9    1.41    0.45
  -3  -5   9    1.23    0.47
  -3  -5   9    0.33    0.39
  -3  -5   9    0.93    0.40
   2   5  -9    7.53    0.75
   2   5  -9    6.38    0.67
  -2  -5   9    6.23    0.89
  -2  -5   9    7.25    0.66
  -2  -5   9    7.37    0.80
   1   5  -9    3.23    0.31
   1   5  -9    3.86    0.54
   1   5  -9    2.49    0.41
  -1  -5   9    3.68    0.45
  -1  -5   9    3.86    0.56
   0   5  -9    0.12    0.15
   0   5  -9   -0.07    0.23
   0   5  -9   -0.18    0.32
   0  -5   9   -0.33    0.39
   0  -5   9   -0.42    0.28
  -1   5  -9    1.62    0.26
  -1   5  -9    1.64    0.37
  -1   5  -9    2.19    0.40
   1  -5   9    2.19    0.53
   1  -5   9    1.27    0.36
  -2   5  -9    3.21    0.45
  -2   5  -9    3.13    0.47
  -2   5  -9    2.04    0.41
   2  -5   9    3.53    0.58
  -3   5  -9    0.21    0.23
  -3   5  -9    0.27    0.29
  -3   5  -9   -0.29    0.31
   3  -5   9    0.18    0.39
  -4   5  -9    0.06    0.24
  -4   5  -9   -0.21    0.36
   4  -5   9    0.43    0.42
  -5   5  -9    0.06    0.39
  -5   5  -9    0.22    0.29
   5  -5   9    1.08    0.44
  -6   5  -9   -0.33    0.43
  -6   5  -9    0.12    0.35
   6  -5   9    0.49    0.42
   6  -5   9    1.06    0.47
   7   4  -9    0.30    0.48
  -7  -4   9   -0.25    0.53
  -7  -4   9    1.13    0.68
   6   4  -9    4.23    0.65
  -6  -4   9    3.81    0.76
  -6  -4   9    2.41    0.61
   5   4  -9    6.91    0.78
  -5  -4   9    4.52    0.70
  -5  -4   9    5.80    0.87
   4   4  -9    0.08    0.38
  -4  -4   9   -0.11    0.38
  -4  -4   9   -0.24    0.36
  -4  -4   9   -0.19    0.35
   3   4  -9    5.03    0.67
   3   4  -9    3.75    0.33
  -3  -4   9    2.76    0.53
  -3  -4   9    4.67    0.61
  -3  -4   9    4.83    0.69
   2   4  -9    3.48    0.52
   2   4  -9    3.06    0.31
   2   4  -9    3.32    0.54
  -2  -4   9    2.06    0.45
  -2  -4   9    3.09    0.49
  -2  -4   9    3.45    0.57
   1   4  -9   -0.11    0.26
   1   4  -9    0.16    0.23
   1   4  -9    0.05    0.14
  -1  -4   9   -0.15    0.29
  -1  -4   9   -0.28    0.29
  -1  -4   9   -0.05    0.20
   0   4  -9   -0.27    0.33
   0   4  -9    0.58    0.19
   0   4  -9    0.24    0.25
   0  -4   9   -0.01    0.30
   0  -4   9    0.27    0.15
   0  -4   9   -0.50    0.39
  -1   4  -9   -0.06    0.16
  -1   4  -9   -0.32    0.22
  -1   4  -9   -0.23    0.28
   1  -4   9   -0.84    0.34
   1  -4   9   -0.27    0.24
  -2   4  -9   -0.10    0.20
  -2   4  -9    0.37    0.29
  -2   4  -9   -0.35    0.25
   2  -4   9    0.35    0.37
  -3   4  -9    0.46    0.33
  -3   4  -9    0.88    0.26
  -3   4  -9    1.17    0.35
   3  -4   9    1.69    0.45
  -4   4  -9    0.67    0.38
  -4   4  -9    0.68    0.29
   4  -4   9    1.53    0.48
  -5   4  -9    0.04    0.27
  -5   4  -9   -0.54    0.33
   5  -4   9    0.08    0.33
   5  -4   9   -0.16    0.40
  -6   4  -9   -0.28    0.38
  -6   4  -9    0.12    0.33
   6  -4   9    0.07    0.35
   6  -4   9   -0.11    0.37
   7  -4   9    0.38    0.38
   7  -4   9   -0.25    0.40
   8   3  -9   -0.34    0.48
  -8  -3   9   -0.10    0.47
   7   3  -9   -0.02    0.46
  -7  -3   9    0.73    0.61
  -7  -3   9    0.13    0.45
  -7  -3   9   -0.43    0.48
   6   3  -9   -0.26    0.43
  -6  -3   9   -0.10    0.45
  -6  -3   9    0.70    0.55
  -6  -3   9    0.02    0.43
   5   3  -9   -0.21    0.40
  -5  -3   9   -0.35    0.42
  -5  -3   9    0.07    0.39
  -5  -3   9   -0.42    0.36
  -5  -3   9   -0.66    0.34
   4   3  -9    0.63    0.39
  -4  -3   9    0.43    0.41
  -4  -3   9    0.55    0.43
  -4  -3   9    0.07    0.36
  -4  -3   9    0.74    0.40
   3   3  -9    2.07    0.30
   3   3  -9    2.39    0.47
  -3  -3   9    2.03    0.49
  -3  -3   9    1.97    0.41
  -3  -3   9    2.24    0.44
  -3  -3   9    1.25    0.42
   2   3  -9   -0.05    0.22
   2   3  -9   -0.12    0.13
   2   3  -9   -0.05    0.24
  -2  -3   9   -0.16    0.36
  -2  -3   9    0.05    0.23
  -2  -3   9   -0.30    0.30
   1   3  -9    4.49    0.37
   1   3  -9    4.17    0.58
   1   3  -9    4.51    0.55
  -1  -3   9    2.92    0.46
  -1  -3   9    4.10    0.41
  -1  -3   9    4.22    0.58
   0   3  -9    0.05    0.16
   0   3  -9   -0.17    0.22
   0  -3   9   -0.10    0.14
   0  -3   9   -0.56    0.34
   0  -3   9   -0.15    0.27
  -1   3  -9    0.01    0.24
  -1   3  -9   -0.15    0.17
  -1   3  -9    0.03    0.28
   1  -3   9   -0.27    0.34
  -2   3  -9    6.80    0.68
  -2   3  -9    7.07    0.61
  -2   3  -9    7.41    0.60
   2  -3   9    8.12    0.72
  -3   3  -9   -0.26    0.25
  -3   3  -9   -0.02    0.27
  -3   3  -9   -0.10    0.23
   3  -3   9   -0.19    0.21
   3  -3   9   -0.13    0.32
  -4   3  -9    0.67    0.28
  -4   3  -9    0.00    0.31
   4  -3   9    0.28    0.25
   4  -3   9    0.57    0.42
  -5   3  -9   -0.29    0.26
  -5   3  -9   -0.57    0.33
   5  -3   9    0.13    0.38
   5  -3   9    0.21    0.31
  -6   3  -9   -0.20    0.36
  -6   3  -9   -0.16    0.32
   6  -3   9    0.15    0.35
   6  -3   9   -0.01    0.34
   7  -3   9    0.19    0.41
   8   2  -9   -0.62    0.44
  -8  -2   9    0.25    0.69
  -8  -2   9   -0.55    0.44
   7   2  -9   -0.57    0.48
  -7  -2   9   -0.83    0.49
  -7  -2   9   -0.18    0.45
  -7  -2   9    0.35    0.58
   6   2  -9   -0.22    0.48
  -6  -2   9   -0.22    0.50
  -6  -2   9   -0.62    0.40
  -6  -2   9   -0.11    0.44
   5   2  -9    0.02    0.38
  -5  -2   9    0.10    0.43
  -5  -2   9   -0.39    0.41
  -5  -2   9   -0.12    0.38
  -5  -2   9    0.53    0.41
   4   2  -9   -0.24    0.14
   4   2  -9   -0.19    0.33
  -4  -2   9   -0.25    0.37
  -4  -2   9   -0.12    0.34
  -4  -2   9   -0.53    0.35
  -4  -2   9   -0.51    0.31
   3   2  -9    0.67    0.37
   3   2  -9    0.67    0.19
  -3  -2   9    0.38    0.34
  -3  -2   9    0.24    0.34
  -3  -2   9    0.53    0.39
  -3  -2   9    0.18    0.34
   2   2  -9    2.76    0.41
   2   2  -9    2.64    0.33
  -2  -2   9    2.54    0.48
  -2  -2   9    1.95    0.35
  -2  -2   9    2.16    0.39
   1   2  -9    4.89    0.57
   1   2  -9    6.13    0.44
   1   2  -9    6.53    0.63
  -1  -2   9    6.34    0.48
  -1  -2   9    5.94    0.58
  -1  -2   9    4.69    0.73
  -1  -2   9    6.23    0.68
   0   2  -9   27.64    1.17
   0   2  -9   26.34    0.98
   0   2  -9   25.99    1.10
   0  -2   9   27.07    1.16
   0  -2   9   25.69    0.90
   0  -2   9   26.05    1.25
  -1   2  -9   18.35    0.90
  -1   2  -9   19.74    0.98
  -1   2  -9   20.90    0.93
   1  -2   9   20.43    1.01
  -2   2  -9   -0.08    0.23
  -2   2  -9    0.60    0.28
  -2   2  -9    0.22    0.25
   2  -2   9    0.60    0.36
   2  -2   9    0.47    0.27
  -3   2  -9   -0.13    0.22
  -3   2  -9   -0.12    0.21
   3  -2   9   -0.46    0.34
   3  -2   9   -0.28    0.19
  -4   2  -9   -0.31    0.29
  -4   2  -9    0.47    0.28
   4  -2   9    0.51    0.36
   4  -2   9    0.64    0.34
  -5   2  -9   -0.48    0.26
  -5   2  -9   -0.40    0.28
   5  -2   9   -0.36    0.31
   5  -2   9   -0.24    0.30
  -6   2  -9   -0.24    0.34
  -6   2  -9    0.19    0.36
   6  -2   9    0.52    0.34
   6  -2   9    0.21    0.37
  -7   2  -9    0.08    0.39
   7  -2   9   -0.17    0.39
   8   1  -9    0.49    0.54
  -8  -1   9    0.67    0.50
  -8  -1   9    0.68    0.68
   7   1  -9   -0.25    0.42
  -7  -1   9    0.00    0.45
  -7  -1   9    0.16    0.55
   6   1  -9   -0.29    0.41
  -6  -1   9   -0.66    0.39
  -6  -1   9   -0.18    0.47
  -6  -1   9   -0.03    0.45
  -6  -1   9   -0.20    0.37
   5   1  -9    2.73    0.53
  -5  -1   9    3.21    0.53
  -5  -1   9    1.90    0.55
  -5  -1   9    2.84    0.56
   4   1  -9    0.49    0.37
   4   1  -9    0.82    0.22
  -4  -1   9    0.58    0.37
  -4  -1   9   -0.01    0.35
  -4  -1   9    0.76    0.37
  -4  -1   9    0.46    0.40
   3   1  -9    1.57    0.39
   3   1  -9    0.77    0.21
  -3  -1   9    0.87    0.42
  -3  -1   9    0.47    0.35
  -3  -1   9    0.33    0.34
  -3  -1   9    0.92    0.34
   2   1  -9   -0.06    0.30
   2   1  -9   -0.17    0.15
  -2  -1   9   -0.20    0.26
  -2  -1   9   -0.29    0.13
  -2  -1   9   -0.09    0.28
  -2  -1   9   -0.27    0.28
  -2  -1   9    0.15    0.35
   1   1  -9    8.26    0.54
   1   1  -9   10.31    0.65
   1   1  -9    7.63    0.66
  -1  -1   9    9.73    0.61
  -1  -1   9    9.41    0.48
  -1  -1   9   11.75    0.70
  -1  -1   9   11.57    0.78
  -1  -1   9   10.40    0.86
   0   1  -9  108.44    3.11
   0   1  -9  112.87    2.95
   0   1  -9  105.64    2.83
   0  -1   9  109.97    2.58
   0  -1   9  110.23    2.95
   0  -1   9  109.18    3.10
   0  -1   9  116.59    3.03
  -1   1  -9   64.90    1.93
  -1   1  -9   65.61    2.09
  -1   1  -9   68.81    1.97
   1  -1   9   67.31    1.78
   1  -1   9   68.75    2.04
  -2   1  -9    0.09    0.23
  -2   1  -9    0.53    0.30
  -2   1  -9   -0.21    0.23
   2  -1   9    0.21    0.33
   2  -1   9    0.33    0.26
  -3   1  -9    0.83    0.33
  -3   1  -9    1.48    0.32
  -3   1  -9    1.90    0.34
   3  -1   9    1.73    0.42
   3  -1   9    1.01    0.34
  -4   1  -9   -0.13    0.24
   4  -1   9   -0.38    0.28
   4  -1   9   -0.39    0.29
  -5   1  -9    0.54    0.35
  -5   1  -9    0.11    0.30
   5  -1   9    0.80    0.33
   5  -1   9    0.60    0.35
  -6   1  -9    0.25    0.37
  -6   1  -9    0.42    0.35
   6  -1   9    0.42    0.30
   6  -1   9    0.69    0.33
  -7   1  -9    0.22    0.36
   7  -1   9    0.15    0.41
   8   0  -9   -0.05    0.53
   8   0  -9   -0.24    0.45
  -8   0   9   -0.09    0.65
  -8   0   9    0.55    0.51
   7   0  -9    0.12    0.53
  -7   0   9    0.22    0.60
  -7   0   9    0.26    0.49
   6   0  -9   -0.06    0.41
  -6   0   9    0.02    0.49
  -6   0   9   -0.43    0.36
  -6   0   9   -0.64    0.37
  -6   0   9    0.29    0.47
   5   0  -9    3.14    0.54
  -5   0   9    2.89    0.60
  -5   0   9    3.30    0.54
  -5   0   9    3.18    0.54
   4   0  -9    0.08    0.35
   4   0  -9   -0.18    0.18
  -4   0   9   -0.40    0.36
  -4   0   9    0.03    0.31
  -4   0   9   -0.29    0.32
  -4   0   9   -0.08    0.34
   3   0  -9    1.08    0.38
   3   0  -9    0.58    0.24
  -3   0   9    0.65    0.34
  -3   0   9    1.46    0.38
  -3   0   9    1.00    0.36
  -3   0   9    0.73    0.41
   2   0  -9   19.27    0.87
   2   0  -9   23.88    1.03
  -2   0   9   20.54    0.64
  -2   0   9   20.94    1.16
  -2   0   9   22.76    1.05
  -2   0   9   20.97    1.01
  -2   0   9   22.72    0.98
   1   0  -9    1.42    0.29
   1   0  -9    1.52    0.28
   1   0  -9    2.24    0.42
  -1   0   9    2.73    0.47
  -1   0   9    1.62    0.39
  -1   0   9    2.65    0.32
   0   0  -9    1.40    0.33
   0   0  -9    2.20    0.36
   0   0  -9    1.78    0.31
   0   0   9    1.75    0.30
   0   0   9    3.34    0.41
   0   0   9    2.26    0.38
  -1   0  -9    8.49    0.63
  -1   0  -9    7.58    0.61
  -1   0  -9    8.73    0.65
   1   0   9    8.37    0.70
   1   0   9    8.05    0.53
   1   0   9    8.90    0.55
  -2   0  -9    0.98    0.30
  -2   0  -9    0.92    0.28
  -2   0  -9    1.00    0.29
   2   0   9    1.23    0.41
   2   0   9    0.89    0.30
  -3   0  -9    2.10    0.37
  -3   0  -9    1.40    0.31
   3   0   9    2.33    0.42
   3   0   9    2.16    0.39
  -4   0  -9    0.91    0.35
  -4   0  -9    0.81    0.28
   4   0   9    1.43    0.36
   4   0   9    1.06    0.34
  -5   0  -9    0.10    0.26
  -5   0  -9    0.21    0.31
   5   0   9   -0.04    0.28
   5   0   9    0.17    0.31
  -6   0  -9    1.18    0.39
  -6   0  -9    1.73    0.44
   6   0   9    1.48    0.44
  -7   0  -9    0.39    0.36
   7   0   9   -0.08    0.38
   8  -1  -9   -0.37    0.41
   8  -1  -9    0.03    0.46
  -8   1   9   -0.32    0.61
  -8   1   9    0.06    0.49
   7  -1  -9    0.62    0.50
  -7   1   9    0.34    0.59
  -7   1   9   -0.21    0.46
   6  -1  -9   -0.10    0.42
  -6   1   9    0.00    0.38
  -6   1   9   -0.54    0.35
  -6   1   9    0.06    0.51
   5  -1  -9    0.12    0.38
  -5   1   9    0.06    0.34
  -5   1   9   -0.22    0.37
  -5   1   9   -0.13    0.42
   4  -1  -9    0.90    0.39
   4  -1  -9   -0.10    0.24
  -4   1   9    0.09    0.32
  -4   1   9    0.36    0.40
  -4   1   9    0.32    0.39
   3  -1  -9    0.06    0.28
   3  -1  -9    0.66    0.12
   3  -1  -9    1.23    0.42
  -3   1   9    1.37    0.43
  -3   1   9    0.66    0.32
  -3   1   9    1.36    0.40
   2  -1  -9    0.02    0.26
   2  -1  -9    0.77    0.37
  -2   1   9    0.85    0.15
  -2   1   9    0.85    0.40
  -2   1   9    0.71    0.37
   1  -1  -9   29.56    1.11
   1  -1  -9   31.94    1.22
  -1   1   9   30.13    0.88
  -1   1   9   29.81    1.23
  -1   1   9   27.41    1.13
  -1   1   9   30.78    1.21
   0  -1  -9   11.61    0.66
   0  -1  -9   12.40    0.70
   0  -1  -9   12.05    0.75
   0   1   9   11.81    0.66
   0   1   9   12.85    0.81
   0   1   9   11.74    0.56
   0   1   9   12.67    0.68
  -1  -1  -9    0.21    0.25
  -1  -1  -9    0.48    0.27
  -1  -1  -9    0.15    0.18
   1   1   9   -0.13    0.31
   1   1   9   -0.19    0.22
   1   1   9    0.39    0.22
  -2  -1  -9    4.19    0.59
  -2  -1  -9    3.38    0.51
  -2  -1  -9    3.79    0.44
   2   1   9    3.87    0.54
   2   1   9    3.44    0.46
  -3  -1  -9    0.54    0.23
  -3  -1  -9    0.23    0.28
   3   1   9    0.68    0.35
   3   1   9    0.69    0.31
  -4  -1  -9    0.03    0.28
  -4  -1  -9   -0.05    0.21
   4   1   9   -0.07    0.27
   4   1   9   -0.13    0.27
  -5  -1  -9    1.21    0.32
  -5  -1  -9    1.59    0.40
   5   1   9    1.62    0.33
   5   1   9    1.66    0.41
  -6  -1  -9    0.47    0.32
  -6  -1  -9    0.28    0.37
   6   1   9    0.77    0.40
  -7  -1  -9   -0.15    0.34
   7   1   9   -0.31    0.38
   8  -2  -9    0.23    0.44
   8  -2  -9   -0.05    0.51
  -8   2   9   -1.15    0.68
   7  -2  -9   -0.08    0.44
  -7   2   9   -0.53    0.34
  -7   2   9   -0.83    0.60
   6  -2  -9    0.86    0.49
  -6   2   9    0.13    0.36
  -6   2   9    0.31    0.43
  -6   2   9   -0.35    0.53
   5  -2  -9    0.23    0.41
  -5   2   9   -0.20    0.40
  -5   2   9    0.42    0.49
   4  -2  -9    4.67    0.58
   4  -2  -9    5.40    0.74
  -4   2   9    5.76    0.86
  -4   2   9    5.17    0.72
   3  -2  -9    1.54    0.45
   3  -2  -9    1.58    0.32
   3  -2  -9    0.97    0.15
  -3   2   9    1.47    0.47
  -3   2   9    1.43    0.46
   2  -2  -9    7.19    0.62
   2  -2  -9    5.73    0.69
   2  -2  -9    7.55    0.51
  -2   2   9    7.08    0.69
  -2   2   9    6.43    0.62
   1  -2  -9    4.28    0.62
   1  -2  -9    5.82    0.54
  -1   2   9    4.99    0.37
  -1   2   9    4.99    0.65
  -1   2   9    5.76    0.59
   0  -2  -9    2.55    0.41
   0  -2  -9    2.59    0.38
   0  -2  -9    1.96    0.33
   0   2   9    2.16    0.32
   0   2   9    2.30    0.46
   0   2   9    2.30    0.38
  -1  -2  -9    6.16    0.53
  -1  -2  -9    6.61    0.50
  -1  -2  -9    6.80    0.64
   1   2   9    6.75    0.63
   1   2   9    5.71    0.48
   1   2   9    6.42    0.49
  -2  -2  -9   -0.29    0.24
  -2  -2  -9   -0.11    0.21
  -2  -2  -9   -0.08    0.18
   2   2   9   -0.21    0.29
   2   2   9    0.09    0.23
   2   2   9    0.06    0.18
  -3  -2  -9    0.28    0.27
  -3  -2  -9    0.14    0.21
   3   2   9    0.19    0.33
   3   2   9    0.55    0.25
  -4  -2  -9    0.12    0.21
  -4  -2  -9    0.33    0.32
   4   2   9    0.19    0.31
   4   2   9    0.29    0.30
  -5  -2  -9   -0.18    0.22
  -5  -2  -9    0.08    0.29
   5   2   9    0.02    0.32
   5   2   9    0.03    0.24
  -6  -2  -9    0.00    0.35
   6   2   9   -0.13    0.34
   7   2   9    0.78    0.44
   8  -3  -9   -0.46    0.45
  -8   3   9   -1.41    0.74
   7  -3  -9   -0.18    0.48
   7  -3  -9   -0.47    0.34
  -7   3   9   -0.42    0.68
   6  -3  -9    1.09    0.52
  -6   3   9    0.91    0.49
  -6   3   9    0.10    0.60
   5  -3  -9    1.33    0.50
  -5   3   9    0.56    0.56
  -5   3   9    1.46    0.51
   4  -3  -9    0.14    0.43
   4  -3  -9    0.06    0.26
  -4   3   9    0.03    0.47
  -4   3   9    0.13    0.35
   3  -3  -9   -0.13    0.23
   3  -3  -9   -0.15    0.10
  -3   3   9   -0.36    0.39
  -3   3   9   -0.34    0.38
   2  -3  -9   -0.27    0.21
   2  -3  -9   -0.11    0.11
  -2   3   9   -0.20    0.34
   1  -3  -9   -0.24    0.20
   1  -3  -9   -0.19    0.11
  -1   3   9   -0.14    0.32
   0  -3  -9    0.24    0.26
   0  -3  -9    0.20    0.20
   0  -3  -9    0.38    0.31
   0   3   9   -0.26    0.35
   0   3   9    0.64    0.23
  -1  -3  -9    1.12    0.31
  -1  -3  -9    0.69    0.29
  -1  -3  -9    0.79    0.19
   1   3   9    0.91    0.39
   1   3   9    1.08    0.27
   1   3   9    1.08    0.27
  -2  -3  -9    3.00    0.42
  -2  -3  -9    3.46    0.41
   2   3   9    3.63    0.48
   2   3   9    4.15    0.37
   2   3   9    3.98    0.47
  -3  -3  -9   -0.16    0.26
  -3  -3  -9   -0.28    0.16
   3   3   9   -0.58    0.28
   3   3   9   -0.37    0.28
  -4  -3  -9   -0.12    0.26
   4   3   9   -0.43    0.29
   4   3   9   -0.13    0.26
  -5  -3  -9    0.64    0.37
   5   3   9    0.44    0.26
   5   3   9    0.61    0.37
  -6  -3  -9    0.93    0.40
   6   3   9    1.30    0.46
   7  -4  -9    0.11    0.38
  -7   4   9   -1.39    0.71
   6  -4  -9    0.57    0.51
  -6   4   9    0.34    0.49
  -6   4   9   -1.09    0.64
   5  -4  -9   -0.19    0.35
  -5   4   9   -0.68    0.56
  -5   4   9    0.03    0.46
   4  -4  -9   -0.62    0.41
   4  -4  -9    0.02    0.27
  -4   4   9   -0.40    0.32
  -4   4   9   -0.33    0.48
   3  -4  -9   -0.36    0.24
   3  -4  -9   -0.04    0.12
  -3   4   9   -0.58    0.41
  -3   4   9   -0.78    0.38
   2  -4  -9   -0.12    0.13
   2  -4  -9   -0.06    0.25
  -2   4   9   -0.27    0.36
  -2   4   9   -0.76    0.37
   1  -4  -9   -0.14    0.14
   1  -4  -9   -0.26    0.22
   1  -4  -9   -0.37    0.30
  -1   4   9   -0.22    0.31
   0  -4  -9    1.11    0.31
   0  -4  -9    1.38    0.38
   0   4   9    1.17    0.25
   0   4   9    0.99    0.43
  -1  -4  -9    0.18    0.28
  -1  -4  -9    0.06    0.24
  -1  -4  -9    0.19    0.26
   1   4   9    0.19    0.26
   1   4   9    0.21    0.35
  -2  -4  -9    0.27    0.25
  -2  -4  -9    0.27    0.27
   2   4   9    0.58    0.30
   2   4   9    0.41    0.37
   2   4   9    0.24    0.21
  -3  -4  -9    0.84    0.31
  -3  -4  -9    1.36    0.35
   3   4   9    1.16    0.38
   3   4   9    1.10    0.30
  -4  -4  -9    0.03    0.27
  -4  -4  -9   -0.20    0.26
   4   4   9   -0.22    0.28
   4   4   9   -0.01    0.31
  -5  -4  -9    0.09    0.31
  -5  -4  -9   -0.11    0.29
   5   4   9   -0.04    0.33
  -6  -4  -9   -0.31    0.28
   6   4   9   -0.12    0.39
  -6   5   9   -1.32    0.70
  -6   5   9   -0.55    0.48
   5  -5  -9    0.42    0.51
  -5   5   9   -0.98    0.58
  -5   5   9   -0.73    0.45
   4  -5  -9   -0.76    0.42
   4  -5  -9   -0.30    0.27
  -4   5   9   -0.35    0.35
   3  -5  -9   -0.03    0.42
   3  -5  -9    0.38    0.30
   3  -5  -9    0.24    0.15
  -3   5   9    0.08    0.46
  -3   5   9    0.24    0.50
   2  -5  -9   -0.09    0.29
   2  -5  -9   -0.10    0.15
   2  -5  -9   -0.20    0.27
  -2   5   9   -0.14    0.39
   1  -5  -9   -0.10    0.25
   1  -5  -9   -0.14    0.31
   1  -5  -9   -0.32    0.17
  -1   5   9   -0.49    0.39
   0  -5  -9    0.62    0.32
   0  -5  -9    0.23    0.28
   0  -5  -9    0.15    0.21
   0   5   9   -0.22    0.38
  -1  -5  -9    6.92    0.66
  -1  -5  -9    7.96    0.84
   1   5   9    8.37    0.74
  -2  -5  -9    0.39    0.27
  -2  -5  -9    0.53    0.32
   2   5   9    0.61    0.31
   2   5   9    0.62    0.40
  -3  -5  -9    0.34    0.30
  -3  -5  -9    0.01    0.28
   3   5   9    0.17    0.33
   3   5   9    0.31    0.34
  -4  -5  -9    1.71    0.40
  -4  -5  -9    2.18    0.44
   4   5   9    2.26    0.40
   4   5   9    2.22    0.46
  -5  -5  -9    0.11    0.33
  -5  -5  -9    0.07    0.33
   5   5   9   -0.19    0.34
   6  -6  -9    0.22    0.58
  -6   6   9   -0.25    0.51
  -5   6   9   -0.63    0.49
   4  -6  -9   -0.08    0.31
  -4   6   9   -0.56    0.56
  -4   6   9   -0.50    0.49
   3  -6  -9    0.30    0.19
   3  -6  -9    0.48    0.35
  -3   6   9    1.01    0.54
  -3   6   9    0.60    0.50
   2  -6  -9    2.34    0.43
  -2   6   9    2.74    0.60
  -2   6   9    2.85    0.59
   1  -6  -9   -0.21    0.21
   1  -6  -9   -0.25    0.28
  -1   6   9   -0.51    0.39
   0  -6  -9    0.04    0.28
   0  -6  -9   -0.09    0.21
   0   6   9    0.47    0.42
  -1  -6  -9   -0.02    0.25
  -1  -6  -9   -0.01    0.27
   1   6   9   -0.34    0.37
  -2  -6  -9    0.92    0.33
  -2  -6  -9    1.63    0.38
   2   6   9    1.30    0.46
  -3  -6  -9    0.00    0.29
  -3  -6  -9    0.26    0.32
   3   6   9    0.02    0.35
  -4  -6  -9    0.47    0.35
  -4  -6  -9    0.47    0.35
   4   6   9    0.47    0.34
  -5  -6  -9    0.38    0.33
   6  -7  -9    0.03    0.59
  -6   7   9    0.41    0.60
   5  -7  -9   -0.50    0.51
  -5   7   9   -0.41    0.53
  -5   7   9   -0.24    0.68
   4  -7  -9    0.11    0.33
   4  -7  -9   -0.28    0.51
  -4   7   9   -0.51    0.53
  -4   7   9   -0.15    0.57
   3  -7  -9    0.15    0.21
   3  -7  -9    0.81    0.37
   3  -7  -9    0.76    0.51
  -3   7   9    0.66    0.53
  -3   7   9    1.31    0.58
   2  -7  -9   -0.08    0.21
   2  -7  -9   -0.13    0.30
   2  -7  -9   -0.11    0.43
  -2   7   9    0.27    0.48
   1  -7  -9    0.44    0.41
   1  -7  -9    0.27    0.25
   1  -7  -9    0.26    0.32
  -1   7   9    0.42    0.51
   0  -7  -9    0.75    0.33
   0  -7  -9    1.64    0.40
   0   7   9    1.68    0.52
  -1  -7  -9    0.60    0.37
  -1  -7  -9    0.76    0.32
   1   7   9    0.97    0.49
  -2  -7  -9    1.60    0.42
  -2  -7  -9    0.89    0.39
   2   7   9    1.43    0.48
  -3  -7  -9    0.23    0.35
  -3  -7  -9   -0.11    0.31
   3   7   9    0.05    0.38
  -4  -7  -9    0.28    0.33
   4   7   9    0.16    0.31
  -6   8   9    0.00    0.59
   5  -8  -9   -0.09    0.56
  -5   8   9   -0.44    0.56
   4  -8  -9    0.02    0.53
  -4   8   9   -0.53    0.50
  -4   8   9    0.88    0.64
   3  -8  -9   -0.08    0.37
   3  -8  -9    0.34    0.50
   3  -8  -9   -0.16    0.21
  -3   8   9    0.15    0.54
   2  -8  -9    0.08    0.45
   2  -8  -9   -0.43    0.35
   2  -8  -9    0.02    0.25
  -2   8   9   -0.57    0.48
   1  -8  -9    0.39    0.29
   1  -8  -9   -0.22    0.33
  -1   8   9    0.51    0.56
   0  -8  -9   -0.42    0.34
   0  -8  -9    0.26    0.29
   0   8   9    0.30    0.46
  -1  -8  -9   -0.28    0.31
  -1  -8  -9   -0.14    0.32
   1   8   9   -0.42    0.45
  -2  -8  -9    0.20    0.32
  -2  -8  -9    0.21    0.34
   2   8   9   -0.14    0.44
  -3  -8  -9    0.02    0.35
   3   8   9   -0.31    0.35
   4  -9  -9    0.40    0.55
   3  -9  -9    0.23    0.38
   3  -9  -9    0.23    0.49
  -3   9   9    0.31    0.57
   2  -9  -9    2.39    0.59
   2  -9  -9    1.59    0.39
   2  -9  -9    1.38    0.49
  -2   9   9    2.08    0.64
   1  -9  -9   -0.09    0.35
   1  -9  -9   -0.19    0.27
  -1   9   9   -0.43    0.46
   0  -9  -9   -0.04    0.29
   0  -9  -9   -0.58    0.34
   0   9   9   -0.37    0.47
  -1  -9  -9    0.11    0.35
  -1  -9  -9   -0.08    0.38
  -2  -9  -9   -0.45    0.34
  -2  -9  10    0.57    0.55
  -2  -9  10   -0.90    0.45
   1   9 -10    0.87    0.35
   1   9 -10    1.76    0.60
  -1  -9  10    2.10    0.68
   0   9 -10    0.00    0.50
   0   9 -10   -0.06    0.35
   0  -9  10    0.62    0.59
  -1   9 -10   -0.40    0.36
  -1   9 -10    0.40    0.51
   1  -9  10    0.55    0.59
  -2   9 -10    0.79    0.50
   3   8 -10    1.85    0.61
  -3  -8  10    0.32    0.53
   2   8 -10    0.39    0.51
  -2  -8  10    0.35    0.52
  -2  -8  10   -0.82    0.46
   1   8 -10   -0.05    0.28
   1   8 -10    0.30    0.39
  -1  -8  10   -0.74    0.45
  -1  -8  10    0.44    0.54
   0   8 -10    3.13    0.57
   0   8 -10    2.14    0.48
   0  -8  10    3.55    0.71
  -1   8 -10    2.08    0.55
  -1   8 -10    0.81    0.42
   1  -8  10    1.43    0.51
   1  -8  10    0.37    0.42
  -2   8 -10    3.65    0.63
   2  -8  10    4.44    0.78
  -3   8 -10   -0.48    0.40
  -5  -7  10    1.82    0.60
   4   7 -10    0.59    0.52
  -4  -7  10    0.29    0.51
  -4  -7  10    0.92    0.46
   3   7 -10   -0.36    0.42
  -3  -7  10   -0.82    0.43
  -3  -7  10    0.20    0.49
   2   7 -10    0.62    0.49
  -2  -7  10    0.55    0.51
  -2  -7  10   -0.47    0.39
   1   7 -10    0.22    0.30
   1   7 -10    0.47    0.37
  -1  -7  10    0.17    0.49
  -1  -7  10   -0.07    0.39
   0   7 -10    0.23    0.31
   0   7 -10    0.61    0.36
   0  -7  10    0.68    0.51
   0  -7  10   -0.16    0.36
  -1   7 -10    0.25    0.41
  -1   7 -10   -0.54    0.33
   1  -7  10   -0.30    0.47
  -2   7 -10    0.33    0.22
  -2   7 -10    0.71    0.41
  -2   7 -10    0.08    0.36
   2  -7  10    0.12    0.30
   2  -7  10    0.78    0.53
  -3   7 -10    0.21    0.24
  -3   7 -10   -0.55    0.36
   3  -7  10    0.53    0.50
  -4   7 -10    0.43    0.30
  -4   7 -10   -0.44    0.40
   4  -7  10    0.45    0.53
  -5   7 -10    0.79    0.36
  -6  -6  10    0.70    0.63
   5   6 -10    1.38    0.56
  -5  -6  10    0.27    0.51
  -5  -6  10    0.88    0.51
   4   6 -10   -0.14    0.46
  -4  -6  10   -0.68    0.42
  -4  -6  10    0.16    0.42
  -4  -6  10    0.07    0.47
   3   6 -10    2.14    0.57
  -3  -6  10    2.09    0.48
  -3  -6  10    1.72    0.56
  -3  -6  10    0.78    0.49
   2   6 -10    1.05    0.48
   2   6 -10    0.92    0.33
  -2  -6  10    1.23    0.47
  -2  -6  10    0.30    0.42
   1   6 -10    0.04    0.40
   1   6 -10   -0.14    0.28
  -1  -6  10   -0.36    0.35
  -1  -6  10   -0.33    0.44
   0   6 -10    0.18    0.30
   0   6 -10    0.58    0.42
   0  -6  10    0.56    0.49
   0  -6  10   -0.05    0.34
  -1   6 -10    6.29    0.74
  -1   6 -10    4.88    0.46
  -1   6 -10    3.56    0.52
   1  -6  10    5.33    0.82
   1  -6  10    4.70    0.77
  -2   6 -10    2.78    0.50
  -2   6 -10    3.57    0.49
  -2   6 -10    2.09    0.47
   2  -6  10    3.56    0.64
  -3   6 -10    0.02    0.36
  -3   6 -10    0.53    0.26
   3  -6  10    0.49    0.49
  -4   6 -10    0.09    0.26
   4  -6  10    0.40    0.49
  -5   6 -10    0.14    0.30
   5  -6  10    0.46    0.47
   6   5 -10    1.22    0.57
  -6  -5  10    2.03    0.68
  -6  -5  10    0.05    0.53
   5   5 -10    0.93    0.51
  -5  -5  10    0.72    0.57
  -5  -5  10    0.07    0.48
   4   5 -10    2.38    0.58
  -4  -5  10    2.18    0.56
  -4  -5  10    1.77    0.54
   3   5 -10    0.50    0.43
  -3  -5  10    0.90    0.51
  -3  -5  10    0.73    0.39
  -3  -5  10    0.27    0.41
   2   5 -10    2.38    0.41
   2   5 -10    2.93    0.56
  -2  -5  10    2.98    0.62
  -2  -5  10    3.35    0.51
  -2  -5  10    1.65    0.48
   1   5 -10   -0.04    0.12
   1   5 -10   -0.21    0.24
   1   5 -10   -0.10    0.28
  -1  -5  10   -0.37    0.31
  -1  -5  10    0.30    0.37
   0   5 -10   -0.14    0.26
   0   5 -10   -0.01    0.15
   0   5 -10   -0.14    0.28
   0  -5  10    0.20    0.44
   0  -5  10   -0.35    0.29
  -1   5 -10    4.36    0.71
  -1   5 -10    5.46    0.68
  -1   5 -10    5.24    0.48
   1  -5  10    5.20    0.77
  -2   5 -10    0.12    0.33
  -2   5 -10    1.04    0.38
  -2   5 -10    0.70    0.25
   2  -5  10    1.29    0.48
  -3   5 -10    0.05    0.36
  -3   5 -10    0.36    0.24
   3  -5  10    0.16    0.42
  -4   5 -10    0.02    0.27
  -4   5 -10   -0.47    0.34
   4  -5  10   -0.03    0.43
  -5   5 -10   -0.02    0.30
  -5   5 -10   -0.52    0.39
   5  -5  10   -0.04    0.45
   5  -5  10   -0.07    0.37
   6  -5  10    0.11    0.46
   6  -5  10   -0.12    0.40
   7   4 -10    1.30    0.68
  -7  -4  10    1.99    0.74
  -7  -4  10    0.02    0.59
   6   4 -10    1.92    0.65
  -6  -4  10    0.86    0.57
  -6  -4  10    0.04    0.53
   5   4 -10    1.00    0.53
  -5  -4  10    0.78    0.55
  -5  -4  10    0.25    0.48
   4   4 -10    1.09    0.47
  -4  -4  10    0.86    0.47
  -4  -4  10    0.98    0.49
  -4  -4  10   -0.05    0.42
   3   4 -10    3.47    0.54
  -3  -4  10    2.24    0.53
  -3  -4  10    2.65    0.48
  -3  -4  10    3.28    0.61
   2   4 -10    0.47    0.17
   2   4 -10    0.57    0.43
   2   4 -10    0.12    0.26
  -2  -4  10    0.49    0.29
  -2  -4  10    0.05    0.46
  -2  -4  10    0.04    0.35
   1   4 -10    3.10    0.34
   1   4 -10    3.29    0.50
   1   4 -10    2.56    0.40
  -1  -4  10    3.10    0.60
  -1  -4  10    1.80    0.46
  -1  -4  10    2.87    0.39
   0   4 -10    2.01    0.38
   0   4 -10    2.58    0.44
   0   4 -10    1.84    0.28
   0  -4  10    1.57    0.42
   0  -4  10    2.56    0.57
  -1   4 -10   -0.11    0.26
  -1   4 -10    0.21    0.20
  -1   4 -10    0.36    0.34
   1  -4  10   -0.06    0.40
   1  -4  10    0.05    0.28
  -2   4 -10    1.69    0.40
  -2   4 -10    1.52    0.29
  -2   4 -10    1.13    0.36
   2  -4  10    2.76    0.56
  -3   4 -10   -0.50    0.30
  -3   4 -10   -0.16    0.23
   3  -4  10    0.09    0.39
  -4   4 -10    0.21    0.27
  -4   4 -10   -0.12    0.35
   4  -4  10    0.38    0.30
   4  -4  10    0.33    0.40
  -5   4 -10    0.79    0.37
  -5   4 -10    0.13    0.39
   5  -4  10    0.80    0.40
   5  -4  10    1.03    0.49
  -6   4 -10    0.19    0.40
   6  -4  10   -0.24    0.37
   6  -4  10   -0.37    0.40
   7   3 -10    0.83    0.63
  -7  -3  10    0.93    0.55
  -7  -3  10   -0.55    0.56
  -7  -3  10    0.86    0.66
   6   3 -10   -0.27    0.51
  -6  -3  10    0.25    0.46
  -6  -3  10   -0.23    0.49
   5   3 -10    0.51    0.48
  -5  -3  10    0.09    0.44
  -5  -3  10   -0.34    0.44
  -5  -3  10   -0.01    0.44
  -5  -3  10    0.84    0.46
   4   3 -10    0.16    0.17
   4   3 -10   -0.20    0.40
  -4  -3  10    0.12    0.41
  -4  -3  10    0.11    0.36
  -4  -3  10   -0.37    0.39
  -4  -3  10    0.35    0.43
   3   3 -10    1.80    0.49
   3   3 -10    0.94    0.20
  -3  -3  10    1.22    0.39
  -3  -3  10    2.19    0.54
  -3  -3  10    0.91    0.42
   2   3 -10    3.48    0.38
   2   3 -10    4.00    0.57
   2   3 -10    4.16    0.58
  -2  -3  10    3.99    0.63
  -2  -3  10    2.33    0.49
  -2  -3  10    3.82    0.50
   1   3 -10   -0.14    0.15
   1   3 -10    0.02    0.23
   1   3 -10   -0.44    0.33
  -1  -3  10   -0.14    0.19
  -1  -3  10   -0.51    0.29
   0   3 -10    2.22    0.46
   0   3 -10    2.64    0.39
   0   3 -10    2.32    0.38
   0  -3  10    2.80    0.50
   0  -3  10    1.56    0.40
  -1   3 -10   -0.17    0.24
  -1   3 -10   -0.12    0.28
  -1   3 -10   -0.14    0.17
   1  -3  10   -0.31    0.36
  -2   3 -10   -0.04    0.30
  -2   3 -10   -0.34    0.23
  -2   3 -10   -0.14    0.19
   2  -3  10   -0.36    0.35
  -3   3 -10    0.04    0.25
  -3   3 -10   -0.46    0.28
   3  -3  10   -0.11    0.30
   3  -3  10   -0.52    0.40
  -4   3 -10   -0.17    0.25
  -4   3 -10   -0.34    0.30
   4  -3  10   -0.22    0.30
   4  -3  10   -0.61    0.33
  -5   3 -10   -0.19    0.36
  -5   3 -10    0.00    0.31
   5  -3  10   -0.16    0.38
   5  -3  10   -0.05    0.35
  -6   3 -10    0.87    0.43
  -6   3 -10    0.24    0.39
   6  -3  10    1.16    0.44
   6  -3  10    0.82    0.43
  -8  -2  10   -0.28    0.56
   7   2 -10   -0.45    0.53
  -7  -2  10   -0.33    0.50
  -7  -2  10   -0.15    0.55
   6   2 -10    0.17    0.48
  -6  -2  10    0.40    0.46
  -6  -2  10   -0.33    0.47
  -6  -2  10    0.03    0.51
   5   2 -10    0.31    0.44
  -5  -2  10   -0.10    0.41
  -5  -2  10   -0.15    0.42
  -5  -2  10   -0.18    0.41
  -5  -2  10    0.30    0.44
   4   2 -10   -0.09    0.17
   4   2 -10    0.24    0.41
  -4  -2  10    0.02    0.44
  -4  -2  10   -0.37    0.38
  -4  -2  10    0.10    0.39
  -4  -2  10   -0.17    0.35
   3   2 -10    1.13    0.23
   3   2 -10    1.66    0.47
  -3  -2  10    0.87    0.41
  -3  -2  10    1.22    0.39
  -3  -2  10    1.06    0.48
  -3  -2  10    1.38    0.43
   2   2 -10    0.23    0.17
   2   2 -10   -0.37    0.36
  -2  -2  10   -0.39    0.34
  -2  -2  10   -0.04    0.26
  -2  -2  10   -0.08    0.26
  -2  -2  10   -0.46    0.40
   1   2 -10    1.11    0.42
   1   2 -10    1.28    0.24
   1   2 -10    1.20    0.30
  -1  -2  10    0.92    0.37
  -1  -2  10    1.41    0.43
  -1  -2  10    1.19    0.28
   0   2 -10   11.10    0.64
   0   2 -10   10.31    0.75
   0   2 -10   11.71    0.79
   0  -2  10   10.53    0.51
   0  -2  10   11.92    0.88
  -1   2 -10    0.92    0.27
  -1   2 -10    0.59    0.29
  -1   2 -10    1.53    0.38
   1  -2  10    0.93    0.29
   1  -2  10    1.37    0.45
  -2   2 -10   -0.09    0.24
  -2   2 -10   -0.18    0.20
   2  -2  10   -0.49    0.22
   2  -2  10   -0.42    0.33
  -3   2 -10    0.01    0.23
   3  -2  10   -0.52    0.26
   3  -2  10   -0.48    0.37
  -4   2 -10   -0.10    0.26
  -4   2 -10   -0.45    0.27
   4  -2  10   -0.41    0.37
   4  -2  10   -0.13    0.24
  -5   2 -10    0.86    0.37
  -5   2 -10    0.67    0.40
   5  -2  10    0.74    0.40
   5  -2  10    1.34    0.43
  -6   2 -10   -0.30    0.34
  -6   2 -10   -0.11    0.37
   6  -2  10   -0.33    0.32
   6  -2  10    0.10    0.39
  -8  -1  10   -0.25    0.55
   7   1 -10    0.26    0.52
  -7  -1  10    1.02    0.54
  -7  -1  10   -0.84    0.50
  -7  -1  10    0.90    0.63
   6   1 -10   -0.36    0.44
  -6  -1  10    0.06    0.50
  -6  -1  10    0.06    0.51
   5   1 -10    0.36    0.45
  -5  -1  10    0.03    0.44
  -5  -1  10    0.53    0.45
  -5  -1  10   -0.47    0.41
  -5  -1  10    0.11    0.44
   4   1 -10   -0.04    0.41
   4   1 -10    0.12    0.20
  -4  -1  10    0.07    0.38
  -4  -1  10   -0.33    0.38
  -4  -1  10   -0.10    0.33
  -4  -1  10    0.27    0.39
   3   1 -10    0.25    0.21
   3   1 -10   -0.07    0.37
  -3  -1  10   -0.08    0.34
  -3  -1  10    0.19    0.35
  -3  -1  10   -0.35    0.35
  -3  -1  10   -0.33    0.29
   2   1 -10    1.76    0.27
   2   1 -10    2.10    0.48
  -2  -1  10    0.81    0.36
  -2  -1  10    1.42    0.25
  -2  -1  10    1.10    0.41
  -2  -1  10    1.97    0.52
  -2  -1  10    1.52    0.44
   1   1 -10    1.55    0.31
   1   1 -10    2.42    0.47
   1   1 -10    1.42    0.27
  -1  -1  10    1.45    0.35
  -1  -1  10    1.99    0.44
  -1  -1  10    1.40    0.27
   0   1 -10    0.03    0.25
   0   1 -10    0.54    0.34
   0   1 -10    0.16    0.23
   0  -1  10    0.41    0.20
   0  -1  10    0.80    0.24
   0  -1  10    0.64    0.34
  -1   1 -10    0.48    0.32
  -1   1 -10   -0.11    0.23
  -1   1 -10   -0.36    0.23
   1  -1  10    0.16    0.24
   1  -1  10   -0.02    0.36
  -2   1 -10    0.79    0.31
  -2   1 -10    0.33    0.27
  -2   1 -10    0.37    0.26
   2  -1  10    0.70    0.38
   2  -1  10    0.42    0.28
  -3   1 -10   -0.34    0.24
  -3   1 -10   -0.14    0.23
   3  -1  10   -0.44    0.27
   3  -1  10   -0.07    0.37
  -4   1 -10    0.24    0.31
  -4   1 -10   -0.05    0.29
   4  -1  10    0.10    0.32
   4  -1  10   -0.05    0.37
  -5   1 -10    0.53    0.38
  -5   1 -10    1.05    0.39
   5  -1  10    0.89    0.38
   5  -1  10    0.30    0.37
  -6   1 -10    0.16    0.34
  -6   1 -10    0.18    0.37
   6  -1  10    0.17    0.33
   6  -1  10   -0.40    0.34
  -8   0  10    0.65    0.56
   7   0 -10    0.01    0.51
  -7   0  10    0.35    0.51
  -7   0  10    0.04    0.62
   6   0 -10    0.49    0.50
  -6   0  10    0.79    0.47
  -6   0  10   -0.35    0.43
  -6   0  10    0.46    0.44
  -6   0  10    0.58    0.56
   5   0 -10    0.47    0.46
  -5   0  10   -0.36    0.43
  -5   0  10   -0.27    0.47
  -5   0  10    1.09    0.47
  -5   0  10    0.70    0.45
   4   0 -10    0.07    0.21
   4   0 -10    0.41    0.44
  -4   0  10   -0.19    0.37
  -4   0  10   -0.67    0.35
  -4   0  10    0.04    0.43
  -4   0  10   -0.69    0.34
   3   0 -10    0.79    0.26
   3   0 -10    1.59    0.45
  -3   0  10    0.66    0.40
  -3   0  10    0.76    0.38
  -3   0  10    0.93    0.40
  -3   0  10    0.91    0.39
   2   0 -10   47.93    1.61
   2   0 -10   40.80    1.41
  -2   0  10   44.23    1.55
  -2   0  10   46.27    1.66
  -2   0  10   38.52    1.57
   1   0 -10   67.95    2.02
   1   0 -10   68.73    2.20
   1   0 -10   77.24    2.20
  -1   0  10   68.13    1.74
  -1   0  10   67.07    2.23
  -1   0  10   77.95    2.27
  -1   0  10   72.31    2.14
   0   0 -10    1.81    0.33
   0   0 -10    3.78    0.57
   0   0  10    2.39    0.42
   0   0  10    2.85    0.40
   0   0  10    2.90    0.37
   0   0  10    2.51    0.51
  -1   0 -10    3.50    0.50
  -1   0 -10    2.30    0.36
  -1   0 -10    2.54    0.41
   1   0  10    2.31    0.47
   1   0  10    2.40    0.35
  -2   0 -10   -0.11    0.24
  -2   0 -10    0.07    0.29
  -2   0 -10    0.16    0.24
   2   0  10    0.17    0.26
   2   0  10   -0.05    0.33
  -3   0 -10    0.88    0.31
  -3   0 -10    0.90    0.31
   3   0  10    1.74    0.44
   3   0  10    1.32    0.37
  -4   0 -10    7.61    0.75
  -4   0 -10    5.75    0.68
   4   0  10    8.32    0.73
   4   0  10    6.91    0.67
  -5   0 -10    0.72    0.36
  -5   0 -10   -0.12    0.27
   5   0  10    0.35    0.32
   5   0  10    0.22    0.29
  -6   0 -10    0.45    0.42
  -6   0 -10    0.28    0.35
   6   0  10    0.17    0.38
   8  -1 -10   -0.25    0.48
  -8   1  10   -0.42    0.57
   7  -1 -10    0.20    0.51
  -7   1  10   -0.36    0.60
  -7   1  10    0.19    0.51
  -7   1  10   -0.69    0.45
   6  -1 -10    0.58    0.56
  -6   1  10   -0.06    0.43
  -6   1  10   -0.44    0.52
  -6   1  10    0.15    0.47
  -6   1  10   -0.80    0.40
   5  -1 -10   -0.15    0.25
   5  -1 -10    0.21    0.45
  -5   1  10    0.58    0.45
  -5   1  10   -0.05    0.41
  -5   1  10    0.00    0.47
  -5   1  10    0.38    0.45
   4  -1 -10    9.67    0.84
   4  -1 -10    6.98    0.63
  -4   1  10    6.91    0.88
  -4   1  10    6.87    0.84
  -4   1  10    8.71    0.85
  -4   1  10    8.76    0.78
   3  -1 -10    1.76    0.41
   3  -1 -10    2.20    0.34
   3  -1 -10    1.07    0.31
  -3   1  10    2.50    0.52
  -3   1  10    1.76    0.49
  -3   1  10    1.78    0.47
   2  -1 -10    1.30    0.38
   2  -1 -10    0.74    0.29
  -2   1  10   -0.28    0.41
  -2   1  10    1.09    0.42
  -2   1  10    1.67    0.50
   1  -1 -10    0.26    0.37
   1  -1 -10   -0.03    0.22
  -1   1  10   -0.01    0.33
  -1   1  10   -0.10    0.19
  -1   1  10    0.40    0.41
  -1   1  10   -0.20    0.31
   0  -1 -10    4.93    0.54
   0  -1 -10    5.67    0.56
   0  -1 -10    5.22    0.61
   0   1  10    4.91    0.69
   0   1  10    5.37    0.58
   0   1  10    4.73    0.42
  -1  -1 -10    5.37    0.53
  -1  -1 -10    5.89    0.58
  -1  -1 -10    5.80    0.58
   1   1  10    5.73    0.67
   1   1  10    5.51    0.51
   1   1  10    5.45    0.48
  -2  -1 -10    1.08    0.32
  -2  -1 -10    0.87    0.27
  -2  -1 -10    1.52    0.34
   2   1  10    1.38    0.34
   2   1  10    1.19    0.40
  -3  -1 -10    0.39    0.28
  -3  -1 -10    0.26    0.26
   3   1  10    0.29    0.33
   3   1  10    0.39    0.30
  -4  -1 -10    1.65    0.40
  -4  -1 -10    1.20    0.33
   4   1  10    1.73    0.42
   4   1  10    1.70    0.41
  -5  -1 -10    0.01    0.29
  -5  -1 -10    0.08    0.33
   5   1  10    0.09    0.35
   5   1  10    0.19    0.31
  -6  -1 -10    0.00    0.37
  -6  -1 -10   -0.43    0.26
   6   1  10    0.02    0.37
   8  -2 -10    0.06    0.45
   7  -2 -10    0.01    0.52
  -7   2  10   -0.54    0.65
   6  -2 -10    0.01    0.49
  -6   2  10    0.02    0.45
  -6   2  10   -0.95    0.57
   5  -2 -10   -0.47    0.28
   5  -2 -10    0.21    0.46
  -5   2  10    0.21    0.46
  -5   2  10   -0.70    0.48
   4  -2 -10    2.18    0.39
   4  -2 -10    3.06    0.60
  -4   2  10    3.29    0.60
  -4   2  10    2.15    0.58
   3  -2 -10   13.42    0.80
   3  -2 -10   15.06    1.00
   3  -2 -10   12.55    0.65
  -3   2  10   15.00    1.02
  -3   2  10   13.45    0.99
   2  -2 -10    3.05    0.42
   2  -2 -10    4.37    0.47
   2  -2 -10    2.54    0.54
  -2   2  10    3.33    0.56
  -2   2  10    2.94    0.59
   1  -2 -10    0.44    0.29
   1  -2 -10    0.76    0.28
  -1   2  10    0.51    0.21
  -1   2  10    0.18    0.33
  -1   2  10    0.40    0.37
  -1   2  10    0.80    0.46
   0  -2 -10    3.84    0.46
   0  -2 -10    4.06    0.62
   0  -2 -10    2.73    0.39
   0   2  10    3.66    0.56
   0   2  10    3.50    0.38
   0   2  10    4.29    0.53
  -1  -2 -10    1.58    0.36
  -1  -2 -10    0.95    0.23
  -1  -2 -10    1.15    0.33
   1   2  10    1.39    0.32
   1   2  10    1.56    0.44
   1   2  10    1.63    0.32
  -2  -2 -10    1.32    0.27
  -2  -2 -10    1.54    0.36
   2   2  10    1.67    0.35
   2   2  10    1.92    0.47
  -3  -2 -10    0.68    0.33
  -3  -2 -10    0.31    0.23
   3   2  10    0.31    0.31
   3   2  10    0.43    0.37
  -4  -2 -10    0.07    0.23
  -4  -2 -10    0.36    0.33
   4   2  10    0.01    0.31
   4   2  10    0.01    0.34
  -5  -2 -10    0.50    0.35
   5   2  10   -0.29    0.26
   5   2  10   -0.19    0.36
   6   2  10    0.40    0.44
   8  -3 -10   -0.36    0.47
   7  -3 -10   -0.13    0.50
   6  -3 -10    1.70    0.59
  -6   3  10   -0.21    0.65
  -6   3  10    1.49    0.54
   5  -3 -10    0.60    0.35
   5  -3 -10    0.72    0.54
  -5   3  10    0.58    0.50
  -5   3  10   -0.03    0.60
   4  -3 -10    0.42    0.32
   4  -3 -10   -0.54    0.49
  -4   3  10    0.33    0.56
  -4   3  10   -0.22    0.49
   3  -3 -10   -0.81    0.44
   3  -3 -10   -0.14    0.12
   3  -3 -10   -0.19    0.27
  -3   3  10   -0.46    0.41
   2  -3 -10    0.62    0.31
   2  -3 -10    0.38    0.16
   2  -3 -10    0.40    0.42
  -2   3  10   -0.43    0.46
  -2   3  10    0.41    0.41
   1  -3 -10    0.47    0.37
   1  -3 -10    0.13    0.25
   1  -3 -10    0.44    0.18
  -1   3  10   -0.09    0.33
  -1   3  10    0.10    0.33
  -1   3  10    0.14    0.19
   0  -3 -10    1.81    0.40
   0  -3 -10    1.56    0.36
   0   3  10    1.44    0.34
   0   3  10    1.48    0.47
   0   3  10    1.79    0.30
  -1  -3 -10    1.58    0.36
  -1  -3 -10    1.30    0.23
  -1  -3 -10    1.56    0.35
   1   3  10    1.67    0.46
   1   3  10    1.75    0.33
   1   3  10    1.76    0.33
  -2  -3 -10    0.52    0.20
  -2  -3 -10    0.81    0.32
   2   3  10    0.65    0.24
   2   3  10    0.52    0.42
   2   3  10    0.69    0.32
  -3  -3 -10    0.16    0.29
   3   3  10   -0.03    0.34
   3   3  10   -0.10    0.29
  -4  -3 -10    0.61    0.34
   4   3  10    0.55    0.31
   4   3  10    0.42    0.34
  -5  -3 -10    0.64    0.36
   5   3  10    0.67    0.43
   6   3  10    0.03    0.39
   7  -4 -10    0.97    0.61
   6  -4 -10   -0.16    0.51
   5  -4 -10   -0.46    0.51
   5  -4 -10   -0.11    0.31
  -5   4  10   -0.46    0.48
  -5   4  10   -1.18    0.57
   4  -4 -10   -0.16    0.30
   4  -4 -10   -0.31    0.50
  -4   4  10   -0.54    0.47
  -4   4  10   -0.66    0.52
   3  -4 -10   -0.33    0.27
   3  -4 -10   -0.66    0.42
   3  -4 -10   -0.24    0.12
  -3   4  10   -0.99    0.47
  -3   4  10   -0.54    0.47
   2  -4 -10    0.17    0.16
   2  -4 -10    0.08    0.28
   2  -4 -10   -0.06    0.39
  -2   4  10   -0.20    0.40
  -2   4  10   -0.58    0.43
   1  -4 -10    0.06    0.19
   1  -4 -10   -0.15    0.29
   1  -4 -10    0.17    0.36
  -1   4  10   -0.11    0.35
  -1   4  10   -0.33    0.43
   0  -4 -10    1.83    0.40
   0  -4 -10    1.20    0.34
   0   4  10    1.29    0.48
   0   4  10    1.56    0.30
  -1  -4 -10    0.06    0.26
  -1  -4 -10    0.55    0.30
   1   4  10    0.51    0.27
   1   4  10    0.42    0.29
   1   4  10   -0.04    0.37
  -2  -4 -10    0.03    0.28
  -2  -4 -10    0.03    0.27
   2   4  10   -0.26    0.33
   2   4  10   -0.05    0.28
  -3  -4 -10    0.02    0.29
  -3  -4 -10    0.28    0.31
   3   4  10    0.10    0.31
   3   4  10   -0.14    0.34
  -4  -4 -10    0.17    0.33
  -4  -4 -10    0.47    0.35
   4   4  10    0.48    0.35
   4   4  10    0.28    0.37
  -5  -4 -10    0.31    0.36
  -5  -4 -10    0.08    0.33
   5   4  10   -0.07    0.38
  -6   5  10   -0.94    0.50
   5  -5 -10    0.12    0.53
  -5   5  10   -1.12    0.51
   4  -5 -10   -0.49    0.29
   4  -5 -10   -0.60    0.47
  -4   5  10   -0.85    0.54
   3  -5 -10   -0.15    0.29
   3  -5 -10   -0.11    0.13
   3  -5 -10   -0.21    0.43
  -3   5  10   -0.69    0.48
  -3   5  10   -0.35    0.49
   2  -5 -10    2.31    0.43
   2  -5 -10    2.22    0.52
  -2   5  10    2.54    0.59
  -2   5  10    2.43    0.58
   1  -5 -10    0.39    0.38
   1  -5 -10    0.36    0.31
   1  -5 -10    0.00    0.19
  -1   5  10    0.28    0.45
   0  -5 -10    0.14    0.29
   0  -5 -10    0.49    0.34
   0  -5 -10    0.03    0.23
   0   5  10    0.26    0.43
  -1  -5 -10    0.85    0.37
  -1  -5 -10    0.42    0.26
   1   5  10    0.98    0.49
  -2  -5 -10   -0.04    0.25
  -2  -5 -10   -0.12    0.28
   2   5  10   -0.43    0.34
   2   5  10   -0.15    0.30
  -3  -5 -10    0.20    0.31
  -3  -5 -10   -0.14    0.30
   3   5  10    0.27    0.35
   3   5  10   -0.40    0.34
  -4  -5 -10   -0.25    0.30
  -4  -5 -10   -0.13    0.33
   4   5  10    0.16    0.36
   4   5  10   -0.17    0.32
   5   5  10    0.79    0.45
  -6   6  10   -0.53    0.56
  -5   6  10   -0.46    0.51
   4  -6 -10    0.30    0.35
  -4   6  10    0.29    0.55
  -4   6  10   -0.45    0.60
   3  -6 -10    0.03    0.18
   3  -6 -10    0.04    0.32
  -3   6  10   -0.53    0.50
  -3   6  10   -0.17    0.55
   2  -6 -10   -0.06    0.31
   2  -6 -10   -0.02    0.19
  -2   6  10   -0.31    0.47
   1  -6 -10    2.28    0.45
   1  -6 -10    1.29    0.30
  -1   6  10    2.53    0.59
   0  -6 -10   -0.22    0.24
   0  -6 -10   -0.10    0.29
   0   6  10    0.07    0.44
  -1  -6 -10    0.05    0.26
  -1  -6 -10   -0.02    0.33
   1   6  10    0.30    0.42
  -2  -6 -10    1.93    0.42
  -2  -6 -10    2.19    0.46
   2   6  10    2.57    0.51
  -3  -6 -10   -0.19    0.36
  -3  -6 -10    0.04    0.31
   3   6  10    0.04    0.38
  -4  -6 -10    0.10    0.33
   4   6  10    0.41    0.36
  -6   7  10   -0.83    0.57
   5  -7 -10   -0.70    0.56
  -5   7  10   -0.97    0.68
  -5   7  10   -0.47    0.58
   4  -7 -10    0.41    0.57
   4  -7 -10    0.16    0.37
  -4   7  10    0.55    0.61
  -4   7  10    0.52    0.64
   3  -7 -10   -0.22    0.49
   3  -7 -10    0.20    0.35
  -3   7  10    0.41    0.57
  -3   7  10    0.48    0.53
   2  -7 -10   -0.11    0.37
   2  -7 -10    0.10    0.46
   2  -7 -10    0.12    0.23
  -2   7  10    0.07    0.52
   1  -7 -10   -0.18    0.35
   1  -7 -10   -0.14    0.24
   1  -7 -10   -0.30    0.41
  -1   7  10   -0.30    0.47
   0  -7 -10    0.23    0.35
   0  -7 -10    0.20    0.28
   0   7  10    1.32    0.58
  -1  -7 -10    0.18    0.30
  -1  -7 -10   -0.09    0.34
   1   7  10    0.19    0.49
  -2  -7 -10    0.20    0.31
  -2  -7 -10    0.00    0.35
   2   7  10   -0.18    0.46
  -3  -7 -10    0.16    0.35
   3   7  10    0.45    0.44
   4  -8 -10   -0.38    0.57
  -4   8  10   -1.00    0.55
   3  -8 -10   -0.22    0.36
   3  -8 -10    0.00    0.55
  -3   8  10   -0.52    0.53
   2  -8 -10    0.47    0.26
   2  -8 -10    0.06    0.38
   2  -8 -10    0.76    0.55
  -2   8  10    0.63    0.58
   1  -8 -10    0.23    0.28
   1  -8 -10   -0.27    0.39
  -1   8  10    0.66    0.57
   0  -8 -10    1.09    0.43
   0  -8 -10    0.43    0.32
   0   8  10    1.37    0.62
  -1  -8 -10    0.37    0.34
  -1  -8 -10    0.51    0.38
   1   8  10    0.63    0.51
  -2  -8 -10   -0.40    0.33
   3  -9 -10   -0.05    0.52
   2  -9 -10   -0.07    0.27
   1  -9 -10    0.35    0.34
   2   8 -11    2.54    0.68
  -2  -8  11    2.30    0.70
   1   8 -11    1.43    0.49
   1   8 -11    1.10    0.42
  -1  -8  11    2.12    0.68
   0   8 -11    0.72    0.39
   0   8 -11    1.46    0.56
   0  -8  11   -0.15    0.44
   0  -8  11    2.04    0.60
  -1   8 -11    2.47    0.61
  -1   8 -11    1.21    0.48
   1  -8  11    2.42    0.70
  -2   8 -11    0.53    0.47
   3   7 -11    0.19    0.53
  -3  -7  11    0.33    0.56
  -3  -7  11   -0.89    0.47
   2   7 -11    1.34    0.55
  -2  -7  11    1.12    0.61
   1   7 -11    2.57    0.55
   1   7 -11    1.99    0.44
  -1  -7  11    3.16    0.70
   0   7 -11    2.81    0.61
   0   7 -11    1.89    0.47
   0  -7  11    4.00    0.75
   0  -7  11    1.02    0.47
  -1   7 -11    1.03    0.51
  -1   7 -11    0.40    0.38
   1  -7  11    0.50    0.56
   1  -7  11   -0.28    0.35
  -2   7 -11   -0.12    0.39
  -2   7 -11    0.61    0.47
   2  -7  11    0.66    0.58
  -4   7 -11    1.72    0.39
  -5  -6  11    0.25    0.48
   4   6 -11   -0.32    0.54
  -4  -6  11   -0.72    0.46
   3   6 -11    0.09    0.48
  -3  -6  11    0.03    0.53
  -3  -6  11   -0.68    0.45
   2   6 -11   -0.24    0.45
  -2  -6  11    0.07    0.52
   1   6 -11   -0.04    0.29
   1   6 -11    0.43    0.47
  -1  -6  11    0.89    0.57
  -1  -6  11   -0.46    0.37
   0   6 -11    0.08    0.31
   0   6 -11   -0.16    0.41
   0  -6  11   -0.12    0.49
  -1   6 -11    0.36    0.41
  -1   6 -11   -0.02    0.34
   1  -6  11    0.56    0.53
   1  -6  11   -0.22    0.33
  -2   6 -11    0.84    0.28
  -2   6 -11    0.34    0.39
  -2   6 -11    1.78    0.50
   2  -6  11    1.60    0.60
  -3   6 -11    0.76    0.44
  -3   6 -11    0.94    0.31
   3  -6  11    1.73    0.59
  -4   6 -11    0.22    0.29
  -6  -5  11    2.23    0.67
   5   5 -11    1.00    0.57
  -5  -5  11    1.06    0.50
   4   5 -11    0.84    0.56
  -4  -5  11    1.21    0.56
  -4  -5  11    0.12    0.49
  -4  -5  11    1.22    0.44
   3   5 -11   -0.66    0.44
  -3  -5  11   -0.23    0.47
  -3  -5  11   -0.04    0.33
  -3  -5  11   -0.47    0.40
   2   5 -11    0.08    0.28
   2   5 -11   -0.30    0.41
  -2  -5  11   -0.64    0.48
  -2  -5  11   -0.69    0.37
   1   5 -11    0.73    0.43
   1   5 -11    0.46    0.31
  -1  -5  11   -0.37    0.39
  -1  -5  11    0.62    0.54
   0   5 -11    1.66    0.27
   0   5 -11    2.56    0.49
   0   5 -11    1.50    0.38
   0  -5  11    1.14    0.43
   0  -5  11    2.65    0.64
  -1   5 -11    0.75    0.37
  -1   5 -11    1.69    0.47
  -1   5 -11    1.05    0.26
   1  -5  11    1.83    0.57
  -2   5 -11    0.84    0.41
  -2   5 -11    0.35    0.26
  -2   5 -11   -0.17    0.32
   2  -5  11    0.69    0.52
  -3   5 -11   -0.24    0.36
  -3   5 -11    0.61    0.29
   3  -5  11    0.63    0.50
  -4   5 -11    0.35    0.42
  -4   5 -11    1.09    0.35
   4  -5  11    0.91    0.47
   4  -5  11    2.17    0.63
  -5   5 -11    0.65    0.38
   5  -5  11    0.45    0.43
   6   4 -11    0.12    0.55
  -6  -4  11    0.55    0.54
   5   4 -11    0.64    0.54
  -5  -4  11   -0.29    0.43
   4   4 -11    0.07    0.48
  -4  -4  11    0.32    0.48
  -4  -4  11   -0.17    0.40
  -4  -4  11   -0.48    0.41
   3   4 -11   -0.22    0.44
  -3  -4  11    0.06    0.33
  -3  -4  11    0.00    0.47
  -3  -4  11   -0.59    0.38
   2   4 -11   -0.09    0.15
   2   4 -11   -0.25    0.32
  -2  -4  11   -0.75    0.43
  -2  -4  11   -0.38    0.36
   1   4 -11    5.12    0.68
   1   4 -11    5.23    0.74
   1   4 -11    4.36    0.42
  -1  -4  11    5.25    0.74
   0   4 -11    2.63    0.47
   0   4 -11    2.22    0.41
   0   4 -11    3.10    0.42
   0  -4  11    2.90    0.63
   0  -4  11    1.91    0.45
  -1   4 -11    0.68    0.25
  -1   4 -11    0.81    0.40
  -1   4 -11    0.28    0.32
   1  -4  11    0.70    0.49
  -2   4 -11   -0.13    0.32
  -2   4 -11   -0.12    0.31
  -2   4 -11    0.07    0.22
   2  -4  11   -0.12    0.45
  -3   4 -11    0.20    0.26
  -3   4 -11   -0.37    0.31
   3  -4  11    0.26    0.46
   3  -4  11   -0.31    0.33
  -4   4 -11    0.08    0.40
  -4   4 -11    0.47    0.33
   4  -4  11    0.67    0.52
   4  -4  11    0.37    0.40
  -5   4 -11    0.42    0.37
  -5   4 -11   -0.22    0.41
   5  -4  11    0.52    0.43
   5  -4  11    1.06    0.52
  -7  -3  11    0.30    0.56
  -7  -3  11    0.14    0.63
   6   3 -11    0.02    0.54
  -6  -3  11    0.13    0.50
  -6  -3  11   -0.09    0.51
   5   3 -11    0.90    0.54
  -5  -3  11   -0.32    0.49
  -5  -3  11    0.84    0.54
  -5  -3  11    0.23    0.50
  -5  -3  11    0.54    0.49
   4   3 -11   -0.39    0.44
  -4  -3  11   -0.46    0.42
  -4  -3  11   -0.04    0.47
  -4  -3  11    0.16    0.37
   3   3 -11    2.23    0.56
   3   3 -11    1.14    0.24
  -3  -3  11    1.98    0.56
  -3  -3  11    2.05    0.44
  -3  -3  11    0.83    0.45
   2   3 -11   -0.19    0.41
   2   3 -11   -0.14    0.16
  -2  -3  11    0.12    0.25
  -2  -3  11   -0.36    0.45
  -2  -3  11   -0.19    0.34
   1   3 -11   -0.52    0.37
   1   3 -11   -0.05    0.17
   1   3 -11   -0.04    0.24
  -1  -3  11   -0.92    0.40
  -1  -3  11   -0.30    0.32
   0   3 -11    0.30    0.21
   0   3 -11    0.15    0.39
   0   3 -11    0.30    0.29
   0  -3  11    0.06    0.45
  -1   3 -11    0.42    0.23
  -1   3 -11    0.32    0.40
  -1   3 -11    0.16    0.30
   1  -3  11    0.21    0.43
  -2   3 -11   -0.39    0.27
  -2   3 -11   -0.27    0.33
  -2   3 -11   -0.05    0.22
   2  -3  11   -0.20    0.46
   2  -3  11   -0.28    0.29
  -3   3 -11    0.51    0.29
  -3   3 -11    0.43    0.35
   3  -3  11    0.49    0.49
   3  -3  11    0.52    0.34
  -4   3 -11    0.25    0.31
  -4   3 -11    0.11    0.41
   4  -3  11    0.96    0.50
   4  -3  11    0.05    0.36
  -5   3 -11    0.06    0.40
  -5   3 -11    0.72    0.37
   5  -3  11    1.35    0.50
   5  -3  11    0.73    0.43
   6  -3  11   -0.04    0.40
   6  -3  11   -0.38    0.39
  -7  -2  11    0.52    0.62
  -7  -2  11   -0.15    0.56
   6   2 -11    0.06    0.52
  -6  -2  11   -0.34    0.49
  -6  -2  11   -0.09    0.50
   5   2 -11    1.36    0.56
  -5  -2  11    1.08    0.55
  -5  -2  11    1.11    0.52
  -5  -2  11    1.00    0.55
   4   2 -11    3.41    0.47
   4   2 -11    3.68    0.66
  -4  -2  11    3.05    0.64
  -4  -2  11    3.66    0.61
  -4  -2  11    2.96    0.59
   3   2 -11    0.05    0.35
   3   2 -11    0.04    0.19
  -3  -2  11   -0.74    0.42
  -3  -2  11   -0.10    0.37
  -3  -2  11   -0.52    0.47
  -3  -2  11   -0.08    0.34
   2   2 -11    1.64    0.27
   2   2 -11    2.19    0.56
  -2  -2  11    1.45    0.45
  -2  -2  11    0.51    0.49
  -2  -2  11    1.70    0.38
  -2  -2  11    1.98    0.59
   1   2 -11   -0.24    0.36
   1   2 -11   -0.08    0.21
   1   2 -11   -0.06    0.17
  -1  -2  11   -0.08    0.21
  -1  -2  11   -0.18    0.31
  -1  -2  11   -0.63    0.43
   0   2 -11    1.23    0.28
   0   2 -11    1.39    0.42
   0   2 -11    0.71    0.30
   0  -2  11    1.85    0.52
   0  -2  11    0.96    0.29
  -1   2 -11    1.26    0.30
  -1   2 -11    1.87    0.42
  -1   2 -11    0.98    0.36
   1  -2  11    1.76    0.35
   1  -2  11    2.02    0.52
  -2   2 -11   -0.12    0.28
  -2   2 -11    0.43    0.27
  -2   2 -11    0.55    0.35
   2  -2  11    0.37    0.32
   2  -2  11    0.66    0.44
  -3   2 -11    0.16    0.27
  -3   2 -11   -0.14    0.29
   3  -2  11   -0.14    0.32
   3  -2  11    0.08    0.44
  -4   2 -11    1.25    0.40
  -4   2 -11    0.45    0.40
   4  -2  11    1.12    0.48
   4  -2  11    0.79    0.39
  -5   2 -11    0.11    0.33
  -5   2 -11   -0.34    0.33
   5  -2  11    0.16    0.41
   5  -2  11   -0.02    0.37
   6  -2  11    0.14    0.38
   6  -2  11    0.40    0.45
   7   1 -11   -0.07    0.55
  -7  -1  11    0.29    0.52
  -7  -1  11   -0.99    0.56
   6   1 -11   -0.11    0.49
  -6  -1  11    0.22    0.54
  -6  -1  11   -0.19    0.53
  -6  -1  11   -0.87    0.47
   5   1 -11   -0.02    0.47
  -5  -1  11    0.21    0.51
  -5  -1  11   -0.09    0.51
  -5  -1  11   -0.30    0.45
  -5  -1  11   -0.42    0.45
   4   1 -11   -0.42    0.44
   4   1 -11   -0.09    0.21
  -4  -1  11   -0.51    0.47
  -4  -1  11   -0.50    0.42
  -4  -1  11   -0.71    0.38
   3   1 -11    0.86    0.27
   3   1 -11   -0.07    0.47
  -3  -1  11    0.04    0.38
  -3  -1  11    0.01    0.49
  -3  -1  11    0.24    0.39
  -3  -1  11   -0.57    0.42
   2   1 -11    6.40    0.80
   2   1 -11    7.38    0.58
  -2  -1  11    5.48    0.67
  -2  -1  11    6.39    0.86
  -2  -1  11    4.33    0.64
  -2  -1  11    6.18    0.86
   1   1 -11    2.45    0.39
   1   1 -11    3.42    0.49
   1   1 -11    3.57    0.57
  -1  -1  11    3.26    0.39
  -1  -1  11    2.84    0.60
  -1  -1  11    2.12    0.36
  -1  -1  11    2.04    0.48
   0   1 -11    0.50    0.26
   0   1 -11    0.71    0.38
   0   1 -11    0.75    0.27
   0  -1  11    0.54    0.47
   0  -1  11    0.91    0.27
  -1   1 -11    0.07    0.23
  -1   1 -11    0.21    0.34
  -1   1 -11   -0.28    0.23
   1  -1  11   -0.44    0.22
   1  -1  11   -0.48    0.41
  -2   1 -11   -0.09    0.25
  -2   1 -11   -0.03    0.25
   2  -1  11   -0.39    0.43
   2  -1  11   -0.41    0.26
  -3   1 -11    1.35    0.36
  -3   1 -11    1.30    0.36
   3  -1  11    1.43    0.41
   3  -1  11    1.70    0.48
  -4   1 -11    0.36    0.36
  -4   1 -11    1.08    0.38
   4  -1  11    1.54    0.43
   4  -1  11    1.21    0.46
  -5   1 -11   -0.48    0.31
  -5   1 -11    0.49    0.39
   5  -1  11   -0.18    0.37
   5  -1  11   -0.33    0.35
  -6   1 -11   -0.21    0.40
   6  -1  11    0.37    0.42
   7   0 -11    0.04    0.57
  -7   0  11    0.05    0.53
  -7   0  11   -0.10    0.63
   6   0 -11   -0.03    0.52
  -6   0  11    0.42    0.50
  -6   0  11   -0.58    0.55
   5   0 -11    0.14    0.26
   5   0 -11   -0.69    0.45
  -5   0  11   -0.23    0.45
  -5   0  11   -0.59    0.50
  -5   0  11   -0.42    0.45
  -5   0  11   -0.82    0.44
   4   0 -11   -0.01    0.46
   4   0 -11   -0.12    0.23
  -4   0  11    0.23    0.44
  -4   0  11    0.11    0.48
  -4   0  11   -0.17    0.38
   3   0 -11    2.01    0.56
   3   0 -11    1.30    0.31
  -3   0  11    0.82    0.53
  -3   0  11    2.05    0.60
  -3   0  11    1.33    0.42
  -3   0  11    1.16    0.48
   2   0 -11    1.06    0.46
   2   0 -11    0.31    0.23
  -2   0  11    0.92    0.50
  -2   0  11   -0.01    0.38
  -2   0  11    0.36    0.40
   1   0 -11    0.63    0.28
   1   0 -11    0.66    0.24
   1   0 -11    0.94    0.41
  -1   0  11    0.87    0.39
  -1   0  11    1.16    0.35
  -1   0  11    0.51    0.24
  -1   0  11    1.14    0.50
   0   0 -11    0.27    0.24
   0   0 -11    0.37    0.24
   0   0 -11    0.96    0.39
   0   0  11    0.37    0.43
   0   0  11    0.54    0.27
   0   0  11    0.32    0.31
  -1   0 -11    0.30    0.28
  -1   0 -11    0.43    0.32
  -1   0 -11    0.13    0.24
   1   0  11    0.64    0.44
   1   0  11    0.22    0.27
  -2   0 -11    0.42    0.27
  -2   0 -11   -0.01    0.26
   2   0  11   -0.35    0.37
   2   0  11   -0.04    0.26
  -3   0 -11    0.63    0.34
  -3   0 -11    0.28    0.30
   3   0  11    0.69    0.35
   3   0  11    1.02    0.42
  -4   0 -11    0.78    0.35
  -4   0 -11    0.15    0.29
   4   0  11    0.45    0.38
   4   0  11    0.78    0.42
  -5   0 -11    1.24    0.43
  -5   0 -11    0.91    0.40
   5   0  11    1.34    0.46
   5   0  11    1.89    0.43
  -6   0 -11    0.88    0.39
   6   0  11    1.64    0.47
   7  -1 -11    0.35    0.61
  -7   1  11    0.40    0.56
  -7   1  11   -0.65    0.45
  -7   1  11   -0.28    0.67
   6  -1 -11   -0.18    0.57
  -6   1  11    0.31    0.56
  -6   1  11   -0.18    0.48
   5  -1 -11    0.20    0.27
   5  -1 -11    0.51    0.52
  -5   1  11    0.20    0.39
  -5   1  11    0.48    0.47
  -5   1  11    0.15    0.48
  -5   1  11   -0.12    0.52
   4  -1 -11   12.95    1.01
   4  -1 -11   11.12    0.82
  -4   1  11    9.92    0.99
  -4   1  11   12.24    0.92
  -4   1  11   12.82    1.02
   3  -1 -11   25.18    1.14
   3  -1 -11   31.52    1.39
  -3   1  11   31.61    1.43
  -3   1  11   25.63    1.40
  -3   1  11   28.71    1.32
   2  -1 -11    8.06    0.83
   2  -1 -11    6.19    0.66
  -2   1  11    6.91    0.86
  -2   1  11    4.31    0.75
  -2   1  11    5.86    0.70
   1  -1 -11    1.58    0.39
   1  -1 -11    1.82    0.36
  -1   1  11    1.27    0.26
  -1   1  11    2.27    0.46
  -1   1  11    1.90    0.53
  -1   1  11    1.45    0.40
   0  -1 -11    0.25    0.34
   0  -1 -11   -0.01    0.23
   0  -1 -11    0.06    0.21
   0   1  11   -0.05    0.45
   0   1  11    0.29    0.29
   0   1  11    0.07    0.21
  -1  -1 -11   -0.04    0.22
  -1  -1 -11    0.11    0.25
  -1  -1 -11   -0.04    0.29
   1   1  11   -0.16    0.44
   1   1  11   -0.03    0.23
   1   1  11    0.03    0.28
  -2  -1 -11    9.02    0.75
  -2  -1 -11    7.01    0.63
   2   1  11    9.32    0.79
   2   1  11    8.07    0.63
  -3  -1 -11    1.42    0.38
  -3  -1 -11    0.63    0.30
   3   1  11    1.28    0.42
   3   1  11    1.11    0.36
  -4  -1 -11    0.14    0.28
  -4  -1 -11    0.46    0.33
   4   1  11    0.45    0.38
   4   1  11   -0.05    0.35
  -5  -1 -11   -0.15    0.31
  -5  -1 -11    0.38    0.40
   5   1  11    0.06    0.34
   5   1  11    0.36    0.40
   6   1  11    1.05    0.49
  -7   2  11   -0.12    0.54
   6  -2 -11    1.50    0.61
  -6   2  11   -0.08    0.72
  -6   2  11    1.60    0.56
   5  -2 -11    0.34    0.31
   5  -2 -11    1.18    0.56
  -5   2  11    0.88    0.55
  -5   2  11   -0.50    0.57
   4  -2 -11    0.74    0.32
   4  -2 -11    0.53    0.54
  -4   2  11    0.26    0.52
  -4   2  11    0.78    0.55
   3  -2 -11    1.89    0.39
   3  -2 -11    2.46    0.59
  -3   2  11    1.17    0.58
  -3   2  11    1.94    0.52
  -3   2  11    2.28    0.59
   2  -2 -11    5.63    0.55
   2  -2 -11    7.20    0.80
   2  -2 -11    6.27    0.68
  -2   2  11    5.54    0.68
  -2   2  11    5.51    0.85
  -2   2  11    4.06    0.62
   1  -2 -11    4.31    0.58
   1  -2 -11    4.71    0.69
  -1   2  11    4.06    0.38
  -1   2  11    4.55    0.59
  -1   2  11    4.22    0.64
  -1   2  11    3.63    0.62
   0  -2 -11    0.30    0.20
   0  -2 -11    0.05    0.27
   0  -2 -11   -0.21    0.31
   0   2  11    0.04    0.31
   0   2  11   -0.03    0.41
   0   2  11   -0.22    0.22
  -1  -2 -11    0.20    0.21
  -1  -2 -11    0.01    0.32
  -1  -2 -11    0.04    0.30
   1   2  11    0.03    0.26
   1   2  11   -0.30    0.38
   1   2  11    0.48    0.27
  -2  -2 -11    0.41    0.33
  -2  -2 -11    0.46    0.24
   2   2  11    0.63    0.43
   2   2  11    0.98    0.34
  -3  -2 -11   -0.18    0.22
  -3  -2 -11   -0.12    0.29
   3   2  11   -0.25    0.31
   3   2  11   -0.52    0.37
  -4  -2 -11   -0.06    0.35
   4   2  11   -0.11    0.36
   4   2  11   -0.32    0.35
  -5  -2 -11    1.34    0.52
   5   2  11    1.64    0.40
   5   2  11    1.14    0.45
   6  -3 -11    2.13    0.64
  -6   3  11    2.40    0.64
   5  -3 -11    2.73    0.47
   5  -3 -11    3.83    0.74
  -5   3  11    4.81    0.77
  -5   3  11    2.75    0.86
   4  -3 -11   -0.39    0.50
   4  -3 -11    0.33    0.31
  -4   3  11   -0.12    0.55
  -4   3  11   -1.08    0.57
   3  -3 -11    0.21    0.32
   3  -3 -11    0.18    0.49
  -3   3  11   -0.74    0.45
  -3   3  11   -0.29    0.51
   2  -3 -11    0.16    0.16
   2  -3 -11    0.28    0.34
   2  -3 -11    0.16    0.28
  -2   3  11   -0.38    0.39
  -2   3  11   -0.48    0.50
   1  -3 -11    1.24    0.43
   1  -3 -11    0.75    0.22
   1  -3 -11    0.97    0.32
  -1   3  11    0.91    0.25
  -1   3  11    1.13    0.40
  -1   3  11    0.88    0.41
  -1   3  11    0.58    0.49
   0  -3 -11    1.06    0.28
   0  -3 -11    1.81    0.43
   0  -3 -11    1.60    0.38
   0   3  11    1.83    0.37
   0   3  11    1.79    0.53
   0   3  11    1.60    0.29
  -1  -3 -11   -0.09    0.28
  -1  -3 -11    0.11    0.17
   1   3  11   -0.63    0.40
   1   3  11    0.18    0.26
   1   3  11   -0.28    0.26
  -2  -3 -11    0.25    0.32
   2   3  11    0.27    0.31
   2   3  11   -0.08    0.39
  -3  -3 -11   -0.04    0.33
   3   3  11    0.24    0.35
   3   3  11    0.11    0.39
  -4  -3 -11    0.37    0.39
   4   3  11   -0.15    0.36
   4   3  11    0.30    0.36
   5   3  11    0.58    0.43
   6  -4 -11    0.45    0.61
  -6   4  11   -0.42    0.52
   5  -4 -11    0.14    0.36
   5  -4 -11    0.24    0.56
  -5   4  11    0.11    0.58
   4  -4 -11   -0.14    0.32
   4  -4 -11   -0.48    0.48
  -4   4  11   -0.16    0.54
  -4   4  11   -1.02    0.56
   3  -4 -11   -0.44    0.31
   3  -4 -11    0.24    0.51
  -3   4  11   -0.63    0.49
  -3   4  11   -0.68    0.46
   2  -4 -11    0.67    0.36
   2  -4 -11    1.03    0.48
   2  -4 -11    0.31    0.19
  -2   4  11    0.64    0.52
  -2   4  11   -0.12    0.44
   1  -4 -11    1.94    0.42
   1  -4 -11    1.34    0.28
   1  -4 -11    1.63    0.47
  -1   4  11    2.26    0.57
   0  -4 -11    0.70    0.34
   0  -4 -11    0.40    0.26
   0  -4 -11    1.02    0.39
   0   4  11    0.72    0.49
   0   4  11    0.74    0.35
   0   4  11    0.73    0.26
  -1  -4 -11   -0.08    0.29
  -1  -4 -11    0.05    0.23
   1   4  11    0.44    0.28
   1   4  11    0.31    0.27
   1   4  11   -0.27    0.39
  -2  -4 -11    0.68    0.35
  -2  -4 -11    0.51    0.30
   2   4  11    0.79    0.34
   2   4  11    0.96    0.44
  -3  -4 -11   -0.28    0.28
  -3  -4 -11    0.04    0.32
   3   4  11   -0.43    0.33
   3   4  11   -0.49    0.36
  -4  -4 -11    0.10    0.32
  -4  -4 -11   -0.30    0.38
   4   4  11   -0.21    0.34
   4   4  11   -0.24    0.37
   6  -5 -11   -0.23    0.56
  -6   5  11   -0.11    0.62
   5  -5 -11   -0.12    0.36
   5  -5 -11    0.05    0.55
  -5   5  11   -0.33    0.57
   4  -5 -11    0.10    0.41
   4  -5 -11    0.30    0.35
  -4   5  11    0.39    0.46
  -4   5  11   -1.05    0.63
   3  -5 -11    0.00    0.36
   3  -5 -11   -0.33    0.46
  -3   5  11   -0.34    0.50
  -3   5  11   -0.99    0.48
   2  -5 -11   -0.34    0.41
   2  -5 -11   -0.02    0.33
   2  -5 -11    0.19    0.20
  -2   5  11   -0.01    0.44
  -2   5  11    0.18    0.51
   1  -5 -11    0.60    0.41
   1  -5 -11    0.33    0.23
   1  -5 -11    0.55    0.35
  -1   5  11    0.41    0.51
   0  -5 -11    0.05    0.35
   0  -5 -11    0.10    0.26
   0   5  11   -0.40    0.48
  -1  -5 -11   -0.49    0.29
  -1  -5 -11    0.03    0.25
   1   5  11   -0.29    0.48
  -2  -5 -11   -0.09    0.32
  -2  -5 -11   -0.19    0.25
   2   5  11    0.08    0.32
   2   5  11   -0.69    0.40
  -3  -5 -11   -0.08    0.30
  -3  -5 -11    0.01    0.35
   3   5  11   -0.07    0.40
   3   5  11   -0.17    0.35
   4   5  11    0.03    0.43
   4   5  11    0.19    0.38
  -6   6  11   -0.36    0.61
  -5   6  11   -0.13    0.60
   4  -6 -11    0.60    0.41
  -4   6  11    0.40    0.66
  -4   6  11    0.55    0.60
   3  -6 -11   -0.16    0.36
  -3   6  11   -0.22    0.53
  -3   6  11   -0.25    0.52
   2  -6 -11   -0.19    0.34
   2  -6 -11   -0.04    0.20
  -2   6  11   -0.49    0.50
   1  -6 -11    0.00    0.23
   1  -6 -11    0.03    0.35
  -1   6  11   -0.47    0.49
   0  -6 -11   -0.37    0.30
   0  -6 -11   -0.03    0.26
   0   6  11   -0.64    0.44
  -1  -6 -11   -0.05    0.34
  -1  -6 -11    0.06    0.27
   1   6  11   -0.37    0.42
  -2  -6 -11    0.22    0.34
  -2  -6 -11   -0.39    0.34
   2   6  11    0.01    0.47
   3   6  11    1.54    0.48
   4  -7 -11   -0.25    0.56
  -4   7  11    0.39    0.64
  -4   7  11    0.38    0.64
   3  -7 -11   -0.33    0.36
   3  -7 -11   -0.25    0.52
  -3   7  11    0.40    0.60
   2  -7 -11   -0.13    0.37
   2  -7 -11   -0.27    0.49
   2  -7 -11    0.03    0.24
  -2   7  11   -0.09    0.56
   1  -7 -11   -0.11    0.26
   1  -7 -11   -0.10    0.38
  -1   7  11    0.38    0.54
   0  -7 -11    1.41    0.37
   0  -7 -11    1.26    0.45
   0   7  11    3.00    0.66
  -1  -7 -11   -0.29    0.36
  -1  -7 -11    0.05    0.33
   1   7  11   -0.20    0.48
   3  -8 -11   -0.32    0.55
   1  -8 -11    0.06    0.26
   0  -8 -11   -0.11    0.31
   0  -8  12    1.42    0.57
  -3  -7  12    1.81    0.68
   2   7 -12    1.82    0.65
  -2  -7  12    2.40    0.72
   1   7 -12    1.78    0.59
   1   7 -12    1.09    0.40
  -1  -7  12    2.38    0.70
   0   7 -12    0.68    0.51
   0   7 -12    0.01    0.38
   0  -7  12    0.77    0.61
   0  -7  12   -0.82    0.40
  -1   7 -12    1.63    0.57
   1  -7  12    0.02    0.39
   3   6 -12    3.58    0.74
  -3  -6  12    2.53    0.71
   2   6 -12    2.28    0.63
  -2  -6  12    0.45    0.52
  -2  -6  12    0.93    0.64
   1   6 -12    0.31    0.50
   1   6 -12    0.71    0.35
  -1  -6  12    0.58    0.61
   0   6 -12    0.31    0.48
   0   6 -12   -0.03    0.33
   0  -6  12    0.14    0.56
   0  -6  12   -0.52    0.37
  -1   6 -12    0.18    0.43
  -1   6 -12   -0.22    0.34
   1  -6  12    0.29    0.56
  -2   6 -12    0.46    0.41
   2  -6  12    2.46    0.71
  -3   6 -12    0.37    0.30
   4   5 -12    0.34    0.55
  -4  -5  12   -0.04    0.55
   3   5 -12   -0.52    0.47
  -3  -5  12   -0.76    0.44
  -3  -5  12   -0.75    0.51
   2   5 -12   -0.27    0.46
  -2  -5  12   -0.28    0.52
   1   5 -12    0.97    0.50
   1   5 -12    0.88    0.35
  -1  -5  12    0.32    0.47
  -1  -5  12    0.77    0.59
   0   5 -12    1.44    0.40
   0   5 -12    2.08    0.49
   0  -5  12    2.72    0.70
   0  -5  12    1.18    0.45
  -1   5 -12    0.77    0.39
  -1   5 -12    1.18    0.29
  -1   5 -12    1.61    0.50
   1  -5  12    1.93    0.63
  -2   5 -12   -0.20    0.36
  -2   5 -12    0.31    0.26
   2  -5  12    0.52    0.54
  -3   5 -12    0.84    0.33
  -3   5 -12    0.09    0.42
   3  -5  12    1.36    0.47
   3  -5  12    1.09    0.58
  -4   5 -12    0.09    0.30
   4  -5  12    0.20    0.39
  -6  -4  12    0.02    0.53
   5   4 -12   -0.13    0.54
  -5  -4  12   -0.66    0.45
   4   4 -12   -0.77    0.50
  -4  -4  12   -0.12    0.53
   3   4 -12    0.22    0.49
  -3  -4  12   -0.59    0.44
  -3  -4  12    0.53    0.57
   2   4 -12    0.06    0.46
  -2  -4  12   -0.22    0.52
  -2  -4  12   -0.53    0.38
   1   4 -12    0.46    0.22
   1   4 -12    0.48    0.31
   1   4 -12    1.08    0.50
  -1  -4  12    0.84    0.56
  -1  -4  12    0.33    0.41
   0   4 -12    2.01    0.52
   0   4 -12    1.36    0.40
   0   4 -12    0.90    0.26
   0  -4  12    1.74    0.61
  -1   4 -12    1.41    0.43
  -1   4 -12    2.12    0.36
  -1   4 -12    2.44    0.54
   1  -4  12    2.55    0.64
  -2   4 -12    0.01    0.35
  -2   4 -12    0.58    0.29
   2  -4  12    0.30    0.37
   2  -4  12    0.83    0.54
  -3   4 -12    0.44    0.29
  -3   4 -12   -0.43    0.38
   3  -4  12    0.17    0.39
   3  -4  12    0.85    0.54
  -4   4 -12   -0.02    0.31
   4  -4  12   -0.47    0.35
   4  -4  12   -0.22    0.47
  -6  -3  12   -0.15    0.48
   5   3 -12   -0.18    0.54
  -5  -3  12    0.55    0.50
   4   3 -12    0.27    0.55
  -4  -3  12   -0.73    0.44
  -4  -3  12   -0.21    0.51
  -4  -3  12    0.03    0.40
   3   3 -12    1.26    0.55
  -3  -3  12    0.08    0.43
  -3  -3  12    1.28    0.59
   2   3 -12    0.13    0.21
   2   3 -12    0.63    0.50
  -2  -3  12    0.90    0.57
  -2  -3  12   -0.04    0.39
   1   3 -12   -0.15    0.41
   1   3 -12   -0.05    0.26
   1   3 -12   -0.16    0.19
  -1  -3  12   -0.36    0.49
  -1  -3  12   -0.37    0.32
   0   3 -12   -0.11    0.21
   0   3 -12    0.01    0.27
   0   3 -12   -0.45    0.37
   0  -3  12   -0.03    0.49
   0  -3  12   -0.28    0.28
  -1   3 -12    0.12    0.24
  -1   3 -12    0.12    0.36
  -1   3 -12   -0.18    0.28
   1  -3  12   -0.18    0.31
   1  -3  12   -0.10    0.43
  -2   3 -12    0.46    0.27
  -2   3 -12    0.19    0.34
   2  -3  12    0.48    0.49
   2  -3  12    0.53    0.37
  -3   3 -12    0.68    0.32
  -3   3 -12   -0.03    0.39
   3  -3  12    1.32    0.53
   3  -3  12    0.37    0.38
  -4   3 -12   -0.09    0.40
  -4   3 -12    0.80    0.39
   4  -3  12    0.87    0.56
   4  -3  12    0.17    0.39
   5  -3  12   -0.05    0.43
   6   2 -12   -0.08    0.59
  -6  -2  12    0.11    0.56
  -6  -2  12   -0.40    0.49
   5   2 -12    0.39    0.57
  -5  -2  12   -0.37    0.50
  -5  -2  12   -0.33    0.49
  -5  -2  12    0.44    0.52
  -5  -2  12    0.42    0.57
   4   2 -12   -0.10    0.22
   4   2 -12   -0.39    0.49
  -4  -2  12    0.10    0.54
  -4  -2  12   -0.16    0.37
  -4  -2  12   -0.65    0.43
  -4  -2  12   -0.34    0.46
   3   2 -12   -0.59    0.44
   3   2 -12   -0.18    0.21
  -3  -2  12   -0.54    0.33
  -3  -2  12   -0.59    0.52
   2   2 -12   -0.27    0.33
   2   2 -12    0.06    0.21
  -2  -2  12   -0.85    0.47
  -2  -2  12   -0.21    0.36
   1   2 -12   -0.09    0.40
   1   2 -12   -0.19    0.19
   1   2 -12    0.12    0.27
  -1  -2  12   -0.33    0.47
  -1  -2  12    0.07    0.24
   0   2 -12   -0.08    0.25
   0   2 -12   -0.01    0.21
   0   2 -12   -0.02    0.38
   0  -2  12   -0.44    0.41
   0  -2  12    0.05    0.25
  -1   2 -12    0.31    0.31
  -1   2 -12    0.82    0.30
  -1   2 -12    0.87    0.42
   1  -2  12    0.98    0.37
   1  -2  12    1.21    0.53
  -2   2 -12    1.10    0.38
  -2   2 -12    1.14    0.33
   2  -2  12    1.30    0.42
   2  -2  12    1.95    0.55
  -3   2 -12    1.51    0.45
  -3   2 -12    2.24    0.42
   3  -2  12    3.23    0.65
   3  -2  12    2.59    0.50
  -4   2 -12   -0.63    0.35
  -4   2 -12    0.00    0.33
   4  -2  12    0.06    0.39
   4  -2  12   -0.09    0.47
  -5   2 -12   -0.64    0.37
   5  -2  12   -0.35    0.44
   5  -2  12   -0.28    0.40
   6   1 -12    0.82    0.60
  -6  -1  12    0.35    0.58
  -6  -1  12    0.41    0.61
   5   1 -12   -0.32    0.23
   5   1 -12    0.13    0.56
  -5  -1  12   -0.80    0.45
  -5  -1  12   -0.43    0.53
  -5  -1  12   -0.13    0.54
  -5  -1  12   -0.75    0.45
   4   1 -12    0.24    0.44
   4   1 -12    0.12    0.25
  -4  -1  12   -0.17    0.50
  -4  -1  12   -0.12    0.46
  -4  -1  12   -0.17    0.44
  -4  -1  12    0.13    0.57
   3   1 -12   -0.25    0.22
   3   1 -12   -1.03    0.45
  -3  -1  12   -0.27    0.37
  -3  -1  12   -0.57    0.37
  -3  -1  12   -1.09    0.50
   2   1 -12    0.23    0.23
   2   1 -12    0.01    0.46
  -2  -1  12   -0.47    0.36
  -2  -1  12   -0.12    0.52
  -2  -1  12   -0.28    0.43
   1   1 -12    2.03    0.37
   1   1 -12    2.35    0.37
   1   1 -12    2.56    0.54
  -1  -1  12    1.91    0.49
  -1  -1  12    2.17    0.34
  -1  -1  12    2.54    0.63
   0   1 -12    1.73    0.48
   0   1 -12    1.12    0.33
   0   1 -12    1.24    0.31
   0  -1  12    1.78    0.33
   0  -1  12    1.43    0.55
  -1   1 -12    0.41    0.29
  -1   1 -12    0.37    0.37
  -1   1 -12   -0.03    0.29
   1  -1  12    0.41    0.31
   1  -1  12    0.16    0.47
  -2   1 -12   -0.24    0.29
  -2   1 -12    0.43    0.30
   2  -1  12    0.18    0.47
   2  -1  12    0.46    0.34
  -3   1 -12   -0.14    0.29
  -3   1 -12   -0.31    0.30
   3  -1  12   -0.36    0.32
   3  -1  12   -0.20    0.45
  -4   1 -12    0.78    0.40
  -4   1 -12   -0.21    0.33
   4  -1  12    0.62    0.45
   4  -1  12    0.07    0.35
  -5   1 -12   -0.46    0.34
   5  -1  12   -0.15    0.40
   5  -1  12   -0.76    0.40
   6   0 -12   -0.45    0.53
  -6   0  12   -0.48    0.54
  -6   0  12   -1.02    0.52
   5   0 -12   -0.92    0.47
   5   0 -12   -0.16    0.26
  -5   0  12   -0.42    0.44
  -5   0  12   -0.28    0.53
  -5   0  12   -0.69    0.50
   4   0 -12    2.42    0.66
   4   0 -12    1.12    0.33
  -4   0  12    0.89    0.46
  -4   0  12    1.82    0.62
  -4   0  12    1.24    0.55
  -4   0  12    0.90    0.56
   3   0 -12    1.70    0.36
   3   0 -12    2.67    0.64
  -3   0  12    1.89    0.63
  -3   0  12    1.84    0.55
  -3   0  12    1.57    0.52
   2   0 -12   -0.24    0.43
   2   0 -12    0.29    0.29
  -2   0  12   -0.47    0.39
  -2   0  12    0.07    0.51
   1   0 -12    0.32    0.28
   1   0 -12    0.05    0.40
  -1   0  12   -0.01    0.48
  -1   0  12   -0.22    0.38
   0   0 -12    0.20    0.26
   0   0 -12    0.34    0.25
   0   0 -12    0.39    0.39
   0   0  12    0.40    0.34
   0   0  12    0.57    0.27
   0   0  12   -0.23    0.45
  -1   0 -12    1.07    0.33
  -1   0 -12    1.67    0.44
  -1   0 -12    1.62    0.37
   1   0  12    1.59    0.38
   1   0  12    1.57    0.55
  -2   0 -12    4.52    0.73
  -2   0 -12    5.08    0.74
   2   0  12    4.53    0.59
   2   0  12    4.57    0.69
  -3   0 -12    0.79    0.36
  -3   0 -12    1.55    0.42
   3   0  12    1.17    0.42
   3   0  12    1.10    0.50
  -4   0 -12   -0.26    0.35
  -4   0 -12    0.04    0.34
   4   0  12   -0.22    0.37
   4   0  12    0.00    0.41
  -5   0 -12   -0.37    0.34
   5   0  12    0.01    0.42
   5   0  12    0.11    0.41
   6  -1 -12    0.66    0.60
  -6   1  12    0.11    0.57
  -6   1  12    0.39    0.59
   5  -1 -12    2.13    0.70
   5  -1 -12    1.30    0.38
  -5   1  12    0.94    0.64
  -5   1  12    2.25    0.64
  -5   1  12    1.50    0.63
   4  -1 -12    0.98    0.54
   4  -1 -12    0.17    0.31
  -4   1  12    0.56    0.50
  -4   1  12   -0.64    0.50
  -4   1  12    0.95    0.57
   3  -1 -12    0.83    0.41
   3  -1 -12    0.30    0.30
  -3   1  12   -0.08    0.49
  -3   1  12    1.14    0.47
  -3   1  12    1.21    0.51
   2  -1 -12    2.05    0.39
   2  -1 -12    2.64    0.56
  -2   1  12    3.26    0.55
  -2   1  12    2.38    0.61
  -2   1  12    1.71    0.50
   1  -1 -12    0.17    0.41
   1  -1 -12    0.46    0.31
  -1   1  12    0.59    0.51
  -1   1  12    0.45    0.37
  -1   1  12    0.21    0.31
   0  -1 -12    0.77    0.28
   0  -1 -12    1.17    0.44
   0  -1 -12    0.83    0.32
   0   1  12    1.15    0.51
   0   1  12    1.53    0.33
   0   1  12    1.28    0.39
  -1  -1 -12    0.13    0.23
  -1  -1 -12    0.14    0.30
   1   1  12    0.34    0.45
   1   1  12    0.29    0.30
  -2  -1 -12    0.33    0.33
  -2  -1 -12   -0.05    0.24
   2   1  12    0.33    0.45
   2   1  12    0.25    0.33
  -3  -1 -12   -0.31    0.25
  -3  -1 -12    0.06    0.33
   3   1  12   -0.27    0.33
   3   1  12   -0.30    0.37
  -4  -1 -12    1.11    0.44
   4   1  12    1.27    0.46
   4   1  12    0.51    0.43
   5   1  12    0.78    0.43
   5   1  12    1.11    0.48
   6  -2 -12    3.20    0.75
  -6   2  12    3.16    0.70
  -6   2  12    2.80    0.69
   5  -2 -12    2.63    0.48
  -5   2  12    3.95    0.74
  -5   2  12    2.95    0.87
   4  -2 -12    4.41    0.75
   4  -2 -12    2.45    0.47
  -4   2  12    5.24    0.81
  -4   2  12    1.88    0.74
  -4   2  12    4.04    0.73
   3  -2 -12    0.34    0.33
   3  -2 -12    1.26    0.52
  -3   2  12    1.09    0.48
  -3   2  12   -0.29    0.50
  -3   2  12    0.59    0.54
   2  -2 -12    0.17    0.16
   2  -2 -12    0.28    0.46
   2  -2 -12    0.06    0.28
  -2   2  12    0.57    0.42
  -2   2  12    0.16    0.50
  -2   2  12   -0.28    0.38
   1  -2 -12    0.01    0.17
   1  -2 -12   -0.06    0.30
   1  -2 -12   -0.25    0.35
  -1   2  12    0.01    0.34
  -1   2  12   -0.04    0.47
  -1   2  12    0.18    0.32
   0  -2 -12    1.64    0.46
   0  -2 -12    1.42    0.40
   0   2  12    1.60    0.40
   0   2  12    2.16    0.37
   0   2  12    2.05    0.57
  -1  -2 -12    0.51    0.35
  -1  -2 -12    0.42    0.23
   1   2  12    0.59    0.30
   1   2  12    0.43    0.48
   1   2  12    0.72    0.33
  -2  -2 -12    0.37    0.33
  -2  -2 -12    0.36    0.25
   2   2  12    0.15    0.50
   2   2  12    0.36    0.37
  -3  -2 -12    0.97    0.42
   3   2  12    0.33    0.39
   3   2  12    0.32    0.43
  -4  -2 -12    1.78    0.49
   4   2  12    1.80    0.48
   4   2  12    2.27    0.51
  -6   3  12    0.17    0.58
   5  -3 -12    1.50    0.44
   5  -3 -12    3.16    0.73
  -5   3  12    0.06    0.74
  -5   3  12    2.45    0.68
   4  -3 -12    1.19    0.41
   4  -3 -12    2.00    0.65
  -4   3  12    1.75    0.65
  -4   3  12   -0.10    0.60
   3  -3 -12    1.05    0.42
   3  -3 -12    1.23    0.55
  -3   3  12   -0.23    0.49
  -3   3  12    1.20    0.61
  -3   3  12    0.69    0.47
   2  -3 -12    0.11    0.45
   2  -3 -12   -0.21    0.30
  -2   3  12    0.20    0.40
  -2   3  12   -0.39    0.49
  -2   3  12   -0.61    0.41
   1  -3 -12   -0.32    0.29
   1  -3 -12   -0.17    0.19
   1  -3 -12   -0.44    0.37
  -1   3  12   -0.14    0.37
  -1   3  12   -0.61    0.47
   0  -3 -12    0.45    0.26
   0  -3 -12    0.19    0.39
   0  -3 -12    0.43    0.35
   0   3  12    0.66    0.30
   0   3  12    0.30    0.34
   0   3  12    0.13    0.51
  -1  -3 -12    0.05    0.25
  -1  -3 -12    0.01    0.32
   1   3  12    0.12    0.29
   1   3  12   -0.49    0.48
   1   3  12    0.03    0.28
  -2  -3 -12    0.12    0.33
   2   3  12    0.13    0.32
   2   3  12   -0.32    0.46
  -3  -3 -12    0.62    0.38
   3   3  12    1.16    0.45
   3   3  12    1.20    0.43
   4   3  12   -0.10    0.38
   4   3  12    0.49    0.42
  -6   4  12    0.40    0.62
   5  -4 -12   -0.25    0.34
   5  -4 -12   -0.06    0.57
  -5   4  12    0.23    0.61
   4  -4 -12   -0.40    0.34
   4  -4 -12    0.28    0.54
  -4   4  12   -0.32    0.55
   3  -4 -12   -0.30    0.34
   3  -4 -12    0.06    0.50
  -3   4  12   -0.76    0.52
  -3   4  12   -0.09    0.54
   2  -4 -12    0.17    0.46
   2  -4 -12    0.24    0.35
  -2   4  12    0.31    0.52
  -2   4  12    0.26    0.48
   1  -4 -12   -0.04    0.41
   1  -4 -12    0.01    0.21
   1  -4 -12   -0.25    0.32
  -1   4  12   -0.66    0.47
  -1   4  12   -0.23    0.36
   0  -4 -12    0.04    0.24
   0  -4 -12   -0.11    0.31
   0   4  12   -0.20    0.32
   0   4  12   -0.51    0.45
  -1  -4 -12   -0.28    0.31
  -1  -4 -12   -0.11    0.24
   1   4  12    0.44    0.33
   1   4  12    0.01    0.44
  -2  -4 -12   -0.66    0.30
  -2  -4 -12   -0.13    0.27
   2   4  12   -0.33    0.41
   2   4  12   -0.01    0.32
  -3  -4 -12    0.49    0.35
   3   4  12    0.50    0.44
   3   4  12    1.02    0.41
   4   4  12    1.93    0.50
   5  -5 -12    0.01    0.58
  -5   5  12   -1.07    0.56
   4  -5 -12   -0.43    0.38
   4  -5 -12   -0.02    0.52
  -4   5  12   -0.32    0.58
   3  -5 -12    0.97    0.56
   3  -5 -12    0.47    0.43
  -3   5  12    0.54    0.58
  -3   5  12    0.97    0.60
   2  -5 -12    0.15    0.40
   2  -5 -12    0.15    0.48
  -2   5  12    0.06    0.55
   1  -5 -12   -0.02    0.38
   1  -5 -12    0.18    0.23
  -1   5  12   -0.29    0.50
   0  -5 -12    0.01    0.25
   0  -5 -12    0.08    0.35
   0   5  12    0.06    0.56
   0   5  12    0.50    0.36
  -1  -5 -12   -0.14    0.26
  -1  -5 -12   -0.06    0.38
   1   5  12   -0.62    0.51
  -2  -5 -12   -0.32    0.37
  -2  -5 -12   -0.05    0.29
   2   5  12   -0.57    0.46
   2   5  12    0.16    0.35
   3   5  12    0.26    0.45
   3   5  12    1.11    0.47
  -4   6  12   -0.22    0.63
  -4   6  12   -0.77    0.61
   3  -6 -12   -0.37    0.45
  -3   6  12    1.11    0.63
  -3   6  12    0.01    0.61
   2  -6 -12   -0.43    0.36
  -2   6  12    0.02    0.61
   1  -6 -12   -0.37    0.37
   1  -6 -12   -0.17    0.23
  -1   6  12   -0.54    0.54
   0  -6 -12   -0.46    0.37
   0  -6 -12   -0.14    0.28
   0   6  12    0.32    0.54
  -1  -6 -12   -0.02    0.28
   1  -7 -12   -0.08    0.27
   0  -7 -12   -0.07    0.29
  -3  -6  13    0.67    0.66
   2   6 -13    0.47    0.49
  -2  -6  13    1.03    0.68
   1   6 -13    1.55    0.60
  -1  -6  13    2.22    0.72
   0   6 -13    2.24    0.61
   0  -6  13    0.45    0.45
  -1   6 -13    1.51    0.52
  -4  -5  13    1.28    0.68
   3   5 -13    0.40    0.58
  -3  -5  13    1.02    0.63
   2   5 -13   -0.62    0.52
  -2  -5  13   -0.83    0.55
   1   5 -13   -0.39    0.49
   1   5 -13    0.18    0.33
  -1  -5  13   -0.57    0.41
  -1  -5  13   -0.76    0.56
   0   5 -13   -0.33    0.31
   0   5 -13    0.37    0.49
   0  -5  13    0.16    0.61
  -1   5 -13   -0.38    0.35
  -1   5 -13   -0.17    0.46
   1  -5  13   -0.18    0.56
  -2   5 -13    0.70    0.31
   2  -5  13    0.54    0.43
  -3   5 -13    0.20    0.32
   3  -5  13   -0.09    0.44
   4   4 -13   -0.49    0.57
  -4  -4  13   -0.80    0.59
   3   4 -13    0.36    0.59
  -3  -4  13   -0.31    0.49
  -3  -4  13    0.38    0.62
   2   4 -13    0.77    0.56
  -2  -4  13   -0.05    0.45
  -2  -4  13    0.60    0.62
   1   4 -13    0.72    0.51
   1   4 -13    0.47    0.33
  -1  -4  13    0.90    0.59
  -1  -4  13   -0.17    0.40
   0   4 -13    0.44    0.34
   0   4 -13    0.11    0.25
   0   4 -13    0.01    0.45
   0  -4  13    0.57    0.34
   0  -4  13    0.79    0.58
  -1   4 -13    1.89    0.56
  -1   4 -13    1.42    0.33
  -1   4 -13    0.70    0.40
   1  -4  13    1.68    0.44
   1  -4  13    2.19    0.68
  -2   4 -13   -0.21    0.26
   2  -4  13   -0.14    0.37
   2  -4  13   -0.33    0.55
  -3   4 -13    0.12    0.31
   3  -4  13   -0.15    0.39
   4   3 -13   -0.40    0.56
  -4  -3  13   -0.93    0.55
   3   3 -13   -0.28    0.53
  -3  -3  13   -0.75    0.40
  -3  -3  13    0.02    0.62
   2   3 -13    1.99    0.60
   2   3 -13    1.35    0.33
  -2  -3  13    2.20    0.69
  -2  -3  13    0.91    0.49
   1   3 -13    3.04    0.64
   1   3 -13    1.95    0.34
   1   3 -13    2.10    0.43
  -1  -3  13    2.42    0.60
   0   3 -13    0.26    0.26
   0   3 -13    0.28    0.32
   0   3 -13    0.33    0.45
   0  -3  13   -0.19    0.28
   0  -3  13    0.35    0.56
  -1   3 -13   -0.32    0.31
  -1   3 -13    0.28    0.28
   1  -3  13    0.04    0.52
   1  -3  13   -0.30    0.35
  -2   3 -13   -0.06    0.26
   2  -3  13    0.07    0.38
   2  -3  13   -0.02    0.54
  -3   3 -13    0.17    0.30
  -3   3 -13   -0.55    0.34
   3  -3  13   -0.20    0.38
   3  -3  13    0.00    0.57
   4  -3  13   -0.56    0.41
  -5  -2  13   -0.29    0.46
  -5  -2  13   -0.61    0.56
  -5  -2  13    0.08    0.59
   4   2 -13    0.39    0.59
  -4  -2  13   -1.10    0.54
  -4  -2  13   -0.82    0.54
   3   2 -13   -0.57    0.51
   3   2 -13   -0.13    0.23
  -3  -2  13   -0.55    0.40
  -3  -2  13   -0.65    0.56
   2   2 -13   -0.46    0.47
   2   2 -13   -0.32    0.22
  -2  -2  13   -0.68    0.52
   1   2 -13    0.23    0.25
   1   2 -13    0.12    0.46
   1   2 -13    0.41    0.32
  -1  -2  13    0.33    0.57
   0   2 -13   -0.14    0.26
   0   2 -13   -0.06    0.26
   0   2 -13    0.27    0.43
   0  -2  13    0.11    0.54
   0  -2  13   -0.18    0.28
  -1   2 -13   -0.40    0.30
  -1   2 -13    0.03    0.27
   1  -2  13   -0.20    0.49
   1  -2  13    0.01    0.35
  -2   2 -13    0.49    0.37
  -2   2 -13    0.62    0.33
   2  -2  13    0.73    0.40
   2  -2  13    1.10    0.56
  -3   2 -13    1.06    0.40
  -3   2 -13    0.58    0.43
   3  -2  13    0.80    0.43
   3  -2  13    1.47    0.60
  -4   2 -13   -0.45    0.45
   4  -2  13    0.39    0.46
  -6  -1  13   -0.61    0.56
   5   1 -13   -1.08    0.56
  -5  -1  13   -0.19    0.55
  -5  -1  13   -0.56    0.51
  -5  -1  13   -0.72    0.46
   4   1 -13    0.19    0.59
   4   1 -13   -0.21    0.26
  -4  -1  13   -0.91    0.45
  -4  -1  13   -0.14    0.53
  -4  -1  13   -0.75    0.55
  -4  -1  13   -0.02    0.45
   3   1 -13   -0.16    0.25
   3   1 -13   -0.12    0.51
  -3  -1  13   -0.96    0.56
  -3  -1  13   -0.77    0.47
   2   1 -13   -0.12    0.48
   2   1 -13    0.13    0.27
  -2  -1  13   -0.19    0.42
  -2  -1  13   -0.31    0.57
   1   1 -13    1.24    0.53
   1   1 -13    0.88    0.32
   1   1 -13    0.99    0.32
  -1  -1  13    1.37    0.61
   0   1 -13    0.31    0.27
   0   1 -13    0.29    0.43
   0   1 -13    0.29    0.28
   0  -1  13    0.67    0.55
   0  -1  13    0.12    0.31
  -1   1 -13    1.60    0.39
  -1   1 -13    1.87    0.39
   1  -1  13    2.66    0.46
   1  -1  13    3.54    0.69
  -2   1 -13    0.01    0.34
  -2   1 -13    0.25    0.34
   2  -1  13    0.22    0.55
   2  -1  13    0.24    0.35
  -3   1 -13   -0.41    0.32
  -3   1 -13    0.25    0.33
   3  -1  13    0.41    0.41
   3  -1  13    0.83    0.55
   4  -1  13   -0.52    0.49
  -6   0  13   -0.45    0.49
   5   0 -13   -0.22    0.29
   5   0 -13   -0.85    0.54
  -5   0  13   -0.34    0.55
  -5   0  13   -0.90    0.59
   4   0 -13   -0.20    0.28
   4   0 -13   -0.59    0.52
  -4   0  13   -1.03    0.48
  -4   0  13   -0.55    0.55
   3   0 -13    0.29    0.55
   3   0 -13    0.36    0.29
  -3   0  13    0.29    0.58
  -3   0  13    0.17    0.48
   2   0 -13    0.12    0.26
   2   0 -13    0.20    0.51
  -2   0  13    0.49    0.46
  -2   0  13   -0.39    0.41
   1   0 -13   -0.22    0.45
   1   0 -13   -0.17    0.27
  -1   0  13   -0.08    0.36
  -1   0  13   -0.14    0.52
   0   0 -13   -0.14    0.42
   0   0 -13   -0.31    0.27
   0   0 -13   -0.01    0.25
   0   0  13   -0.46    0.49
   0   0  13   -0.58    0.27
  -1   0 -13    0.29    0.31
  -1   0 -13    0.17    0.27
   1   0  13    0.49    0.34
   1   0  13    0.22    0.52
  -2   0 -13    0.14    0.32
  -2   0 -13    0.15    0.32
   2   0  13    0.64    0.56
   2   0  13    0.35    0.37
  -3   0 -13   -0.08    0.34
   3   0  13   -0.41    0.49
   3   0  13   -0.53    0.37
  -4   0 -13   -0.61    0.35
   4   0  13   -0.24    0.40
   4   0  13    0.27    0.46
   5  -1 -13    0.80    0.38
   5  -1 -13    0.37    0.60
  -5   1  13    0.64    0.62
  -5   1  13    1.12    0.62
   4  -1 -13    0.39    0.59
   4  -1 -13   -0.35    0.30
  -4   1  13   -0.07    0.58
  -4   1  13   -0.37    0.51
   3  -1 -13    0.02    0.33
   3  -1 -13    0.68    0.53
  -3   1  13    0.17    0.58
  -3   1  13    0.24    0.52
   2  -1 -13    0.67    0.42
   2  -1 -13    0.45    0.34
  -2   1  13    0.16    0.56
  -2   1  13    0.36    0.43
   1  -1 -13    0.23    0.32
   1  -1 -13    0.84    0.47
  -1   1  13    1.19    0.57
  -1   1  13    0.99    0.44
   0  -1 -13    5.32    0.70
   0  -1 -13    5.33    0.76
   0  -1 -13    5.40    0.66
   0   1  13    6.57    0.90
   0   1  13    4.99    0.55
   0   1  13    5.86    0.66
  -1  -1 -13    1.22    0.41
  -1  -1 -13    1.05    0.32
   1   1  13    1.44    0.39
   1   1  13    1.55    0.56
  -2  -1 -13   -0.13    0.26
  -2  -1 -13    0.06    0.32
   2   1  13   -0.16    0.32
   2   1  13   -0.39    0.46
  -3  -1 -13    0.49    0.40
   3   1  13   -0.03    0.37
   3   1  13    0.44    0.48
   4   1  13    1.22    0.51
   4   1  13    0.98    0.48
   5  -2 -13    0.30    0.38
   5  -2 -13    1.42    0.66
  -5   2  13    0.58    0.62
  -5   2  13    0.97    0.61
   4  -2 -13    2.11    0.65
   4  -2 -13    0.57    0.40
  -4   2  13   -0.73    0.61
  -4   2  13    1.82    0.67
  -4   2  13    1.94    0.60
   3  -2 -13    0.76    0.57
   3  -2 -13    0.02    0.33
  -3   2  13    0.40    0.52
  -3   2  13    0.32    0.58
  -3   2  13   -0.88    0.49
   2  -2 -13   -0.01    0.34
   2  -2 -13   -0.28    0.47
  -2   2  13   -0.53    0.52
  -2   2  13   -0.24    0.42
  -2   2  13    0.32    0.43
   1  -2 -13    0.01    0.45
   1  -2 -13    0.04    0.32
   1  -2 -13    0.39    0.21
  -1   2  13    0.18    0.51
  -1   2  13    0.05    0.40
   0  -2 -13   -0.36    0.29
   0   2  13   -0.49    0.49
   0   2  13   -0.15    0.32
  -1  -2 -13    0.33    0.36
   1   2  13   -0.42    0.53
   1   2  13    0.20    0.31
  -2  -2 -13   -0.10    0.37
   2   2  13   -0.08    0.38
   2   2  13    0.11    0.51
   3   2  13    0.79    0.42
   3   2  13    0.92    0.54
   5  -3 -13   -0.35    0.37
   5  -3 -13    0.78    0.64
  -5   3  13    0.02    0.57
   4  -3 -13    0.67    0.58
   4  -3 -13   -0.48    0.34
  -4   3  13    0.33    0.60
  -4   3  13    0.74    0.55
   3  -3 -13   -0.41    0.36
   3  -3 -13    0.28    0.52
  -3   3  13    0.22    0.45
  -3   3  13   -0.39    0.54
   2  -3 -13   -0.22    0.47
   2  -3 -13   -0.10    0.36
  -2   3  13    0.23    0.43
  -2   3  13    0.10    0.40
  -2   3  13   -0.47    0.53
   1  -3 -13    0.10    0.46
   1  -3 -13    0.02    0.20
   1  -3 -13   -0.03    0.33
  -1   3  13   -0.14    0.40
  -1   3  13   -0.42    0.51
   0  -3 -13    0.00    0.36
   0  -3 -13    0.40    0.25
   0   3  13   -0.08    0.52
   0   3  13    0.33    0.34
  -1  -3 -13    0.25    0.26
  -1  -3 -13    0.21    0.37
   1   3  13   -0.10    0.50
   1   3  13    0.79    0.35
  -2  -3 -13    0.97    0.44
  -2  -3 -13    0.77    0.34
   2   3  13    1.20    0.40
   2   3  13    1.39    0.51
   3   3  13    1.59    0.48
   3   3  13    1.22    0.56
  -5   4  13    0.23    0.63
   4  -4 -13   -0.57    0.37
   4  -4 -13    0.21    0.57
  -4   4  13   -0.14    0.58
   3  -4 -13   -0.04    0.50
   3  -4 -13   -0.43    0.39
  -3   4  13   -0.26    0.59
  -3   4  13    0.03    0.47
  -3   4  13   -0.88    0.53
   2  -4 -13   -0.17    0.41
   2  -4 -13    0.21    0.51
  -2   4  13    0.81    0.44
  -2   4  13    0.09    0.44
  -2   4  13    0.20    0.57
   1  -4 -13   -0.04    0.22
   1  -4 -13   -0.21    0.38
  -1   4  13    0.02    0.54
  -1   4  13    0.29    0.38
   0  -4 -13   -0.46    0.34
   0  -4 -13    0.06    0.23
   0   4  13   -0.84    0.54
   0   4  13   -0.49    0.34
  -1  -4 -13   -0.29    0.39
  -1  -4 -13    0.24    0.30
   1   4  13   -0.11    0.51
   1   4  13    0.19    0.31
  -2  -4 -13    0.80    0.35
   2   4  13    0.72    0.39
   4  -5 -13    0.10    0.55
   3  -5 -13   -0.07    0.53
  -3   5  13   -0.09    0.55
   2  -5 -13   -0.10    0.48
  -1   5  13    0.14    0.41
   0  -5 -13    0.02    0.25
  -1  -5 -13    0.59    0.35
  -1   6  13    0.32    0.45
   1   5 -14   -0.10    0.55
   0   5 -14    1.99    0.64
   0  -5  14    0.74    0.40
  -3  -4  14   -0.74    0.62
   2   4 -14   -0.45    0.53
  -2  -4  14   -0.41    0.61
   1   4 -14    0.01    0.52
  -1  -4  14    0.35    0.65
   0   4 -14    0.51    0.55
   0  -4  14    0.67    0.40
  -1   4 -14   -0.04    0.28
   1  -4  14   -0.13    0.38
  -4  -3  14   -0.56    0.64
   3   3 -14   -0.75    0.55
  -3  -3  14   -0.63    0.62
   2   3 -14   -0.07    0.53
  -2  -3  14    0.29    0.65
   1   3 -14    2.26    0.63
   1   3 -14    1.29    0.40
  -1  -3  14    1.47    0.71
   0   3 -14   -0.14    0.49
   0   3 -14   -0.39    0.26
   0   3 -14    0.21    0.34
   0  -3  14    0.42    0.62
   0  -3  14    0.27    0.34
  -1   3 -14   -0.19    0.36
  -1   3 -14    0.07    0.29
   1  -3  14   -0.19    0.39
  -2   3 -14    0.13    0.32
   2  -3  14   -0.11    0.40
  -4  -2  14    0.84    0.67
   3   2 -14    0.82    0.63
  -3  -2  14    0.80    0.69
   2   2 -14   -0.08    0.53
   2   2 -14   -0.15    0.26
  -2  -2  14   -0.56    0.61
   1   2 -14   -0.75    0.43
   1   2 -14   -0.20    0.26
  -1  -2  14   -0.47    0.58
   0   2 -14    0.79    0.33
   0   2 -14    1.00    0.55
   0   2 -14    0.75    0.36
   0  -2  14    0.96    0.62
  -1   2 -14   -0.12    0.28
  -1   2 -14   -0.43    0.30
   1  -2  14   -0.13    0.39
   1  -2  14    0.20    0.57
  -2   2 -14   -0.24    0.33
  -2   2 -14   -0.55    0.36
   2  -2  14   -0.50    0.36
  -5  -1  14   -0.18    0.60
   4   1 -14   -0.78    0.57
  -4  -1  14   -0.16    0.49
   3   1 -14   -0.09    0.59
   3   1 -14   -0.22    0.30
  -3  -1  14    0.17    0.65
  -3  -1  14   -0.19    0.51
   2   1 -14    0.10    0.52
   2   1 -14   -0.13    0.27
  -2  -1  14   -0.14    0.63
   1   1 -14    0.37    0.32
   1   1 -14    0.24    0.52
  -1  -1  14    0.37    0.61
   0   1 -14    0.27    0.32
   0   1 -14   -0.21    0.29
   0  -1  14   -0.24    0.56
  -1   1 -14    0.94    0.38
  -1   1 -14    1.23    0.40
   1  -1  14    1.44    0.64
   1  -1  14    1.56    0.45
  -2   1 -14    0.11    0.34
  -2   1 -14    0.55    0.39
   2  -1  14    0.57    0.45
  -5   0  14   -0.67    0.60
   4   0 -14    0.08    0.48
   4   0 -14   -0.57    0.28
  -4   0  14   -0.07    0.61
   3   0 -14    0.33    0.47
   3   0 -14    0.02    0.33
  -3   0  14    0.49    0.54
  -3   0  14   -0.20    0.59
   2   0 -14   -0.16    0.54
   2   0 -14   -0.45    0.28
  -2   0  14   -0.45    0.46
  -2   0  14    0.08    0.60
   1   0 -14   -0.04    0.50
   1   0 -14    0.41    0.33
  -1   0  14    0.57    0.62
  -1   0  14   -0.04    0.42
   0   0 -14    0.52    0.31
   0   0 -14    0.18    0.32
   0   0  14    0.02    0.62
  -1   0 -14    0.13    0.30
  -1   0 -14    0.10    0.37
   1   0  14   -0.05    0.63
   1   0  14    0.41    0.38
  -2   0 -14   -0.42    0.26
   2   0  14   -0.17    0.38
  -5   1  14   -0.44    0.59
   4  -1 -14   -0.44    0.34
   4  -1 -14   -0.44    0.59
  -4   1  14   -0.63    0.59
   3  -1 -14   -0.47    0.52
   3  -1 -14   -0.35    0.32
  -3   1  14   -0.01    0.48
  -3   1  14   -0.10    0.59
   2  -1 -14   -0.36    0.31
   2  -1 -14   -0.12    0.50
  -2   1  14    0.05    0.47
  -2   1  14    0.08    0.60
   1  -1 -14    0.14    0.33
   1  -1 -14    0.53    0.51
  -1   1  14    0.13    0.58
  -1   1  14    0.58    0.43
   0  -1 -14    0.02    0.34
   0   1  14    0.10    0.56
  -1  -1 -14   -0.32    0.35
   1   1  14   -0.04    0.32
   1   1  14   -1.06    0.56
   2   1  14   -0.53    0.39
   4  -2 -14   -0.27    0.36
   4  -2 -14    0.44    0.60
  -4   2  14    0.36    0.64
   3  -2 -14   -0.36    0.53
   3  -2 -14   -0.36    0.36
  -3   2  14    0.02    0.62
  -3   2  14    0.54    0.51
   2  -2 -14    1.56    0.65
   2  -2 -14    1.00    0.41
  -2   2  14    1.90    0.58
  -2   2  14    1.44    0.64
   1  -2 -14    0.12    0.37
  -1   2  14    0.54    0.63
  -1   2  14    0.38    0.44
   0  -2 -14   -0.14    0.34
   0   2  14   -0.10    0.37
   0   2  14   -1.08    0.50
   1   2  14    0.27    0.36
   2   2  14    0.61    0.44
   3  -3 -14   -0.24    0.55
  -3   3  14    0.40    0.56
   2  -3 -14   -0.40    0.36
   2  -3 -14    0.23    0.52
  -2   3  14   -0.16    0.40
   1  -3 -14    0.37    0.41
  -1   3  14    0.67    0.46
   0  -3 -14    0.35    0.26
   0   3  14    0.11    0.37
  -1  -3 -14    0.07    0.30
   1   3  14    0.28    0.37
   3  -4 -14    0.19    0.55
  -2   4  14    0.11    0.46
  -1   4  14   -0.05    0.39
   0  -4 -14    0.16    0.27
   2   2 -15   -0.03    0.56
   1   2 -15   -0.23    0.56
   1   2 -15   -0.34    0.30
   0   2 -15   -0.54    0.28
   2   1 -15    1.12    0.65
   2   1 -15    0.21    0.33
   1   1 -15    0.49    0.58
   1   1 -15   -0.39    0.31
   0   1 -15    0.37    0.32
   0   1 -15   -0.19    0.33
   2   0 -15   -0.15    0.35
   2   0 -15   -0.58    0.54
   1   0 -15    0.18    0.35
   2  -1 -15    0.06    0.57
  -1   1  15   -0.14    0.43
   0   0   0    0.00    0.00
;
_shelx_hkl_checksum              71565
_shelx_res_file
;
TITL I in P-1
 shelx.res created by SHELXL-2016/4 at 20:02:17 on 14-Mar-2017
CELL  0.71073   7.1675   8.8143  10.6613   91.968   96.362   94.745
ZERR     2.00   0.0004   0.0006   0.0007    0.004    0.003    0.003
LATT   1
SFAC  C    H    N    O
UNIT  28 28 4 8
MERG   2
SHEL 100   0.7
HTAB N1 O4
HTAB N2 O3
HTAB N2 O1_$1
EQIV $1 -x+1,-y+2,-z+1
FMAP   2
PLAN   20
SIZE     0.200   0.240   0.280
ACTA
BOND   $H
CONF
L.S.  4
TEMP    22.00
WGHT    0.063200    0.383200
FVAR       0.43283
MOLE    1
C1    1    0.198073    0.491385    0.405463    11.00000    0.04398    0.04563 =
         0.05456    0.00493    0.01245    0.00284
C2    1    0.106349    0.400883    0.300619    11.00000    0.04570    0.05793 =
         0.05900   -0.00177    0.01158    0.00125
C3    1    0.072246    0.249113    0.316493    11.00000    0.05983    0.05735 =
         0.07484   -0.01065    0.01812   -0.00786
AFIX  43
H3    2    0.008907    0.188210    0.249572    11.00000   -1.20000
AFIX   0
C4    1    0.128432    0.181081    0.429105    11.00000    0.08168    0.04524 =
         0.09015    0.00206    0.02978   -0.00195
AFIX  43
H4    2    0.105614    0.076634    0.437016    11.00000   -1.20000
AFIX   0
C5    1    0.217123    0.271537    0.526509    11.00000    0.07907    0.05154 =
         0.06872    0.01560    0.02039    0.00568
AFIX  43
H5    2    0.256743    0.229168    0.602565    11.00000   -1.20000
AFIX   0
C6    1    0.054932    0.473054    0.178885    11.00000    0.08348    0.08937 =
         0.05960    0.00640   -0.00414    0.00484
AFIX 137
H6A   2   -0.003326    0.396615    0.117308    11.00000   -1.50000
H6B   2    0.166452    0.520748    0.149629    11.00000   -1.50000
H6C   2   -0.031501    0.548357    0.191184    11.00000   -1.50000
AFIX   0
C7    1    0.749418    0.969392    0.990026    11.00000    0.05059    0.04975 =
         0.05761    0.00592   -0.00018    0.00430
AFIX  43
H7    2    0.825134    1.060789    1.001807    11.00000   -1.20000
AFIX   0
C8    1    0.652597    0.930580    0.871693    11.00000    0.04295    0.04589 =
         0.04885    0.01102    0.00499    0.00937
C9    1    0.543404    0.789720    0.853570    11.00000    0.04811    0.04270 =
         0.04540    0.00768    0.00535    0.01069
C10   1    0.531808    0.699543    0.957771    11.00000    0.07102    0.04191 =
         0.05319    0.01221    0.00547    0.00862
AFIX  43
H10   2    0.458464    0.606925    0.947484    11.00000   -1.20000
AFIX   0
C11   1    0.624319    0.742001    1.074934    11.00000    0.08272    0.05469 =
         0.05080    0.01514    0.00309    0.01214
AFIX  43
H11   2    0.610918    0.680227    1.142917    11.00000   -1.20000
AFIX   0
C12   1    0.736508    0.876204    1.090686    11.00000    0.06976    0.06219 =
         0.04876    0.00672   -0.00292    0.01011
AFIX  43
H12   2    0.803702    0.904462    1.168821    11.00000   -1.20000
AFIX   0
C13   1    0.679271    1.050015    0.775382    11.00000    0.05448    0.05064 =
         0.06117    0.01496    0.00720    0.00551
C14   1    0.439824    0.718318    0.731354    11.00000    0.05110    0.05301 =
         0.05025    0.00955    0.00630    0.00380
N1    3    0.248171    0.422479    0.513718    11.00000    0.06193    0.04761 =
         0.05543    0.00649    0.00789    0.00232
H1    2    0.305220    0.489266    0.587459    11.00000    0.08140
N2    3    0.238533    0.640373    0.403877    11.00000    0.07894    0.04599 =
         0.05761    0.00486    0.00260   -0.00219
H2A   2    0.294890    0.692152    0.475310    11.00000    0.06861
H2B   2    0.214068    0.689683    0.329305    11.00000    0.10247
O1    4    0.808236    1.149084    0.796152    11.00000    0.07943    0.07399 =
         0.09165    0.03521   -0.00629   -0.02029
O2    4    0.561930    1.048988    0.673746    11.00000    0.08566    0.05474 =
         0.06082    0.02061   -0.00709   -0.00004
H2    2    0.458016    0.926934    0.658236    11.00000    0.07308
O3    4    0.388366    0.801180    0.641998    11.00000    0.08287    0.05930 =
         0.05972    0.01513   -0.01561   -0.00955
O4    4    0.407449    0.577952    0.724825    11.00000    0.09566    0.04931 =
         0.06005    0.00419   -0.00185   -0.00541
HKLF 4
REM  I in P-1
REM R1 =  0.0594 for    2056 Fo > 4sig(Fo)  and  0.1254 for all    3982 data
REM    198 parameters refined using      0 restraints
END
WGHT      0.0632      0.3832
REM Highest difference peak  0.228,  deepest hole -0.205,  1-sigma level  0.046
Q1    1   0.7069  0.9625  0.8236  11.00000  0.05    0.23
Q2    1   0.8535  1.2126  0.8630  11.00000  0.05    0.22
Q3    1   0.6683  1.1473  0.8043  11.00000  0.05    0.20
Q4    1   0.1610  0.3418  0.4128  11.00000  0.05    0.18
Q5    1   0.1277  0.5445  0.2706  11.00000  0.05    0.18
Q6    1   0.2770  0.5655  0.5045  11.00000  0.05    0.18
Q7    1   0.5648  0.5846  0.9576  11.00000  0.05    0.18
Q8    1   0.5902  0.6444  1.1705  11.00000  0.05    0.18
Q9    1   0.5811  0.7423  0.8985  11.00000  0.05    0.18
Q10   1   0.7621  1.1778  0.8996  11.00000  0.05    0.17
Q11   1   0.7465  1.1081  0.9809  11.00000  0.05    0.17
Q12   1   0.5505  0.8947  0.8592  11.00000  0.05    0.17
Q13   1   0.3651  0.6480  0.6369  11.00000  0.05    0.17
Q14   1   0.6975  1.0240  0.6604  11.00000  0.05    0.17
Q15   1   0.0269  0.2397  0.3776  11.00000  0.05    0.17
Q16   1   0.3392  0.6644  0.7407  11.00000  0.05    0.17
Q17   1   0.6605  0.6935  0.9905  11.00000  0.05    0.17
Q18   1   0.3697  0.4802  0.8286  11.00000  0.05    0.16
Q19   1   0.5052  0.7608  0.8014  11.00000  0.05    0.16
Q20   1   0.5040  0.7587  0.9054  11.00000  0.05    0.16
;
_shelx_res_checksum              77533
loop_
_space_group_symop_operation_xyz
'x, y, z'
'-x, -y, -z'
loop_
_atom_site_type_symbol
_atom_site_label
_atom_site_fract_x
_atom_site_fract_y
_atom_site_fract_z
_atom_site_U_iso_or_equiv
_atom_site_adp_type
_atom_site_calc_flag
_atom_site_occupancy
C C1 0.1981(3) 0.4914(2) 0.4055(2) 0.0475(5) Uani d 1
C C2 0.1063(3) 0.4009(3) 0.3006(2) 0.0541(6) Uani d 1
C C3 0.0722(4) 0.2491(3) 0.3165(3) 0.0643(7) Uani d 1
H H3 0.008907 0.188210 0.249572 0.077 Uiso calc 1
C C4 0.1284(4) 0.1811(3) 0.4291(3) 0.0713(8) Uani d 1
H H4 0.105614 0.076634 0.437016 0.086 Uiso calc 1
C C5 0.2171(4) 0.2715(3) 0.5265(3) 0.0652(7) Uani d 1
H H5 0.256743 0.229168 0.602565 0.078 Uiso calc 1
C C6 0.0549(4) 0.4731(4) 0.1789(3) 0.0785(8) Uani d 1
H H6A -0.003326 0.396615 0.117308 0.118 Uiso calc 1
H H6B 0.166452 0.520748 0.149629 0.118 Uiso calc 1
H H6C -0.031501 0.548357 0.191184 0.118 Uiso calc 1
C C7 0.7494(3) 0.9694(3) 0.9900(2) 0.0530(5) Uani d 1
H H7 0.825134 1.060789 1.001807 0.064 Uiso calc 1
C C8 0.6526(3) 0.9306(2) 0.8717(2) 0.0454(5) Uani d 1
C C9 0.5434(3) 0.7897(2) 0.85357(19) 0.0449(5) Uani d 1
C C10 0.5318(4) 0.6995(3) 0.9578(2) 0.0551(6) Uani d 1
H H10 0.458464 0.606925 0.947484 0.066 Uiso calc 1
C C11 0.6243(4) 0.7420(3) 1.0749(2) 0.0624(6) Uani d 1
H H11 0.610918 0.680227 1.142917 0.075 Uiso calc 1
C C12 0.7365(4) 0.8762(3) 1.0907(2) 0.0606(6) Uani d 1
H H12 0.803702 0.904462 1.168821 0.073 Uiso calc 1
C C13 0.6793(3) 1.0500(3) 0.7754(2) 0.0550(6) Uani d 1
C C14 0.4398(3) 0.7183(3) 0.7314(2) 0.0513(5) Uani d 1
N N1 0.2482(3) 0.4225(2) 0.5137(2) 0.0549(5) Uani d 1
H H1 0.305(4) 0.489(3) 0.587(3) 0.081(9) Uiso d 1
N N2 0.2385(3) 0.6404(2) 0.4039(2) 0.0616(6) Uani d 1
H H2A 0.295(4) 0.692(3) 0.475(3) 0.069(8) Uiso d 1
H H2B 0.214(5) 0.690(4) 0.329(4) 0.102(11) Uiso d 1
O O1 0.8082(3) 1.1491(2) 0.7962(2) 0.0837(6) Uani d 1
O O2 0.5619(3) 1.0490(2) 0.67375(17) 0.0682(5) Uani d 1
H H2 0.458(4) 0.927(3) 0.658(3) 0.073(8) Uiso d 1
O O3 0.3884(3) 0.8012(2) 0.64200(17) 0.0697(5) Uani d 1
O O4 0.4074(3) 0.57795(19) 0.72482(17) 0.0698(5) Uani d 1
loop_
_atom_site_aniso_label
_atom_site_aniso_U_11
_atom_site_aniso_U_22
_atom_site_aniso_U_33
_atom_site_aniso_U_12
_atom_site_aniso_U_13
_atom_site_aniso_U_23
C1 0.0440(11) 0.0456(11) 0.0546(12) 0.0028(9) 0.0125(9) 0.0049(9)
C2 0.0457(12) 0.0579(13) 0.0590(13) 0.0013(10) 0.0116(10) -0.0018(11)
C3 0.0598(15) 0.0574(14) 0.0748(17) -0.0079(11) 0.0181(13) -0.0106(13)
C4 0.0817(19) 0.0452(13) 0.090(2) -0.0019(12) 0.0298(16) 0.0021(13)
C5 0.0791(17) 0.0515(14) 0.0687(16) 0.0057(12) 0.0204(14) 0.0156(12)
C6 0.0835(19) 0.089(2) 0.0596(16) 0.0048(16) -0.0041(14) 0.0064(14)
C7 0.0506(12) 0.0498(12) 0.0576(13) 0.0043(10) -0.0002(10) 0.0059(10)
C8 0.0430(11) 0.0459(11) 0.0488(11) 0.0094(9) 0.0050(9) 0.0110(9)
C9 0.0481(11) 0.0427(11) 0.0454(11) 0.0107(9) 0.0053(9) 0.0077(9)
C10 0.0710(15) 0.0419(11) 0.0532(13) 0.0086(10) 0.0055(11) 0.0122(10)
C11 0.0827(17) 0.0547(14) 0.0508(13) 0.0121(12) 0.0031(12) 0.0151(11)
C12 0.0698(15) 0.0622(15) 0.0488(13) 0.0101(12) -0.0029(11) 0.0067(11)
C13 0.0545(13) 0.0506(13) 0.0612(14) 0.0055(10) 0.0072(11) 0.0150(10)
C14 0.0511(12) 0.0530(13) 0.0502(12) 0.0038(10) 0.0063(10) 0.0095(10)
N1 0.0619(12) 0.0476(11) 0.0554(11) 0.0023(9) 0.0079(9) 0.0065(9)
N2 0.0789(15) 0.0460(11) 0.0576(13) -0.0022(10) 0.0026(11) 0.0049(10)
O1 0.0794(13) 0.0740(13) 0.0917(14) -0.0203(10) -0.0063(11) 0.0352(11)
O2 0.0857(12) 0.0547(10) 0.0608(10) 0.0000(9) -0.0071(9) 0.0206(8)
O3 0.0829(12) 0.0593(11) 0.0597(10) -0.0096(9) -0.0156(9) 0.0151(8)
O4 0.0957(14) 0.0493(10) 0.0600(10) -0.0054(9) -0.0018(9) 0.0042(8)
loop_
_atom_type_symbol
_atom_type_description
_atom_type_scat_dispersion_real
_atom_type_scat_dispersion_imag
_atom_type_scat_source
C C 0.0033 0.0016 'International Tables Vol C Tables 4.2.6.8 and 6.1.1.4'
H H 0.0000 0.0000 'International Tables Vol C Tables 4.2.6.8 and 6.1.1.4'
N N 0.0061 0.0033 'International Tables Vol C Tables 4.2.6.8 and 6.1.1.4'
O O 0.0106 0.0060 'International Tables Vol C Tables 4.2.6.8 and 6.1.1.4'
loop_
_geom_angle_atom_site_label_1
_geom_angle_atom_site_label_2
_geom_angle_atom_site_label_3
_geom_angle
N2 C1 N1 117.6(2)
N2 C1 C2 123.9(2)
N1 C1 C2 118.6(2)
C3 C2 C1 117.4(2)
C3 C2 C6 122.9(2)
C1 C2 C6 119.7(2)
C2 C3 C4 122.6(3)
C2 C3 H3 118.7
C4 C3 H3 118.7
C5 C4 C3 118.0(2)
C5 C4 H4 121.0
C3 C4 H4 121.0
N1 C5 C4 120.2(3)
N1 C5 H5 119.9
C4 C5 H5 119.9
C2 C6 H6A 109.5
C2 C6 H6B 109.5
H6A C6 H6B 109.5
C2 C6 H6C 109.5
H6A C6 H6C 109.5
H6B C6 H6C 109.5
C12 C7 C8 121.9(2)
C12 C7 H7 119.1
C8 C7 H7 119.1
C7 C8 C9 118.69(19)
C7 C8 C13 113.89(19)
C9 C8 C13 127.4(2)
C10 C9 C8 117.8(2)
C10 C9 C14 114.34(19)
C8 C9 C14 127.84(19)
C11 C10 C9 122.6(2)
C11 C10 H10 118.7
C9 C10 H10 118.7
C12 C11 C10 119.3(2)
C12 C11 H11 120.3
C10 C11 H11 120.3
C11 C12 C7 119.7(2)
C11 C12 H12 120.2
C7 C12 H12 120.2
O1 C13 O2 120.6(2)
O1 C13 C8 119.3(2)
O2 C13 C8 120.1(2)
O4 C14 O3 122.6(2)
O4 C14 C9 117.2(2)
O3 C14 C9 120.2(2)
C5 N1 C1 123.1(2)
C5 N1 H1 119.8(18)
C1 N1 H1 117.0(18)
C1 N2 H2A 119.4(17)
C1 N2 H2B 120(2)
H2A N2 H2B 121(3)
C13 O2 H2 111.5(12)
C14 O3 H2 112.0(13)
loop_
_geom_bond_atom_site_label_1
_geom_bond_atom_site_label_2
_geom_bond_distance
C1 N2 1.322(3)
C1 N1 1.350(3)
C1 C2 1.417(3)
C2 C3 1.360(3)
C2 C6 1.488(4)
C3 C4 1.395(4)
C3 H3 0.9300
C4 C5 1.353(4)
C4 H4 0.9300
C5 N1 1.345(3)
C5 H5 0.9300
C6 H6A 0.9600
C6 H6B 0.9600
C6 H6C 0.9600
C7 C12 1.380(3)
C7 C8 1.388(3)
C7 H7 0.9300
C8 C9 1.407(3)
C8 C13 1.511(3)
C9 C10 1.394(3)
C9 C14 1.516(3)
C10 C11 1.372(3)
C10 H10 0.9300
C11 C12 1.369(4)
C11 H11 0.9300
C12 H12 0.9300
C13 O1 1.214(3)
C13 O2 1.295(3)
C14 O4 1.238(3)
C14 O3 1.262(3)
N1 H1 0.99(3)
N2 H2A 0.91(3)
N2 H2B 0.93(4)
O2 H2 1.25(3)
O3 H2 1.18(3)
loop_
_geom_hbond_atom_site_label_D
_geom_hbond_atom_site_label_H
_geom_hbond_atom_site_label_A
_geom_hbond_site_symmetry_A
_geom_hbond_distance_DH
_geom_hbond_distance_HA
_geom_hbond_distance_DA
_geom_hbond_angle_DHA
_geom_hbond_publ_flag
O3 H2 O2 . 1.18(3) 1.25(3) 2.417(2) 169(2) y
N1 H1 O4 . 0.99(3) 1.70(3) 2.685(3) 171(3) y
N2 H2A O3 . 0.91(3) 2.01(3) 2.916(3) 173(2) y
N2 H2B O1 2_676 0.93(4) 1.99(4) 2.885(3) 162(3) y
loop_
_geom_torsion_atom_site_label_1
_geom_torsion_atom_site_label_2
_geom_torsion_atom_site_label_3
_geom_torsion_atom_site_label_4
_geom_torsion
N2 C1 C2 C3 -179.4(2)
N1 C1 C2 C3 0.8(3)
N2 C1 C2 C6 1.7(4)
N1 C1 C2 C6 -178.1(2)
C1 C2 C3 C4 -1.8(4)
C6 C2 C3 C4 177.0(3)
C2 C3 C4 C5 1.3(4)
C3 C4 C5 N1 0.3(4)
C12 C7 C8 C9 -2.1(3)
C12 C7 C8 C13 177.8(2)
C7 C8 C9 C10 2.8(3)
C13 C8 C9 C10 -177.1(2)
C7 C8 C9 C14 -174.5(2)
C13 C8 C9 C14 5.5(4)
C8 C9 C10 C11 -1.0(3)
C14 C9 C10 C11 176.7(2)
C9 C10 C11 C12 -1.6(4)
C10 C11 C12 C7 2.4(4)
C8 C7 C12 C11 -0.6(4)
C7 C8 C13 O1 16.2(3)
C9 C8 C13 O1 -163.9(2)
C7 C8 C13 O2 -161.7(2)
C9 C8 C13 O2 18.3(4)
C10 C9 C14 O4 -21.6(3)
C8 C9 C14 O4 155.8(2)
C10 C9 C14 O3 157.6(2)
C8 C9 C14 O3 -24.9(3)
C4 C5 N1 C1 -1.4(4)
N2 C1 N1 C5 -179.0(2)
C2 C1 N1 C5 0.8(3)

_cod_database_fobs_code 1545620
