#------------------------------------------------------------------------------
#$Date: 2017-03-04 16:37:05 +0200 (Sat, 04 Mar 2017) $
#$Revision: 193642 $
#$URL: file:///home/coder/svn-repositories/cod/cif/1/54/51/1545169.cif $
#------------------------------------------------------------------------------
#
# This file is available in the Crystallography Open Database (COD),
# http://www.crystallography.net/
#
# All data on this site have been placed in the public domain by the
# contributors.
#
data_1545169
loop_
_publ_author_name
'Sempere Molina, Yeshua'
'Ruchti, Jonathan'
'Carreira, Erick M.'
_publ_section_title
;
 Enantioselective Addition of Alkynes to \a,\a-Dichlorinated Aldehydes.
;
_journal_issue                   4
_journal_name_full               'Organic letters'
_journal_page_first              743
_journal_page_last               745
_journal_paper_doi               10.1021/acs.orglett.6b03692
_journal_volume                  19
_journal_year                    2017
_chemical_absolute_configuration ad
_chemical_formula_moiety         'C15 H18 Cl2 O2'
_chemical_formula_sum            'C15 H18 Cl2 O2'
_chemical_formula_weight         301.19
_chemical_name_systematic
(-)-R-1-(benzyloxy)-5,5-dichloro-6-methylhept-2-yn-4-ol
_space_group_crystal_system      monoclinic
_space_group_IT_number           4
_space_group_name_Hall           'P 2yb'
_space_group_name_H-M_alt        'P 1 21 1'
_symmetry_space_group_name_Hall  'P 2yb'
_symmetry_space_group_name_H-M   'P 1 21 1'
_atom_sites_solution_hydrogens   mixed
_audit_creation_date             2015-10-15
_audit_creation_method
;
Olex2 1.2
(compiled 2015.09.30 svn.r3233 for OlexSys, GUI svn.r5103)
;
_cell_angle_alpha                90
_cell_angle_beta                 90.423(2)
_cell_angle_gamma                90
_cell_formula_units_Z            2
_cell_length_a                   5.9062(3)
_cell_length_b                   9.1377(4)
_cell_length_c                   13.7532(6)
_cell_measurement_reflns_used    2726
_cell_measurement_temperature    100.0(2)
_cell_measurement_theta_max      27.26
_cell_measurement_theta_min      2.96
_cell_volume                     742.23(6)
_computing_cell_refinement       'Bruker SAINT'
_computing_data_collection       'Bruker APEX2'
_computing_data_reduction        'Bruker SAINT'
_computing_molecular_graphics    'Olex2 (Dolomanov et al., 2009)'
_computing_publication_material  'Olex2 (Dolomanov et al., 2009)'
_computing_structure_refinement  'XL (Sheldrick, 2008)'
_computing_structure_solution    'olex2.solve (Bourhis et al., 2015)'
_diffrn_ambient_temperature      100.0(2)
_diffrn_detector                 'Bruker APEX2 area detector'
_diffrn_detector_area_resol_mean 8.33
_diffrn_detector_type            'CCD area detector'
_diffrn_measured_fraction_theta_full 0.987
_diffrn_measured_fraction_theta_max 0.984
_diffrn_measurement_device       'kappa-stage diffractometer'
_diffrn_measurement_device_type  'Bruker/Nonius Kappa Apex2'
_diffrn_measurement_method       '\w and \f scans'
_diffrn_radiation_monochromator  graphite
_diffrn_radiation_probe          x-ray
_diffrn_radiation_type           MoK\a
_diffrn_radiation_wavelength     0.71073
_diffrn_reflns_av_R_equivalents  0.0750
_diffrn_reflns_av_unetI/netI     0.0792
_diffrn_reflns_Laue_measured_fraction_full 0.987
_diffrn_reflns_Laue_measured_fraction_max 0.984
_diffrn_reflns_limit_h_max       7
_diffrn_reflns_limit_h_min       -7
_diffrn_reflns_limit_k_max       11
_diffrn_reflns_limit_k_min       -8
_diffrn_reflns_limit_l_max       17
_diffrn_reflns_limit_l_min       -17
_diffrn_reflns_number            6284
_diffrn_reflns_point_group_measured_fraction_full 0.912
_diffrn_reflns_point_group_measured_fraction_max 0.892
_diffrn_reflns_theta_full        26.000
_diffrn_reflns_theta_max         27.486
_diffrn_reflns_theta_min         2.676
_diffrn_source                   'sealed tube'
_diffrn_standards_number         0
_exptl_absorpt_coefficient_mu    0.432
_exptl_absorpt_correction_T_max  0.7456
_exptl_absorpt_correction_T_min  0.6908
_exptl_absorpt_correction_type   multi-scan
_exptl_absorpt_process_details
;
SADABS-2014/5 (Bruker,2014/5) was used for absorption correction.
wR2(int) was 0.0788 before and 0.0420 after correction.
The Ratio of minimum to maximum transmission is 0.9265.
The \l/2 correction factor is 0.00150.
;
_exptl_crystal_colour            'clear colourless'
_exptl_crystal_colour_lustre     clear
_exptl_crystal_colour_primary    colourless
_exptl_crystal_density_diffrn    1.348
_exptl_crystal_description       block
_exptl_crystal_F_000             316
_exptl_crystal_size_max          0.22
_exptl_crystal_size_mid          0.17
_exptl_crystal_size_min          0.035
_refine_diff_density_max         0.406
_refine_diff_density_min         -0.303
_refine_diff_density_rms         0.061
_refine_ls_abs_structure_details
;
 Flack x determined using 1033 quotients [(I+)-(I-)]/[(I+)+(I-)]
 (Parsons, Flack and Wagner, Acta Cryst. B69 (2013) 249-259).
;
_refine_ls_abs_structure_Flack   -0.04(5)
_refine_ls_extinction_method     none
_refine_ls_goodness_of_fit_ref   0.975
_refine_ls_hydrogen_treatment    mixed
_refine_ls_matrix_type           full
_refine_ls_number_parameters     177
_refine_ls_number_reflns         3051
_refine_ls_number_restraints     2
_refine_ls_restrained_S_all      0.975
_refine_ls_R_factor_all          0.0423
_refine_ls_R_factor_gt           0.0367
_refine_ls_shift/su_max          0.000
_refine_ls_shift/su_mean         0.000
_refine_ls_structure_factor_coef Fsqd
_refine_ls_weighting_details
'w=1/[\s^2^(Fo^2^)+(0.0153P)^2^] where P=(Fo^2^+2Fc^2^)/3'
_refine_ls_weighting_scheme      calc
_refine_ls_wR_factor_gt          0.0668
_refine_ls_wR_factor_ref         0.0689
_reflns_Friedel_coverage         0.705
_reflns_Friedel_fraction_full    0.826
_reflns_Friedel_fraction_max     0.787
_reflns_number_gt                2746
_reflns_number_total             3051
_reflns_threshold_expression     'I > 2\s(I)'
_cod_data_source_file            ol6b03692_si_002.cif
_cod_data_source_block           ca111015_1_1_01
_cod_depositor_comments          'Adding full bibliography for 1545169.cif.'
_cod_database_code               1545169
_shelxl_version_number           2014/6
_shelx_space_group_comment
;
The symmetry employed for this shelxl refinement is uniquely defined
by the following loop, which should always be used as a source of
symmetry information in preference to the above space-group names.
They are only intended as comments.
;
_shelx_estimated_absorpt_t_max   0.985
_shelx_estimated_absorpt_t_min   0.911
_olex2_refinement_description
;
1. Fixed Uiso
 At 1.2 times of:
  All C(H) groups, All C(H,H) groups
 At 1.5 times of:
  All C(H,H,H) groups, All O(H) groups
2. Restrained distances
 O4-H4
 0.91 with sigma of 0.02
3.a Ternary CH refined with riding coordinates:
 C9(H9), C16(H16)
3.b Secondary CH2 refined with riding coordinates:
 C11(H11A,H11B), C14(H14A,H14B)
3.c Aromatic/amide H refined with riding coordinates:
 C5(H5), C8(H8), C10(H10), C15(H15), C18(H18)
3.d Idealised Me refined as rotating group:
 C12(H12A,H12B,H12C), C19(H19A,H19B,H19C)
;
_shelx_res_file
;
TITL
CELL 0.71073 5.9062 9.1377 13.7532 90 90.423 90
ZERR 2 0.0003 0.0004 0.0006 0 0.002 0
LATT -1
SYMM -X,0.5+Y,-Z
SFAC C H Cl O
UNIT 30 36 4 4
DFIX 0.91 O4 H4

L.S. 10
PLAN  10
SIZE 0.035 0.17 0.22
TEMP -173.1(2)
MORE -1
BOND $H
CONF
fmap 2
acta 52
OMIT 0 0 1
OMIT 1 10 1
REM <olex2.extras>
REM <HklSrc "%.\\ca111015_1_1_01.hkl">
REM </olex2.extras>

WGHT    0.015300
FVAR       0.94185
CL1   3    0.188871    0.606812    0.301117    11.00000    0.01846    0.01330 =
         0.01932    0.00031    0.00304   -0.00242
CL2   3    0.592633    0.734887    0.388232    11.00000    0.01422    0.03012 =
         0.01572    0.00305   -0.00392    0.00397
O3    4    1.044132    0.635638    0.037201    11.00000    0.01328    0.01236 =
         0.01580   -0.00178    0.00615   -0.00223
O4    4    0.240470    0.862353    0.155520    11.00000    0.01688    0.01220 =
         0.01366    0.00000   -0.00453    0.00245
H4    2    0.191419    0.784360    0.126513    11.00000   -1.50000
C5    1    1.468726    0.718942   -0.108289    11.00000    0.01447    0.01485 =
         0.01386   -0.00303   -0.00137    0.00246
AFIX  43
H5    2    1.572768    0.708255   -0.055761    11.00000   -1.20000
AFIX   0
C6    1    1.264109    0.642920   -0.107648    11.00000    0.01379    0.00751 =
         0.01300   -0.00282    0.00339    0.00144
C7    1    0.583476    0.722422    0.170145    11.00000    0.01438    0.01280 =
         0.00982    0.00217    0.00022   -0.00345
C8    1    1.116507    0.658429   -0.185725    11.00000    0.01476    0.01505 =
         0.01495   -0.00327    0.00112   -0.00422
AFIX  43
H8    2    0.977494    0.606123   -0.186242    11.00000   -1.20000
AFIX   0
C9    1    0.194092    0.885793    0.369695    11.00000    0.01426    0.01745 =
         0.01028   -0.00166   -0.00095    0.00249
AFIX  13
H9    2    0.052158    0.897301    0.330343    11.00000   -1.20000
AFIX   0
C10   1    1.520431    0.810159   -0.185584    11.00000    0.01287    0.01555 =
         0.01980   -0.00115    0.00146   -0.00231
AFIX  43
H10   2    1.659844    0.862015   -0.185529    11.00000   -1.20000
AFIX   0
C11   1    1.196659    0.549700   -0.022029    11.00000    0.01312    0.01410 =
         0.01454   -0.00069    0.00328    0.00234
AFIX  23
H11A  2    1.120229    0.459452   -0.044831    11.00000   -1.20000
H11B  2    1.332297    0.521494    0.016318    11.00000   -1.20000
AFIX   0
C12   1    0.125896    0.834489    0.471276    11.00000    0.01879    0.03231 =
         0.01249   -0.00360    0.00342    0.00098
AFIX 137
H12A  2    0.063434    0.735296    0.467257    11.00000   -1.50000
H12B  2    0.011343    0.900954    0.497511    11.00000   -1.50000
H12C  2    0.259239    0.834364    0.514108    11.00000   -1.50000
AFIX   0
C13   1    0.713434    0.643993    0.130694    11.00000    0.01270    0.01487 =
         0.01335    0.00315   -0.00101   -0.00306
C14   1    0.872430    0.547116    0.080429    11.00000    0.01426    0.01431 =
         0.01532   -0.00014    0.00483   -0.00121
AFIX  23
H14A  2    0.941529    0.477625    0.127225    11.00000   -1.20000
H14B  2    0.791764    0.490214    0.029653    11.00000   -1.20000
AFIX   0
C15   1    1.371887    0.826311   -0.262333    11.00000    0.02262    0.01507 =
         0.01223    0.00118    0.00318   -0.00139
AFIX  43
H15   2    1.407729    0.889886   -0.314663    11.00000   -1.20000
AFIX   0
C16   1    0.426790    0.826527    0.215838    11.00000    0.01467    0.00916 =
         0.01227    0.00146   -0.00153    0.00075
AFIX  13
H16   2    0.513535    0.919147    0.226711    11.00000   -1.20000
AFIX   0
C17   1    0.344765    0.774513    0.317095    11.00000    0.01024    0.01201 =
         0.01051    0.00231   -0.00318   -0.00199
C18   1    1.168786    0.749034   -0.262937    11.00000    0.02124    0.02222 =
         0.01480    0.00021   -0.00202   -0.00223
AFIX  43
H18   2    1.066451    0.758484   -0.316183    11.00000   -1.20000
AFIX   0
C19   1    0.307047    1.036514    0.376447    11.00000    0.02516    0.01756 =
         0.01927   -0.00548   -0.00010    0.00301
AFIX 137
H19A  2    0.212699    1.102070    0.415374    11.00000   -1.50000
H19B  2    0.324291    1.077199    0.310989    11.00000   -1.50000
H19C  2    0.456369    1.026634    0.407294    11.00000   -1.50000
AFIX   0
HKLF 4

REM
REM R1 =  0.0367 for    2746 Fo > 4sig(Fo)  and  0.0423 for all    3051 data
REM    177 parameters refined using      2 restraints

END

WGHT      0.0153      0.0000

REM Highest difference peak  0.406,  deepest hole -0.303,  1-sigma level  0.061
Q1    1   0.7197  0.7381  0.1339  11.00000  0.05    0.39
Q2    1   0.4604  0.7226  0.2067  11.00000  0.05    0.38
Q3    1   0.7273  0.7408  0.3394  11.00000  0.05    0.33
Q4    1   0.2948  0.6082  0.2632  11.00000  0.05    0.30
Q5    1   0.1979  0.5009  0.2975  11.00000  0.05    0.30
Q6    1   0.0363  0.6056  0.3578  11.00000  0.05    0.29
Q7    1   0.1937  0.7123  0.2948  11.00000  0.05    0.28
Q8    1   0.4855  0.7341  0.4280  11.00000  0.05    0.28
Q9    1   0.4278  0.7849  0.2769  11.00000  0.05    0.26
Q10   1   1.5323  0.7331 -0.1584  11.00000  0.05    0.26
;
_shelx_res_checksum              78294
_shelx_hkl_file
;
   0   0  -1   -0.09    0.32
   0   0   1   -0.02    0.31
   0   0  -2 1216.70   16.90
   0   0  -2 1249.00   17.30
   0   0   2 1221.80   17.00
   0   0   2 1222.70   16.90
   0   0  -3  195.11    8.74
   0   0  -3  198.21    8.98
   0   0   3  203.77    9.00
   0   0   3  207.42    8.97
   0   0  -4  836.23   20.00
   0   0  -4  882.93   20.83
   0   0   4  874.19   20.59
   0   0   4  849.65   20.12
   0   0  -5    5.51    3.11
   0   0  -5    2.17    3.19
   0   0   5    3.99    3.16
   0   0   5    2.29    3.01
   0   0  -6  272.27   14.93
   0   0   6  258.80   14.53
   0   0   6  250.86   13.94
   0   0  -7  113.28   11.23
   0   0   7  110.19   11.07
   0   0   7   97.68    9.94
   0   0  -8   25.07    6.72
   0   0  -8   29.22    7.87
   0   0   8   26.95    6.89
   0   0  -9  728.79   29.42
   0   0   9  745.16   29.36
   0   0 -10  560.06   27.57
   0   0  10  520.34   26.30
   0   0 -11    4.23    5.89
   0   0  11    3.48    5.00
   0   0 -12  354.71   25.48
   0   0  12  352.60   24.75
   0   0 -13  230.67   21.87
   0   0  13  190.80   19.76
   0   0 -14  490.08   32.15
   0   0  14  393.00   28.40
   0   0 -15   80.42   17.63
   0   0  15   78.10   17.35
   0   0 -16   46.80   14.53
   0   0  16   38.13   12.89
   0   0 -17   45.22   15.52
   0   0  17   38.55   13.71
   0   1   0   -0.07    0.42
   0   1   0    1.31    0.56
   0  -1  -1 1334.30   14.50
   0  -1   1    0.01    0.16
   0  -1   1 1338.30   10.80
   0   1  -1 1044.80    9.90
   0   1  -1 1292.40   11.00
   0   1   1 2094.40   18.30
   0   1   1 1182.20   13.80
   0  -1  -2 2589.40   26.50
   0  -1  -2 1816.40   22.40
   0  -1   2 1763.90   18.80
   0  -1   2 1793.30   18.90
   0   1  -2 1784.90   19.10
   0   1  -2 1886.00   19.80
   0   1   2 2545.60   26.60
   0   1   2 1773.80   22.10
   0  -1  -3 1543.30   24.60
   0  -1  -3 1299.00   22.80
   0  -1   3 1274.30   20.20
   0  -1   3 1281.10   20.10
   0   1  -3 1278.40   20.40
   0   1  -3 1350.80   21.10
   0   1   3 1266.60   22.60
   0   1   3 1261.30   22.30
   0  -1  -4 1203.50   25.10
   0  -1   4 1148.80   22.50
   0  -1   4 1180.40   22.60
   0   1  -4 1129.80   22.40
   0   1  -4 1171.90   23.10
   0   1   4 1161.70   24.80
   0   1   4 1128.10   24.10
   0  -1  -5  838.18   23.18
   0  -1  -5  707.61   21.69
   0  -1   5  638.05   19.12
   0  -1   5  680.83   19.56
   0   1  -5  635.52   19.15
   0   1  -5  714.19   20.55
   0   1   5  683.45   21.32
   0   1   5  629.47   20.17
   0  -1  -6  611.74   21.85
   0  -1  -6  533.14   20.83
   0  -1   6  499.22   18.95
   0  -1   6  508.39   18.71
   0   1  -6  501.26   18.86
   0   1  -6  550.91   20.16
   0   1   6  493.99   20.05
   0   1   6  513.81   20.07
   0  -1  -7  252.45   15.91
   0  -1   7  254.43   15.14
   0  -1   7  246.74   14.50
   0   1  -7  257.39   15.07
   0   1  -7  274.07   16.03
   0   1   7  280.48   16.59
   0  -1  -8  419.50   21.56
   0  -1   8  411.07   20.12
   0   1  -8  415.85   20.12
   0   1  -8  440.85   21.28
   0   1   8  424.74   21.59
   0  -1  -9  312.17   20.23
   0  -1   9  256.61   17.22
   0   1  -9  237.86   17.31
   0   1   9  262.53   18.43
   0  -1 -10    8.48    5.63
   0  -1  10   10.63    5.79
   0   1 -10   16.78    7.19
   0   1  10    8.48    5.63
   0  -1 -11  290.29   21.98
   0  -1  11  287.76   20.64
   0   1 -11  291.17   21.44
   0   1  11  308.29   22.46
   0  -1 -12 1290.80   46.80
   0  -1  12 1262.40   44.30
   0   1 -12 1379.30   47.30
   0   1  12 1289.00   46.50
   0  -1 -13   67.45   14.51
   0  -1  13   45.74   11.65
   0   1 -13   79.13   15.54
   0   1  13   68.59   14.48
   0  -1 -14  381.67   29.23
   0  -1  14  371.02   27.38
   0   1 -14  334.14   26.87
   0   1  14  362.67   28.14
   0  -1 -15    8.38    8.78
   0  -1  15    4.93    7.16
   0   1 -15   -1.85    6.03
   0   1  15    7.84    7.82
   0  -1 -16   15.32    9.83
   0  -1  16    7.66    8.89
   0   1 -16   16.75   10.65
   0   1  16   15.81    9.72
   0  -1 -17   18.93   12.22
   0  -1  17   32.88   12.56
   0   1 -17   35.44   13.90
   0   1  17   40.60   14.10
   0  -2   0 5351.80   27.70
   0   2   0 4872.60   24.20
   0   2   0 5534.80   38.80
   0  -2  -1 1401.20   16.80
   0  -2   1 1293.30    9.60
   0  -2   1 1362.90    9.80
   0   2  -1 1305.40   11.90
   0   2  -1 1455.00   12.60
   0   2   1 1315.20   16.90
   0  -2  -2 1027.90   18.20
   0  -2   2 1042.70   13.20
   0   2  -2 1020.10   14.10
   0   2  -2 1119.70   14.80
   0   2   2 1473.60   22.20
   0   2   2 1011.50   18.20
   0  -2  -3 2776.70   34.40
   0  -2  -3 1863.70   28.60
   0  -2   3 1858.80   22.80
   0  -2   3 1872.10   22.80
   0   2  -3 1817.60   23.40
   0   2  -3 1889.30   24.10
   0   2   3 2575.90   33.90
   0   2   3 1816.60   28.30
   0  -2  -4  501.94   16.90
   0  -2  -4  351.26   14.43
   0  -2   4  325.94   11.71
   0  -2   4  347.61   11.93
   0   2  -4  335.95   12.14
   0   2  -4  364.10   12.91
   0   2   4  346.42   14.58
   0   2   4  306.09   13.48
   0  -2  -5  770.37   22.95
   0  -2  -5  500.90   19.08
   0  -2   5  474.25   16.02
   0  -2   5  515.84   16.54
   0   2  -5  497.82   16.65
   0   2  -5  532.88   17.51
   0   2   5  501.19   19.12
   0   2   5  517.06   19.07
   0  -2  -6   57.32    8.69
   0  -2  -6   40.01    7.81
   0  -2   6   40.08    6.82
   0  -2   6   34.38    6.22
   0   2  -6   41.54    7.13
   0   2  -6   33.75    6.60
   0   2   6   49.00    8.73
   0   2   6   31.55    6.72
   0  -2  -7  260.66   16.41
   0  -2   7  265.33   14.77
   0  -2   7  274.95   17.27
   0   2  -7  242.83   14.37
   0   2  -7  250.63   15.04
   0   2   7  277.59   17.12
   0   2   7  280.64   16.73
   0  -2  -8  224.04   16.49
   0  -2   8  208.38   14.27
   0   2  -8  213.90   14.48
   0   2  -8  221.88   15.28
   0   2   8  207.83   15.90
   0  -2  -9  186.44   16.34
   0  -2   9  150.72   13.36
   0   2  -9  175.10   14.24
   0   2  -9  161.79   14.29
   0   2   9  176.60   15.77
   0  -2 -10  505.64   27.12
   0  -2  10  486.62   24.37
   0   2 -10  494.51   25.39
   0   2  10  475.73   26.42
   0  -2 -11   46.93   11.63
   0  -2  11   46.84   10.47
   0   2 -11   62.04   12.37
   0   2  11   51.35   12.02
   0  -2 -12  209.38   20.60
   0  -2  12  190.77   17.65
   0   2 -12  159.09   17.32
   0   2  12  184.43   19.14
   0  -2 -13   -6.40    3.99
   0  -2  13    0.26    5.06
   0   2 -13   -6.58    4.40
   0   2  13   -2.06    5.02
   0  -2 -14  405.06   30.23
   0  -2  14  430.92   28.78
   0   2 -14  395.62   29.10
   0   2  14  422.96   30.75
   0  -2 -15  241.90   25.67
   0  -2  15  200.57   21.29
   0   2 -15  254.43   25.25
   0   2  15  242.53   25.01
   0  -2 -16   47.83   15.27
   0  -2  16   39.71   13.20
   0   2 -16   50.24   15.27
   0   2  16   50.60   14.80
   0  -2 -17   66.06   18.19
   0  -2  17   40.50   14.21
   0   2 -17   51.41   16.18
   0   2  17   34.51   14.22
   0  -3   0    0.62    1.15
   0  -3   0    0.81    1.12
   0   3   0   -0.11    1.21
   0   3   0    0.23    1.41
   0  -3  -1  265.98    8.16
   0   3  -1  245.17    6.33
   0   3  -1  277.65    6.73
   0   3   1  247.88    8.56
   0  -3  -2 1093.40   19.80
   0  -3  -2 1173.80   20.30
   0  -3   2 1074.80   11.50
   0  -3   2 1078.60   11.40
   0   3  -2 1057.80   14.60
   0   3  -2 1212.20   15.70
   0   3   2 1719.70   25.90
   0   3   2 1065.30   20.20
   0  -3  -3  593.73   17.06
   0  -3  -3  573.72   16.52
   0  -3   3  576.47   11.72
   0   3  -3  567.19   13.07
   0   3  -3  602.01   13.60
   0   3   3  742.35   19.66
   0   3   3  556.53   16.82
   0  -3  -4 1263.90   27.70
   0  -3   4 1187.80   20.50
   0  -3   4 1272.70   21.10
   0   3  -4 1208.20   22.20
   0   3  -4 1327.20   23.50
   0   3   4 1713.00   32.80
   0   3   4 1282.00   28.10
   0  -3  -5  250.28   14.07
   0  -3   5  239.29   10.95
   0  -3   5  229.91   10.72
   0   3  -5  244.52   11.74
   0   3  -5  257.15   12.30
   0   3   5  254.49   14.55
   0   3   5  244.03   13.98
   0  -3  -6  966.85   28.95
   0  -3   6  907.21   23.34
   0  -3   6  955.45   23.72
   0   3  -6  864.16   23.66
   0   3  -6 1015.60   26.10
   0   3   6  978.08   29.64
   0   3   6  886.06   27.82
   0  -3  -7  149.95   13.35
   0  -3   7  140.99   10.60
   0   3  -7  139.86   11.02
   0   3  -7  154.25   11.88
   0   3   7  152.22   13.51
   0   3   7  171.17   13.62
   0  -3  -8  676.12   28.19
   0  -3   8  651.47   23.68
   0   3  -8  648.01   24.32
   0   3  -8  699.12   25.88
   0   3   8  720.76   29.27
   0  -3  -9   46.32   10.28
   0  -3   9   37.80    8.25
   0   3  -9   39.22    8.36
   0   3  -9   35.21    8.37
   0   3   9   33.30    8.81
   0  -3 -10   13.18    7.19
   0  -3  10   10.82    5.77
   0   3 -10   20.47    7.34
   0   3  10   14.05    6.91
   0  -3 -11   74.08   14.23
   0  -3  11   75.07   12.78
   0   3 -11   83.70   13.80
   0   3  11   76.26   14.39
   0  -3 -12   24.59    9.65
   0  -3  12   24.92    8.65
   0   3 -12   26.83    9.35
   0   3  12   21.03    8.61
   0  -3 -13  171.57   20.17
   0  -3  13  166.64   17.41
   0   3 -13  179.21   19.51
   0   3  13  151.56   21.75
   0  -3 -14    0.96    7.18
   0  -3  14    2.25    5.53
   0   3 -14    4.12    7.07
   0   3  14    2.08    7.06
   0  -3 -15  145.18   23.49
   0  -3  15  114.80   18.37
   0   3 -15  129.48   20.89
   0   3  15  111.77   20.10
   0  -3 -16  168.43   26.14
   0   3 -16  183.04   26.73
   0   3  16  166.71   25.03
   0  -3 -17  109.21   22.71
   0   3 -17  111.70   22.33
   0   3  17   64.55   17.04
   0  -4   0  967.15   11.26
   0  -4   0 1040.90   11.60
   0   4   0  957.82   15.60
   0   4   0 1072.90   16.60
   0  -4  -1  339.51    9.62
   0   4  -1  315.35    8.30
   0   4  -1  348.76    8.75
   0   4   1  322.79   10.75
   0  -4  -2  297.63   11.09
   0  -4  -2  314.80   11.27
   0   4  -2  277.49    8.19
   0   4  -2  336.33    9.02
   0   4   2  455.71   14.85
   0   4   2  272.65   11.36
   0  -4  -3  177.81   10.14
   0  -4  -3  186.98   10.15
   0  -4   3  168.12    5.32
   0  -4   3  175.72    5.41
   0   4  -3  165.97    7.46
   0   4  -3  192.84    8.13
   0   4   3  195.45   11.43
   0   4   3  160.60    9.99
   0  -4  -4  673.27   20.97
   0  -4  -4  715.58   21.26
   0  -4   4  654.44   13.64
   0   4  -4  629.80   15.99
   0   4  -4  711.23   17.17
   0   4   4  860.97   24.69
   0   4   4  638.70   20.90
   0  -4  -5  588.48   21.51
   0  -4   5  554.55   15.06
   0   4  -5  588.56   17.51
   0   4  -5  611.25   18.14
   0   4   5  575.13   21.98
   0   4   5  554.16   21.29
   0  -4  -6  424.62   19.95
   0  -4   6  423.35   15.19
   0  -4   6  405.32   14.81
   0   4  -6  419.35   16.52
   0   4  -6  434.18   17.10
   0   4   6  427.40   20.59
   0   4   6  398.06   19.52
   0  -4  -7  165.44   13.93
   0  -4   7  145.97   10.28
   0   4  -7  141.02   11.06
   0   4  -7  156.93   11.83
   0   4   7  150.79   13.77
   0   4   7  153.65   13.45
   0  -4  -8  426.85   22.92
   0  -4   8  396.17   17.92
   0   4  -8  382.27   18.78
   0   4  -8  410.48   19.83
   0   4   8  394.00   22.48
   0  -4  -9   50.96   10.65
   0  -4   9   43.35    8.31
   0   4  -9   50.85    9.14
   0   4  -9   62.69   10.92
   0   4   9   48.58   10.95
   0  -4 -10   12.67    6.81
   0  -4  10   21.09    6.62
   0   4 -10   26.19    7.52
   0   4 -10   25.21    7.98
   0   4  10   11.18    6.97
   0  -4 -11   34.31   10.39
   0  -4  11   40.36    9.09
   0   4 -11   47.99   10.88
   0   4  11   40.66   11.45
   0  -4 -12   99.64   16.94
   0  -4  12  100.22   14.66
   0   4 -12  106.70   16.55
   0   4  12  110.76   17.75
   0  -4 -13   55.30   14.53
   0  -4  13   50.53   11.33
   0   4 -13   77.36   15.40
   0   4  13   62.15   14.87
   0  -4 -14  174.95   21.50
   0   4 -14  172.24   19.96
   0   4  14  162.66   23.50
   0  -4 -15  188.16   26.64
   0   4 -15  168.39   24.10
   0   4  15  143.78   23.29
   0  -4 -16    0.99    7.40
   0   4 -16    5.75    8.68
   0   4  16    7.98    9.81
   0   5   0   -0.25    1.64
   0   5   0   -1.25    1.64
   0  -5  -1   36.96    4.44
   0  -5  -1   43.60    4.02
   0   5  -1   38.59    3.88
   0   5  -1   42.45    4.19
   0   5   1   44.94    5.08
   0  -5  -2   96.50    6.67
   0   5  -2   91.03    5.38
   0   5  -2  106.82    5.82
   0   5   2  155.49    9.85
   0   5   2   92.65    7.49
   0  -5  -3  127.61    8.93
   0  -5  -3  138.23    9.01
   0   5  -3  113.58    6.41
   0   5  -3  129.30    6.91
   0   5   3  137.90   10.23
   0   5   3  117.85    9.16
   0  -5  -4  725.62   22.13
   0  -5  -4  801.79   22.98
   0   5  -4  706.05   16.89
   0   5  -4  798.47   18.15
   0   5   4  991.15   27.61
   0   5   4  677.42   22.51
   0  -5  -5  137.75   11.33
   0  -5   5  134.60    6.63
   0  -5   5  132.68    6.62
   0   5  -5  133.13    8.77
   0   5  -5  145.91    9.31
   0   5   5  140.41   12.00
   0   5   5  127.11   11.09
   0  -5  -6  522.51   22.54
   0  -5   6  463.17   14.30
   0   5  -6  455.71   17.01
   0   5  -6  550.32   18.97
   0   5   6  491.68   22.68
   0   5   6  481.26   22.06
   0  -5  -7  375.15   20.59
   0  -5   7  365.56   14.60
   0   5  -7  340.49   16.31
   0   5  -7  399.41   17.96
   0   5   7  365.66   21.15
   0   5   7  361.02   20.66
   0  -5  -8   40.32    9.52
   0  -5   8   40.39    7.19
   0   5  -8   31.55    7.16
   0   5  -8   36.45    7.97
   0   5   8   27.86    8.19
   0  -5  -9  635.65   29.93
   0  -5   9  548.27   21.52
   0   5  -9  569.30   24.21
   0   5  -9  620.03   25.85
   0   5   9  552.94   28.85
   0  -5 -10  446.70   26.96
   0  -5  10  371.63   19.28
   0   5 -10  435.83   23.64
   0   5  10  404.29   26.44
   0  -5 -11  173.41   19.01
   0  -5  11  174.52   14.65
   0   5 -11  178.09   16.76
   0   5  11  192.28   19.77
   0  -5 -12   74.87   15.78
   0   5 -12   68.60   13.13
   0   5  12   56.52   14.10
   0  -5 -13  156.05   22.96
   0   5 -13  137.24   19.28
   0   5  13  135.35   21.38
   0  -5 -14   11.51    9.65
   0   5 -14   13.53    8.83
   0   5  14    4.70    7.19
   0  -5 -15  174.35   26.11
   0   5 -15  122.03   20.34
   0   5  15  121.66   21.80
   0  -5 -16  125.25   23.77
   0   5 -16  108.48   21.10
   0   5  16   81.06   19.06
   0   6   0   48.02    4.97
   0  -6  -1  363.34    8.97
   0  -6  -1  376.05    9.08
   0   6  -1  325.45   10.41
   0   6  -1  368.78   11.09
   0   6   1  525.19   16.12
   0   6   1  331.42   12.73
   0  -6  -2  248.19   10.07
   0   6  -2  224.90    8.50
   0   6  -2  236.36    8.75
   0   6   2  342.82   14.68
   0   6   2  226.59   11.82
   0  -6  -3  881.57   21.89
   0  -6  -3  928.54   22.28
   0   6  -3  812.35   16.47
   0   6  -3  933.22   17.74
   0   6   3 1099.30   27.90
   0   6   3  786.85   23.33
   0  -6  -4  501.38   18.71
   0   6  -4  471.17   13.94
   0   6  -4  527.73   14.88
   0   6   4  649.98   23.54
   0   6   4  456.87   19.48
   0  -6  -5  453.13   19.62
   0   6  -5  429.95   14.85
   0   6  -5  475.22   15.78
   0   6   5  432.40   20.78
   0   6   5  389.18   19.43
   0  -6  -6   42.84    8.66
   0  -6   6   44.34    3.84
   0  -6   6   38.31    3.72
   0   6  -6   40.33    6.87
   0   6  -6   45.32    7.09
   0   6   6   42.10    9.15
   0   6   6   42.44    8.86
   0  -6  -7  159.87   14.19
   0  -6   7  136.00    8.04
   0  -6   7  147.89    8.34
   0   6  -7  137.63   10.84
   0   6  -7  177.48   12.36
   0   6   7  147.47   14.58
   0   6   7  158.77   17.00
   0  -6  -8  381.62   22.42
   0   6  -8  343.40   17.58
   0   6  -8  364.14   18.54
   0   6   8  366.15   23.31
   0  -6  -9  206.92   18.34
   0   6  -9  197.69   15.31
   0   6   9  191.65   18.35
   0  -6 -10  210.43   19.49
   0   6 -10  204.52   16.65
   0   6  10  177.84   18.83
   0  -6 -11  150.15   18.26
   0   6 -11  186.89   17.04
   0   6  11  153.51   18.41
   0  -6 -12   66.66   15.20
   0   6 -12   72.07   14.02
   0   6  12   44.69   12.81
   0  -6 -13  289.41   26.13
   0   6 -13  273.70   22.74
   0   6  13  256.96   25.94
   0  -6 -14    4.47    9.11
   0   6 -14    6.26    7.94
   0   6  14   14.35   10.14
   0  -6 -15   24.73   12.81
   0   6 -15   16.30    9.94
   0   6  15   22.30   12.09
   0   7   0   -2.16    1.92
   0   7  -1  705.61   16.18
   0   7  -1  790.56   17.14
   0   7   1 1126.70   24.70
   0   7   1  720.23   19.64
   0  -7  -2  404.38   11.72
   0  -7  -2  437.60   12.07
   0   7  -2  407.15   11.82
   0   7  -2  469.69   12.65
   0   7   2  503.57   18.35
   0   7   2  400.92   16.30
   0   7  -3   17.98    3.63
   0   7  -3   21.72    3.90
   0   7   3   30.92    6.96
   0   7   3   24.17    5.97
   0  -7  -4  389.45   16.53
   0   7  -4  384.38   12.63
   0   7  -4  458.59   13.83
   0   7   4  408.48   19.50
   0   7   4  383.80   18.77
   0  -7  -5  278.63   15.64
   0   7  -5  252.95   11.45
   0   7  -5  305.61   12.65
   0   7   5  272.90   17.36
   0   7   5  258.58   16.69
   0  -7  -6   33.54    7.85
   0   7  -6   47.78    7.09
   0   7  -6   53.48    7.60
   0   7   6   46.63    9.57
   0   7   6   45.57    9.67
   0  -7  -7   48.45    9.80
   0   7  -7   45.88    7.90
   0   7   7   42.36   10.05
   0  -7  -8  391.06   22.99
   0   7  -8  460.77   20.32
   0   7   8  426.82   25.67
   0  -7  -9   54.76   11.65
   0   7  -9   57.73    9.88
   0   7   9   56.56   12.51
   0  -7 -10  349.86   24.45
   0   7 -10  394.70   21.94
   0   7  10  368.64   26.54
   0  -7 -11  282.82   23.42
   0   7 -11  289.75   20.44
   0   7  11  262.66   24.14
   0  -7 -12   49.66   13.27
   0   7 -12   39.39   11.06
   0   7  12   33.12   12.22
   0   7 -13   14.94    8.77
   0   7  13    3.65    8.24
   0   7 -14  176.02   20.23
   0   7  14  174.19   26.42
   0   8   0  723.49   18.99
   0   8   0  450.39   15.04
   0   8  -1  144.93    8.19
   0   8   1  169.76   10.63
   0   8   1  131.54    9.53
   0   8  -2  110.45    6.77
   0   8  -2  127.00    7.18
   0   8   2  165.26   11.67
   0   8   2  116.33   10.47
   0   8  -3  118.89    6.97
   0   8  -3  129.70    7.16
   0   8   3  145.12   11.74
   0   8  -4  148.12    9.69
   0   8  -4  168.52    8.47
   0   8   4  151.48   12.88
   0   8  -5   46.42    5.74
   0   8   5   44.79    9.46
   0   8  -6    5.34    3.50
   0   8   6    8.80    5.31
   0   8  -7  184.99   12.09
   0   8   7  150.96   15.71
   0   8  -8   13.14    5.50
   0   8   8   14.13    7.36
   0   8  -9  173.31   14.01
   0   8   9  166.84   18.28
   0   8 -10   48.84    9.58
   0   8  10   40.65   12.15
   0   8 -11   59.34   11.66
   0   8  11   55.80   14.66
   0   8 -12   79.35   13.82
   0   8  12   64.44   16.41
   0   8 -13  166.86   18.21
   0   8  13  137.17   23.07
   0   9   0    0.54    2.65
   0   9  -1  206.51    9.59
   0   9   1  204.63   12.02
   0   9   2  103.53    9.56
   0   9   3   99.22   10.27
   0   9   4   23.29    6.70
   0   9  -5   12.72    3.62
   0   9   5   14.50    6.31
   0   9  -6   45.38    6.38
   0   9   6   41.02    9.76
   0   9  -7  104.25    9.06
   0   9   7  112.55   16.39
   0   9  -8  170.50   12.21
   0   9   8  145.54   16.78
   0   9  -9   45.89    8.98
   0   9   9   21.86    9.77
   0   9 -10    3.19    6.73
   0   9  10    9.01    7.54
   0   9  11  235.79   24.38
   0  10   0  466.64   16.65
   0  10   1   72.37    7.53
   0  10   2  112.15   10.18
   0  10   3   35.04    7.52
   0  10   4   28.31    7.76
   0  10   5  103.07   12.76
   0  10   6   58.66   11.92
   0  10   7    8.08    6.51
   0  10   8  148.86   17.69
   0  10   9   17.80    9.36
   0  11   4  124.90   13.27
   0  11   5   10.44    6.01
   0  11   6  167.27   17.13
  -1   0  17  100.47   20.31
   1   0 -17  112.53   22.63
  -1   0  16  334.10   29.84
   1   0 -16  356.54   31.50
  -1   0  15   -1.71    6.43
   1   0 -15    4.73    7.78
  -1   0  14  612.22   35.67
   1   0 -14  606.20   36.39
  -1   0  13  388.02   27.41
   1   0 -13  360.90   27.10
  -1   0  12  359.64   25.15
   1   0 -12  344.48   25.18
  -1   0  11    6.71    5.63
   1   0 -11    7.27    5.97
  -1   0  10   88.71   13.75
   1   0 -10   96.05   14.75
  -1   0   9   47.20    9.90
   1   0  -9   57.00   11.30
  -1   0   8  225.66   16.27
  -1   0   7 1535.30   37.80
   1   0  -7 1158.10   32.40
   1   0  -7 1670.00   39.70
  -1   0   6    4.35    3.37
  -1   0   6    0.65    3.32
   1   0  -6   -0.69    2.62
   1   0  -6   -0.07    3.45
  -1   0   5 2009.30   36.50
   1   0  -5 2043.50   37.40
  -1   0   4 2211.20   35.40
  -1   0   4 2369.80   36.20
   1   0  -4 2157.80   34.60
   1   0  -4 2329.10   36.40
  -1   0   3   24.42    4.47
  -1   0   3   31.31    5.18
   1   0  -3   27.49    4.95
   1   0  -3   26.44    4.99
  -1   0   2  169.00    8.45
  -1   0   2  180.87    8.65
   1   0  -2  158.34    8.08
  -1   0   1  771.49   15.30
   1   0  -1  704.91   14.59
   1   0  -1  798.26   15.69
  -1   0   0  344.27    9.94
  -1   0   0  387.78   10.42
   1   0   0  328.43    9.57
   1   0   0  392.16   10.61
  -1   0  -1    8.70    2.64
  -1   0  -1    6.54    2.37
   1   0   1    4.70    2.11
   1   0   1    7.12    2.46
  -1   0  -2 4747.80   40.90
  -1   0  -2 5420.50   43.30
   1   0   2 4797.70   40.60
   1   0   2 5453.40   43.50
  -1   0  -3 1130.60   22.60
  -1   0  -3 1179.20   22.70
   1   0   3 1081.90   21.70
  -1   0  -4  704.75   19.94
  -1   0  -4  739.34   20.10
   1   0   4 1039.80   24.00
   1   0   4  679.98   19.14
  -1   0  -5  122.32   10.00
   1   0   5  148.11   10.93
   1   0   5  115.54    9.36
  -1   0  -6  609.14   22.45
   1   0   6  800.29   25.23
   1   0   6  579.19   21.13
  -1   0  -7  880.65   28.70
   1   0   7  886.16   28.39
  -1   0  -8  441.68   25.31
  -1   0  -8  295.09   18.23
   1   0   8  269.67   17.20
  -1   0  -9  182.86   15.94
   1   0   9  181.50   15.59
  -1   0 -10  214.98   18.18
   1   0  10  208.75   17.34
  -1   0 -11   14.27    7.47
   1   0  11   17.02    7.45
  -1   0 -12  264.99   22.09
   1   0  12  264.28   21.77
  -1   0 -13   73.34   15.48
   1   0  13   67.97   14.34
  -1   0 -14   42.42   12.76
   1   0  14   32.02   11.55
  -1   0 -15  122.04   20.73
   1   0  15  143.13   21.93
  -1   0 -16  137.71   23.54
   1   0  16  121.92   21.62
  -1   0 -17   -1.96    7.59
   1   0  17    0.31    7.75
  -1  -1  17   79.38   18.49
  -1   1  17   70.92   18.15
   1  -1 -17   78.26   19.76
   1   1 -17   69.12   18.12
  -1  -1  16   95.69   18.74
  -1   1  16   98.37   19.90
   1  -1 -16   91.73   19.46
   1   1 -16   86.12   18.64
  -1  -1  15  260.46   25.27
  -1   1  15  216.05   23.58
   1  -1 -15  273.31   26.73
   1   1 -15  266.20   26.43
  -1  -1  14   68.09   14.98
  -1   1  14  110.56   19.52
   1  -1 -14  111.74   19.88
   1   1 -14  111.46   19.02
  -1  -1  13   -2.12    5.53
  -1   1  13    2.99    6.14
   1  -1 -13    1.86    6.12
   1   1 -13   -1.17    5.85
  -1  -1  12  126.02   15.65
  -1   1  12  136.19   16.82
   1  -1 -12  123.42   18.30
   1   1 -12  125.07   18.35
  -1  -1  11   53.28   11.56
  -1   1  11   76.29   14.24
   1  -1 -11   80.57   14.43
   1   1 -11   64.54   12.85
  -1  -1  10   96.44   14.17
  -1   1  10  118.56   14.34
   1  -1 -10  108.71   15.39
   1   1 -10   90.54   13.99
  -1  -1   9  127.51   13.19
  -1   1   9  127.90   13.67
   1  -1  -9  133.63   14.02
   1   1  -9  134.49   13.85
  -1  -1   8  261.25   17.09
   1  -1  -8  279.21   18.16
   1   1  -8  254.41   20.03
   1   1  -8  253.83   17.13
  -1  -1   7  238.39   15.30
  -1   1   7  235.87   15.73
  -1   1   7  252.51   15.94
   1  -1  -7  240.50   15.99
   1   1  -7  230.12   15.01
   1   1  -7  257.52   16.14
  -1  -1   6  967.91   27.68
  -1  -1   6 1055.30   28.50
  -1   1   6  972.34   28.63
  -1   1   6 1016.40   28.80
   1  -1  -6  980.38   28.07
   1  -1  -6 1020.10   29.20
   1   1  -6  954.65   27.32
   1   1  -6 1073.50   29.50
  -1  -1   5 2596.90   41.50
  -1  -1   5 2916.10   43.40
  -1   1   5 2736.00   43.80
  -1   1   5 2773.10   43.50
   1  -1  -5 2670.30   42.40
   1  -1  -5 2925.80   45.10
   1   1  -5 2790.40   42.80
   1   1  -5 2915.30   44.40
  -1  -1   4   45.67    6.55
  -1  -1   4   43.33    6.25
  -1   1   4   47.83    6.86
  -1   1   4   39.79    6.25
   1  -1  -4   47.26    6.61
   1  -1  -4   47.85    7.07
   1   1  -4   42.91    6.30
   1   1  -4   49.42    7.13
  -1  -1   3  212.82   10.53
  -1  -1   3  233.99   10.82
  -1   1   3  199.72   10.23
  -1   1   3  196.58   10.05
   1  -1  -3  211.55   10.19
   1  -1  -3  229.36   10.86
   1   1  -3  201.58   10.20
   1   1  -3  218.45   10.77
  -1  -1   2 2267.50   29.50
  -1  -1   2 2655.60   31.70
  -1   1   2 2484.90   30.20
  -1   1   2 2594.80   30.60
   1  -1  -2 2411.70   29.20
   1  -1  -2 2711.60   31.30
   1   1  -2 2391.10   30.20
   1   1  -2 2698.10   32.40
  -1  -1   1  397.17   11.68
  -1   1   1  337.49   10.03
  -1   1   1  349.89   10.15
   1  -1  -1  352.29   10.00
   1  -1  -1  397.11   10.72
   1   1  -1  329.64   10.77
   1   1  -1  364.14   11.45
  -1  -1   0 2685.70   29.30
  -1  -1   0 2949.10   30.50
  -1   1   0 2726.20   24.90
  -1   1   0 2976.20   25.90
   1  -1   0 2885.30   25.00
   1  -1   0 2988.80   25.60
   1   1   0 2724.60   29.40
   1   1   0 3139.60   31.80
  -1  -1  -1  372.28   11.88
  -1  -1  -1  408.42   12.16
  -1   1  -1  373.04    9.66
  -1   1  -1  401.55    9.91
   1  -1   1  356.12    9.10
   1  -1   1  402.41    9.75
   1   1   1  361.72   11.51
   1   1   1  405.55   12.32
  -1  -1  -2   32.12    5.04
  -1  -1  -2   27.77    4.53
  -1   1  -2   31.32    4.19
  -1   1  -2   33.39    4.09
   1  -1   2   25.64    3.67
   1   1   2   33.47    5.12
   1   1   2   32.73    5.18
  -1  -1  -3  762.96   19.86
  -1  -1  -3  840.11   20.52
  -1   1  -3  801.00   17.77
  -1   1  -3  862.67   18.22
   1  -1   3 1208.10   21.30
   1  -1   3  748.07   16.68
   1   1   3  797.21   20.06
  -1  -1  -4 4776.10   53.60
  -1  -1  -4 5129.40   54.70
  -1   1  -4 4692.40   47.90
   1  -1   4 6044.90   53.30
   1  -1   4 4679.30   46.50
   1   1   4 7401.90   66.60
   1   1   4 4708.00   52.50
  -1  -1  -5  169.46   11.91
  -1  -1  -5  180.99   11.91
  -1   1  -5  190.91   11.65
   1  -1   5  167.56   10.73
   1  -1   5  160.07   10.32
   1   1   5  296.50   15.69
   1   1   5  166.68   11.51
  -1  -1  -6   88.30   10.02
  -1   1  -6  133.54   10.74
  -1   1  -6   95.30    9.81
   1  -1   6  106.34    9.77
   1  -1   6   98.33    9.23
   1   1   6  132.53   12.23
   1   1   6   88.43    9.52
  -1  -1  -7  807.21   28.24
  -1   1  -7 1194.20   31.90
  -1   1  -7  810.50   26.71
   1  -1   7  828.75   26.37
   1   1   7 1107.00   32.90
  -1  -1  -8  599.34   26.10
  -1   1  -8  857.92   29.19
  -1   1  -8  560.03   24.21
   1  -1   8  564.76   23.66
   1   1   8  525.21   24.34
  -1  -1  -9   94.96   13.84
  -1   1  -9   81.13   12.34
   1  -1   9  102.80   11.72
   1   1   9  104.13   12.45
  -1  -1 -10  478.02   26.41
  -1   1 -10  535.57   26.80
   1  -1  10  513.19   25.56
   1   1  10  502.54   26.81
  -1  -1 -11    0.73    5.03
  -1   1 -11    4.97    5.05
   1  -1  11    2.94    4.81
   1   1  11   -1.40    4.87
  -1  -1 -12  192.72   19.56
  -1   1 -12  195.73   19.14
   1  -1  12  220.09   19.63
   1   1  12  189.54   19.13
  -1  -1 -13   84.39   16.51
  -1   1 -13   63.30   14.11
   1  -1  13   81.15   15.06
   1   1  13   88.71   16.40
  -1  -1 -14   16.58    9.79
  -1   1 -14    5.94    7.07
   1  -1  14   12.87    8.58
   1   1  14   10.31    8.28
  -1  -1 -15   25.57   11.53
  -1   1 -15   36.31   12.65
   1  -1  15   31.49   11.69
   1   1  15   38.86   12.76
  -1  -1 -16  196.81   24.35
  -1   1 -16  198.87   24.38
   1  -1  16  179.88   22.03
   1   1  16  150.26   24.09
  -1  -1 -17   80.68   20.08
  -1   1 -17   82.86   19.43
   1  -1  17   68.93   17.10
   1   1  17   46.29   14.54
  -1  -2  17   64.86   16.84
  -1   2  17   52.38   16.75
   1  -2 -17   49.96   16.62
   1   2 -17   47.55   15.60
  -1  -2  16   21.57   10.71
  -1   2  16   45.35   14.83
   1  -2 -16   55.68   15.73
   1   2 -16   45.43   14.78
  -1  -2  15  118.25   20.35
  -1   2  15  116.00   21.10
   1  -2 -15  132.97   23.15
   1   2 -15  131.36   21.43
  -1  -2  14   99.34   17.27
  -1   2  14   95.14   17.67
   1  -2 -14  105.99   19.82
   1   2 -14   93.81   17.49
  -1  -2  13  145.02   17.19
  -1   2  13  150.33   21.80
   1  -2 -13  155.15   22.24
   1   2 -13  128.89   19.00
  -1  -2  12   62.71   13.00
  -1   2  12   65.84   13.77
   1  -2 -12   72.31   14.66
   1   2 -12   81.42   14.95
  -1  -2  11   62.92   12.35
  -1   2  11   38.11   10.60
   1  -2 -11   52.68   12.37
   1   2 -11   72.06   13.91
  -1  -2  10   43.83    9.90
  -1   2  10   40.35    9.93
   1  -2 -10   43.66   10.77
   1   2 -10   49.38   10.95
  -1  -2   9  335.27   19.94
  -1   2   9  353.20   21.84
   1  -2  -9  381.61   22.80
   1   2  -9  415.87   22.75
  -1  -2   8  263.15   16.90
  -1   2   8  253.12   17.64
   1  -2  -8  277.62   18.41
   1   2  -8  236.36   15.92
   1   2  -8  259.41   17.14
  -1  -2   7  677.52   24.68
  -1   2   7  702.72   26.81
   1  -2  -7  768.86   27.66
   1   2  -7  710.89   25.32
   1   2  -7  769.52   26.95
  -1  -2   6   54.28    8.35
  -1  -2   6   60.15    8.76
  -1   2   6   45.76    8.35
  -1   2   6   57.95    9.02
   1  -2  -6   53.29    8.47
   1  -2  -6   54.22    9.03
   1   2  -6   49.66    8.28
   1   2  -6   53.13    8.63
  -1  -2   5  760.95   22.47
  -1  -2   5  852.46   23.56
  -1   2   5  786.59   24.23
  -1   2   5  788.66   24.00
   1  -2  -5  732.92   22.72
   1  -2  -5  783.79   24.05
   1   2  -5  733.62   22.23
   1   2  -5  838.98   24.23
  -1  -2   4 3943.50   46.60
  -1  -2   4 4320.70   48.30
  -1   2   4 4008.30   49.10
  -1   2   4 4153.20   49.40
   1  -2  -4 4019.60   47.90
   1  -2  -4 4362.70   50.50
   1   2  -4 3988.10   47.20
   1   2  -4 4489.70   50.80
  -1  -2   3  472.62   15.17
  -1  -2   3  601.21   16.86
  -1   2   3  524.53   16.28
  -1   2   3  543.77   16.40
   1  -2  -3  555.59   16.19
   1  -2  -3  549.29   16.36
   1   2  -3  476.17   15.38
   1   2  -3  584.56   17.22
  -1  -2   2 4280.70   41.50
  -1  -2   2 4919.30   44.00
  -1   2   2 4384.80   40.30
  -1   2   2 4695.70   41.50
   1  -2  -2 4456.40   39.30
   1  -2  -2 4740.70   40.90
   1   2  -2 4428.20   42.60
   1   2  -2 5062.90   45.90
  -1  -2   1 1060.90   19.90
  -1  -2   1 1227.80   21.20
  -1   2   1 1055.80   17.10
  -1   2   1 1164.00   17.80
   1  -2  -1 1099.70   16.50
   1  -2  -1 1211.20   17.70
   1   2  -1 1024.70   19.70
   1   2  -1 1216.90   21.70
  -1  -2   0 2989.70   33.20
  -1  -2   0 3282.00   34.50
  -1   2   0 2926.30   23.80
  -1   2   0 3305.30   25.20
   1  -2   0 2930.30   21.70
   1   2   0 2825.00   32.50
   1   2   0 3441.70   36.10
  -1  -2  -1 1499.10   24.80
  -1  -2  -1 1682.10   26.00
  -1   2  -1 1413.00   15.90
  -1   2  -1 1581.80   16.70
   1  -2   1 1525.00   14.40
   1   2   1 1393.30   24.00
   1   2   1 1633.50   26.20
  -1  -2  -2  762.80   19.34
  -1  -2  -2  811.35   19.56
  -1   2  -2  731.27   13.25
  -1   2  -2  802.56   13.75
   1  -2   2  683.24   11.62
   1   2   2  703.56   18.44
   1   2   2  816.67   20.07
  -1  -2  -3 1621.70   30.20
  -1  -2  -3 1786.70   31.30
  -1   2  -3 1584.40   22.90
   1  -2   3 1650.80   22.20
   1  -2   3 1558.90   21.20
   1   2   3 1565.70   29.60
   1   2   3 1765.70   31.80
  -1  -2  -4  345.63   15.81
  -1  -2  -4  363.93   15.71
  -1   2  -4  335.32   12.60
   1  -2   4  343.44   12.13
   1  -2   4  344.68   11.97
   1   2   4  331.76   15.19
  -1  -2  -5  625.00   22.40
  -1  -2  -5  681.42   22.86
  -1   2  -5  933.41   22.85
  -1   2  -5  595.54   18.64
   1  -2   5  619.47   18.21
   1  -2   5  615.66   17.95
   1   2   5  987.21   28.21
   1   2   5  609.25   21.78
  -1  -2  -6  228.26   15.10
  -1  -2  -6  260.22   15.62
  -1   2  -6  312.05   15.17
  -1   2  -6  222.33   13.12
   1  -2   6  213.50   12.31
   1  -2   6  196.40   11.68
   1   2   6  279.30   16.78
   1   2   6  222.60   14.56
  -1  -2  -7  370.55   20.02
  -1   2  -7  559.25   21.57
  -1   2  -7  382.79   18.25
   1  -2   7  359.11   16.87
   1   2   7  465.06   22.54
  -1  -2  -8  743.11   29.63
  -1   2  -8 1101.80   32.10
  -1   2  -8  759.72   27.31
   1  -2   8  752.69   26.09
   1   2   8  767.76   30.09
  -1  -2  -9  333.74   21.75
  -1   2  -9  529.79   24.21
  -1   2  -9  349.30   20.30
   1  -2   9  328.65   18.78
   1   2   9  330.03   21.28
  -1  -2 -10  756.93   33.50
  -1   2 -10  707.98   30.17
   1  -2  10  734.98   29.54
   1   2  10  797.27   34.29
  -1  -2 -11  102.96   16.16
  -1   2 -11  115.15   16.36
   1  -2  11  136.56   14.41
   1   2  11  107.62   16.97
  -1  -2 -12   10.78    7.38
  -1   2 -12    9.81    7.05
   1  -2  12   15.26    7.20
   1   2  12    0.79    6.15
  -1  -2 -13   84.86   16.41
  -1   2 -13   94.04   16.91
   1  -2  13   98.82   16.09
   1   2  13   81.42   15.98
  -1  -2 -14  103.93   19.42
  -1   2 -14   96.47   17.53
   1  -2  14  107.21   17.65
   1   2  14   90.03   17.46
  -1  -2 -15   76.32   17.57
  -1   2 -15   98.17   18.50
   1  -2  15  104.26   18.28
   1   2  15   96.73   18.66
  -1  -2 -16   33.24   13.04
  -1   2 -16   44.07   14.42
   1  -2  16   39.22   12.89
   1   2  16   28.76   11.66
  -1  -2 -17   31.06   14.37
  -1   2 -17   22.87   11.86
   1   2  17   15.80   11.39
  -1   3  17  131.82   24.50
   1  -3 -17  148.49   26.74
   1   3 -17  161.49   26.49
  -1  -3  16   97.28   20.80
  -1   3  16   78.92   19.42
   1  -3 -16  103.00   21.08
   1   3 -16  114.24   21.49
  -1  -3  15  195.52   21.47
  -1   3  15  172.48   25.66
   1  -3 -15  172.94   25.52
   1   3 -15  187.85   22.39
  -1  -3  14  165.09   19.03
  -1   3  14  152.47   22.58
   1  -3 -14  178.67   21.35
   1   3 -14  171.19   20.73
  -1  -3  13  107.12   16.69
  -1   3  13   92.18   16.54
   1  -3 -13  126.38   20.67
   1   3 -13  127.81   19.11
  -1  -3  12    1.74    4.91
  -1   3  12   -3.47    4.52
   1  -3 -12    9.36    7.22
   1   3 -12    6.83    6.91
  -1  -3  11  112.91   13.71
  -1   3  11   99.90   16.01
   1  -3 -11  112.56   17.60
   1   3 -11  121.24   17.52
  -1  -3  10  532.32   25.91
  -1   3  10  471.00   27.03
   1  -3 -10  552.62   28.81
   1   3 -10  505.58   26.60
  -1  -3   9   67.91   10.90
  -1   3   9   82.44   13.66
   1  -3  -9   74.96   12.73
   1   3  -9   84.71   13.07
  -1  -3   8  420.33   20.55
  -1   3   8  469.67   23.93
   1  -3  -8  450.22   23.34
   1   3  -8  467.31   22.07
   1   3  -8  444.15   22.04
  -1  -3   7  204.87   13.76
  -1   3   7  218.94   15.65
  -1   3   7  170.94   13.76
   1  -3  -7  238.81   16.08
   1   3  -7  224.39   14.63
   1   3  -7  216.43   14.88
  -1  -3   6   70.95    8.24
  -1  -3   6   95.49   10.51
  -1   3   6   92.51   10.32
  -1   3   6   82.17    9.61
   1  -3  -6   79.45    9.44
   1   3  -6   89.73    9.32
   1   3  -6   88.62    9.66
  -1  -3   5  532.30   18.74
  -1  -3   5  583.75   19.42
  -1   3   5  551.81   21.03
  -1   3   5  606.41   21.54
   1  -3  -5  672.88   22.14
   1  -3  -5  573.74   20.83
   1   3  -5  532.31   19.18
   1   3  -5  615.82   21.01
  -1  -3   4  908.35   22.53
  -1  -3   4 1003.40   23.40
  -1   3   4  934.10   24.56
  -1   3   4  967.74   24.72
   1  -3  -4  958.88   23.83
   1  -3  -4  983.65   24.52
   1   3  -4  939.29   23.47
   1   3  -4 1086.70   25.70
  -1  -3   3  225.41   10.83
  -1  -3   3  232.20   10.88
  -1   3   3  221.54   11.22
  -1   3   3  227.91   11.23
   1  -3  -3  232.08   10.82
   1  -3  -3  238.78   11.19
   1   3  -3  237.29   11.39
   1   3  -3  253.01   12.07
  -1  -3   2  709.46   17.55
  -1  -3   2  790.75   18.30
  -1   3   2  749.06   17.29
  -1   3   2  776.23   17.50
   1  -3  -2  739.50   16.05
   1  -3  -2  807.94   16.93
   1   3  -2  704.72   17.97
   1   3  -2  796.77   19.37
  -1  -3   1 1288.80   22.90
  -1  -3   1 1442.00   23.90
  -1   3   1 1266.60   18.80
  -1   3   1 1353.20   19.40
   1  -3  -1 1802.30   19.80
   1   3  -1 1230.90   23.00
   1   3  -1 1409.10   24.80
  -1  -3   0 1028.40   20.80
  -1  -3   0 1180.30   22.00
  -1   3   0 1021.10   13.50
  -1   3   0 1136.20   14.20
   1   3   0  992.91   20.91
   1   3   0 1155.60   22.70
  -1  -3  -1  727.73   18.60
  -1  -3  -1  797.94   19.13
  -1   3  -1  675.77    9.34
  -1   3  -1  787.44   10.06
   1   3   1  699.38   18.47
   1   3   1  819.86   20.16
  -1  -3  -2  995.16   23.19
  -1  -3  -2 1133.50   24.30
  -1   3  -2  955.04   12.99
  -1   3  -2 1080.40   13.70
   1   3   2  951.45   22.84
   1   3   2 1051.90   24.30
  -1  -3  -3  628.11   20.00
  -1  -3  -3  732.49   21.27
  -1   3  -3  661.34   13.66
   1  -3   3  655.25   10.82
   1  -3   3  626.55   10.50
   1   3   3  682.87   20.94
   1   3   3  733.31   21.93
  -1  -3  -4  439.45   18.35
  -1  -3  -4  486.42   18.84
  -1   3  -4  668.61   16.31
  -1   3  -4  423.19   13.22
   1  -3   4  427.30   11.58
   1   3   4  420.52   17.77
  -1  -3  -5   23.01    6.23
  -1  -3  -5   33.40    6.85
  -1   3  -5   35.88    5.90
  -1   3  -5   22.61    5.02
   1  -3   5   22.92    4.34
   1  -3   5   20.54    4.18
   1   3   5   29.68    7.33
   1   3   5   28.64    6.91
  -1  -3  -6  684.56   25.80
  -1   3  -6  975.80   24.98
  -1   3  -6  654.66   20.84
   1  -3   6  634.34   18.99
   1  -3   6  659.79   19.18
   1   3   6  986.08   31.39
   1   3   6  672.53   25.36
  -1  -3  -7   71.29   11.38
  -1   3  -7   83.18    9.32
  -1   3  -7   55.24    8.59
   1  -3   7   62.74    7.38
   1   3   7   68.56   10.98
  -1  -3  -8  314.68   20.18
  -1   3  -8  432.91   20.12
  -1   3  -8  294.84   17.10
   1  -3   8  284.72   15.58
   1   3   8  400.49   23.06
  -1  -3  -9  282.18   20.40
  -1   3  -9  369.24   20.28
  -1   3  -9  271.27   17.71
   1  -3   9  262.83   16.21
   1   3   9  281.74   20.46
  -1  -3 -10 1041.70   39.80
  -1   3 -10 1550.60   42.80
  -1   3 -10 1119.80   37.10
   1  -3  10 1050.10   33.90
   1   3  10 1158.00   42.30
  -1  -3 -11   83.23   15.18
  -1   3 -11  107.13   15.49
   1  -3  11   93.95   13.94
   1   3  11  114.49   17.25
  -1  -3 -12  559.76   32.75
  -1   3 -12  561.84   30.13
   1  -3  12  546.81   27.75
   1   3  12  537.13   32.24
  -1  -3 -13  232.62   23.22
  -1   3 -13  245.53   21.80
   1  -3  13  234.74   19.86
   1   3  13  232.24   23.35
  -1  -3 -14   34.76   12.37
  -1   3 -14   31.89   11.72
   1  -3  14   44.33   11.63
   1   3  14   37.91   12.13
  -1  -3 -15  325.58   29.33
  -1   3 -15  343.17   28.39
   1   3  15  338.30   29.99
  -1  -3 -16   28.90   13.12
  -1   3 -16   26.54   11.57
   1   3  16    5.67    9.31
  -1  -3 -17    8.44   10.98
  -1   3 -17    8.45    9.56
   1   3  17    3.24    8.55
  -1   4  16   69.27   18.04
   1  -4 -16   96.24   20.82
   1   4 -16   71.60   18.01
  -1   4  15   79.39   17.86
   1  -4 -15   87.31   19.69
   1   4 -15  100.22   19.28
  -1  -4  14    1.34    5.84
  -1   4  14   -1.14    5.56
   1  -4 -14    2.36    7.44
   1   4 -14   -4.15    5.47
  -1  -4  13   60.14   13.09
  -1   4  13   71.15   16.24
   1  -4 -13   67.20   16.33
   1   4 -13   73.22   14.97
  -1  -4  12  415.77   25.37
  -1   4  12  413.44   28.98
   1  -4 -12  488.17   30.78
   1   4 -12  468.06   28.63
  -1  -4  11  136.76   14.60
  -1   4  11  112.65   17.52
   1  -4 -11  142.31   17.00
   1   4 -11  138.70   16.06
  -1  -4  10    6.67    5.21
  -1   4  10   -0.35    4.25
   1  -4 -10   -2.20    4.37
   1   4 -10    5.58    5.95
  -1  -4   9  328.83   19.19
  -1   4   9  329.39   22.09
   1  -4  -9  345.08   22.10
   1   4  -9  263.59   18.12
   1   4  -9  364.61   21.47
  -1  -4   8  300.42   17.20
  -1   4   8  324.43   20.60
   1  -4  -8  321.38   20.04
   1   4  -8  332.12   18.83
   1   4  -8  330.36   19.24
  -1  -4   7  116.81   10.57
  -1   4   7  134.77   12.98
  -1   4   7  111.21   11.77
   1  -4  -7  120.76   12.28
   1   4  -7  135.20   11.72
   1   4  -7  141.18   12.40
  -1  -4   6  202.47   12.40
  -1   4   6  216.49   15.00
  -1   4   6  213.70   14.58
   1  -4  -6  245.45   15.34
   1   4  -6  201.33   13.19
   1   4  -6  227.99   14.34
  -1  -4   5  757.16   21.82
  -1  -4   5  815.36   22.45
  -1   4   5  823.11   26.03
  -1   4   5  803.66   25.34
   1  -4  -5  871.53   25.66
   1   4  -5  791.57   23.51
   1   4  -5  888.62   25.20
  -1  -4   4  406.79   15.09
  -1  -4   4  452.27   15.77
  -1   4   4  399.81   16.88
  -1   4   4  409.47   16.81
   1  -4  -4  625.94   19.68
   1  -4  -4  416.73   16.30
   1   4  -4  392.15   15.66
   1   4  -4  460.70   17.30
  -1  -4   3  115.76    8.08
  -1  -4   3  135.47    8.53
  -1   4   3  126.28    9.08
  -1   4   3  124.69    8.87
   1  -4  -3  179.44    9.85
   1  -4  -3  132.69    8.52
   1   4  -3  125.20    8.83
   1   4  -3  135.00    9.43
  -1  -4   2  220.84   10.29
  -1  -4   2  241.33   10.62
  -1   4   2  217.13   10.03
  -1   4   2  244.01   10.49
   1   4  -2  207.56   10.58
   1   4  -2  253.04   11.91
  -1  -4   1  874.14   19.55
  -1  -4   1  947.56   20.14
  -1   4   1  854.25   16.09
  -1   4   1  873.83   16.22
   1  -4  -1  948.81   12.61
   1  -4  -1  939.14   12.50
   1   4  -1  806.27   19.92
   1   4  -1  984.13   22.25
  -1  -4   0 1403.30   25.30
  -1  -4   0 1612.20   26.90
  -1   4   0 1470.50   16.30
  -1   4   0 1555.60   16.80
   1   4   0 1430.00   26.80
   1   4   0 1642.40   29.10
  -1  -4  -1 1756.20   29.90
  -1  -4  -1 1948.90   31.10
   1   4   1 1724.80   30.70
   1   4   1 1947.00   33.00
  -1  -4  -2  901.10   23.08
  -1  -4  -2  976.53   23.69
   1   4   2  858.41   23.10
   1   4   2  969.81   24.87
  -1  -4  -3  226.43   12.98
  -1  -4  -3  247.36   13.18
  -1   4  -3  232.90    7.49
   1   4   3  236.11   13.35
   1   4   3  280.38   14.79
  -1  -4  -4  447.10   19.00
  -1  -4  -4  533.37   20.75
  -1   4  -4  704.53   15.65
  -1   4  -4  465.32   12.85
   1   4   4  451.56   19.31
  -1  -4  -5  138.59   11.99
  -1   4  -5  195.51   10.12
  -1   4  -5  139.59    8.68
   1  -4   5  130.49    6.67
   1   4   5  199.24   14.61
   1   4   5  146.50   12.16
  -1  -4  -6   29.54    7.69
  -1   4  -6   41.53    6.73
  -1   4  -6   31.09    5.87
   1  -4   6   26.66    4.60
   1   4   6   48.96    9.45
   1   4   6   20.80    6.22
  -1  -4  -7   41.01    8.78
  -1   4  -7   69.73    8.48
  -1   4  -7   55.62    8.47
   1  -4   7   39.36    6.36
   1  -4   7   42.88    6.59
   1   4   7   57.73   10.84
  -1  -4  -8  373.24   22.51
  -1   4  -8  570.55   22.50
  -1   4  -8  400.11   19.30
   1  -4   8  357.39   16.34
   1   4   8  542.99   27.37
  -1  -4  -9  172.80   16.83
  -1   4  -9  241.23   16.60
  -1   4  -9  159.60   13.70
   1  -4   9  157.21   12.38
   1   4   9  149.53   15.81
  -1  -4 -10  471.69   27.99
  -1   4 -10  676.02   28.42
  -1   4 -10  548.86   25.92
   1  -4  10  452.93   21.51
   1   4  10  507.96   29.25
  -1  -4 -11  202.21   20.08
  -1   4 -11  195.92   17.63
   1  -4  11  183.45   15.24
   1   4  11  194.35   19.99
  -1  -4 -12   65.92   14.68
  -1   4 -12   68.68   13.60
   1  -4  12   66.65   11.76
   1   4  12   61.33   14.71
  -1  -4 -13  213.68   23.22
  -1   4 -13  273.30   22.98
   1   4  13  234.64   24.16
  -1  -4 -14  697.00   40.43
  -1   4 -14  728.19   37.72
   1   4  14  664.08   39.72
  -1  -4 -15   94.26   19.59
  -1   4 -15   83.31   17.52
   1   4  15  104.67   20.71
  -1  -4 -16   25.92   12.61
  -1   4 -16   33.41   12.33
   1   4  16    9.47    9.82
  -1   5  16   29.99   13.15
   1  -5 -16   28.60   12.94
   1   5 -16   29.07   12.35
  -1   5  15   11.19    9.38
   1  -5 -15   12.44   10.12
   1   5 -15   -1.97    6.98
  -1   5  14   46.88   14.09
   1  -5 -14   63.44   16.08
   1   5 -14   36.40   11.99
  -1   5  13   56.67   14.80
   1  -5 -13   45.72   13.68
   1   5 -13   55.04   13.87
  -1  -5  12   33.43   11.60
  -1   5  12   13.77    8.02
   1  -5 -12   26.42   10.28
   1   5 -12   26.31    9.24
  -1  -5  11   99.64   12.36
  -1   5  11  108.22   17.51
   1  -5 -11   94.17   15.99
   1   5 -11   93.36   14.83
  -1  -5  10  527.44   24.81
  -1   5  10  548.99   30.41
   1  -5 -10  568.23   29.80
   1   5 -10  590.28   28.67
  -1  -5   9  428.98   21.01
  -1   5   9  448.79   26.33
   1  -5  -9  472.02   25.89
   1   5  -9  397.56   22.00
   1   5  -9  505.45   25.11
  -1  -5   8  656.78   24.25
  -1   5   8  685.93   30.10
   1  -5  -8  763.35   30.50
   1   5  -8  700.42   26.99
   1   5  -8  772.72   28.96
  -1  -5   7   80.38    8.77
  -1   5   7   82.32   12.42
  -1   5   7   70.06   11.32
   1  -5  -7   90.52   10.94
   1   5  -7   81.12    9.78
   1   5  -7   93.58   10.59
  -1  -5   6   76.17    7.98
  -1   5   6   87.69   10.50
  -1   5   6   75.55   10.90
   1  -5  -6   87.11    9.98
   1   5  -6   77.61    8.97
   1   5  -6   82.82    9.41
  -1  -5   5  220.89   11.77
  -1  -5   5  253.63   12.51
  -1   5   5  237.64   14.87
  -1   5   5  228.27   14.33
   1  -5  -5  228.05   13.63
   1   5  -5  218.18   12.93
   1   5  -5  261.99   14.37
  -1  -5   4  441.92   15.30
  -1  -5   4  499.28   16.14
  -1   5   4  479.73   18.88
  -1   5   4  457.36   18.20
   1  -5  -4  492.75   17.62
   1   5  -4  475.48   17.60
   1   5  -4  537.95   18.95
  -1  -5   3  457.54   14.74
  -1  -5   3  488.78   15.10
  -1   5   3  453.61   16.62
  -1   5   3  433.43   16.08
   1  -5  -3  488.34   15.19
   1  -5  -3  494.88   15.20
   1   5  -3  421.81   15.91
   1   5  -3  512.16   17.70
  -1  -5   2  277.99   11.54
  -1  -5   2  305.24   11.73
  -1   5   2  258.08   11.22
  -1   5   2  273.83   11.42
   1  -5  -2  305.84    9.64
   1   5  -2  268.61   12.51
   1   5  -2  316.53   13.74
  -1  -5   1  609.23   16.62
  -1  -5   1  708.20   17.71
  -1   5   1  635.13   14.54
  -1   5   1  640.97   14.56
   1   5  -1  609.35   18.38
   1   5  -1  729.79   20.35
  -1  -5   0 1258.90   24.60
  -1  -5   0 1397.50   25.70
  -1   5   0 1292.80   16.00
  -1   5   0 1318.40   16.20
   1   5   0 1238.80   26.60
   1   5   0 1443.60   29.00
  -1  -5  -1   32.61    5.82
  -1  -5  -1   46.99    6.76
   1   5   1   30.25    6.00
   1   5   1   51.35    7.61
  -1  -5  -2  565.81   19.05
  -1  -5  -2  638.54   19.90
   1   5   2  541.47   19.57
   1   5   2  622.23   21.22
  -1  -5  -3  155.37   11.21
  -1   5  -3  154.56    5.10
   1   5   3  138.69   10.96
   1   5   3  148.70   11.82
  -1  -5  -4  219.96   14.10
  -1   5  -4  215.38    8.23
   1   5   4  208.51   13.94
  -1  -5  -5  236.76   15.54
  -1   5  -5  342.84   12.31
  -1   5  -5  228.43   10.19
   1   5   5  349.85   19.66
   1   5   5  207.76   14.73
  -1  -5  -6   40.36    8.76
  -1   5  -6   56.70    7.46
  -1   5  -6   38.78    6.22
   1  -5   6   36.23    3.68
   1  -5   6   38.45    3.81
   1   5   6   51.75   10.34
   1   5   6   40.89    8.76
  -1  -5  -7  263.14   18.48
  -1   5  -7  370.68   16.50
  -1   5  -7  260.80   13.97
   1  -5   7  240.88   10.50
   1   5   7  323.56   21.21
  -1  -5  -8  276.17   19.94
  -1   5  -8  395.20   18.67
  -1   5  -8  284.06   16.10
   1  -5   8  273.10   18.34
   1   5   8  365.14   23.55
  -1  -5  -9   64.29   12.50
  -1   5  -9  106.60   11.92
  -1   5  -9   66.14   10.68
   1  -5   9   66.07    9.03
   1   5   9   51.19   11.56
  -1  -5 -10    6.99    6.95
  -1   5 -10   10.36    5.89
   1  -5  10   13.20    5.22
   1   5  10   15.81    7.71
  -1  -5 -11  161.90   18.62
  -1   5 -11  180.26   16.64
   1   5  11  166.28   19.09
  -1  -5 -12  157.92   19.69
  -1   5 -12  156.73   16.73
   1   5  12  129.66   20.47
  -1  -5 -13  419.86   31.15
  -1   5 -13  422.55   27.34
   1   5  13  414.33   31.27
  -1  -5 -14    4.56    8.03
  -1   5 -14   10.81    8.15
   1   5  14   10.38    8.80
  -1  -5 -15  216.75   25.75
  -1   5 -15  211.52   22.84
   1   5  15  202.04   25.23
   1   5  16    3.51    8.54
  -1   6  15   41.75   15.13
   1  -6 -15   61.81   17.45
   1   6 -15   30.90   12.25
  -1   6  14  113.74   21.42
   1  -6 -14  140.58   22.67
   1   6 -14  138.97   20.93
  -1   6  13  103.83   19.53
   1  -6 -13  111.93   20.18
   1   6 -13  129.87   19.58
  -1   6  12  176.46   20.81
   1  -6 -12  191.53   20.93
   1   6 -12  180.66   19.16
  -1   6  11   33.68   11.31
   1  -6 -11   57.06   13.32
   1   6 -11   49.57   11.41
  -1   6  10   64.63   13.65
   1  -6 -10   76.69   14.13
   1   6 -10   80.59   13.30
  -1  -6   9  465.77   21.06
  -1   6   9  434.74   26.29
   1  -6  -9  525.21   27.38
   1   6  -9  496.11   25.01
  -1  -6   8   80.97   10.81
  -1   6   8   70.14   12.53
   1  -6  -8   74.57   12.37
   1   6  -8   78.98   13.16
   1   6  -8   86.18   12.42
  -1  -6   7  258.71   14.02
  -1   6   7  291.50   19.50
  -1   6   7  229.08   17.16
   1  -6  -7  298.49   18.45
   1   6  -7  284.92   16.85
   1   6  -7  339.37   18.65
  -1  -6   6  240.78   12.54
  -1   6   6  273.43   17.76
  -1   6   6  236.65   16.34
   1  -6  -6  284.92   16.52
   1   6  -6  245.21   14.78
   1   6  -6  297.02   16.46
  -1  -6   5  350.71   20.48
  -1   6   5  310.61   17.33
  -1   6   5  288.74   16.62
   1  -6  -5  337.65   16.34
   1   6  -5  285.90   14.99
   1   6  -5  362.64   17.05
  -1  -6   4  828.47   19.56
  -1   6   4  759.60   24.37
  -1   6   4  778.16   24.43
   1  -6  -4  812.32   22.01
   1   6  -4  735.87   22.38
   1   6  -4  896.11   24.95
  -1  -6   3   85.40    6.54
  -1   6   3   86.48    8.20
  -1   6   3   84.02    8.05
   1  -6  -3   93.10    6.78
   1   6  -3   80.73    8.03
   1   6  -3  101.35    8.98
  -1  -6   2  207.02    9.49
  -1   6   2  185.40   10.03
  -1   6   2  179.63    9.82
   1  -6  -2  215.64    6.58
   1  -6  -2  218.11    6.61
   1   6  -2  180.13   10.92
   1   6  -2  209.10   12.00
  -1  -6   1  152.45    8.44
  -1   6   1  128.06    7.22
  -1   6   1  135.57    7.33
   1   6  -1  128.77    9.60
   1   6  -1  144.70   10.25
  -1  -6   0  182.93   14.57
  -1  -6   0  235.94   10.95
  -1   6   0  198.00    6.77
  -1   6   0  198.89    6.81
   1   6   0  186.50   11.50
   1   6   0  233.72   12.91
  -1  -6  -1   33.57    5.99
  -1  -6  -1   32.04    5.69
   1   6   1   23.83    5.61
   1   6   1   24.26    5.74
  -1  -6  -2  350.30   15.36
   1   6   2  326.31   16.19
   1   6   2  368.77   17.40
  -1  -6  -3  281.80   14.90
   1   6   3  270.73   15.65
  -1  -6  -4  481.32   20.64
  -1   6  -4  508.03   10.51
   1   6   4  748.40   27.63
   1   6   4  454.20   21.07
  -1  -6  -5   80.22   11.56
  -1   6  -5   94.64    6.42
   1   6   5  118.67   13.29
   1   6   5   95.18   11.03
  -1  -6  -6  156.69   14.05
  -1   6  -6  244.51   11.70
  -1   6  -6  166.41    9.80
   1   6   6  197.98   16.63
   1   6   6  181.18   16.45
  -1  -6  -7   69.88   12.01
  -1   6  -7   95.41    9.18
  -1   6  -7   69.29    7.86
   1   6   7   95.87   14.94
  -1  -6  -8   24.83    8.33
  -1   6  -8   10.95    4.75
   1  -6   8   10.56    3.21
   1   6   8   25.22    9.02
  -1  -6  -9  274.19   21.39
  -1   6  -9  295.95   17.42
   1   6   9  315.50   23.51
  -1  -6 -10   89.84   15.74
  -1   6 -10   97.92   12.16
   1   6  10   97.56   16.31
  -1  -6 -11  126.43   19.95
  -1   6 -11  127.87   14.24
   1   6  11  137.80   20.64
  -1  -6 -12    1.91    7.13
  -1   6 -12    7.85    6.31
   1   6  12   10.72    8.32
  -1  -6 -13    1.98    8.15
  -1   6 -13    3.51    5.66
   1   6  13   -0.45    4.89
  -1  -6 -14  315.12   29.28
  -1   6 -14  252.21   22.88
   1   6  14  285.33   28.44
  -1  -6 -15   24.78   13.03
  -1   6 -15   45.98   13.78
   1   6  15   36.62   13.79
  -1   7  14  103.68   21.36
   1   7 -14   99.24   18.15
  -1   7  13  235.03   25.17
   1   7 -13  260.21   23.06
  -1   7  12   37.27   11.98
   1   7 -12   53.30   12.53
  -1   7  11    6.65    6.52
   1   7 -11    3.00    5.28
  -1   7  10  138.14   19.95
   1  -7 -10  141.47   16.81
   1   7 -10  148.94   15.67
  -1   7   9    3.56    5.60
   1  -7  -9   13.17    7.00
   1   7  -9   11.77    6.66
  -1   7   8  266.32   20.51
   1  -7  -8  261.07   18.41
   1   7  -8  279.10   18.19
  -1   7   7   87.47   13.56
   1  -7  -7   86.76   12.33
   1   7  -7   85.98   10.59
  -1   7   6  347.21   20.25
  -1   7   6  337.41   23.65
   1  -7  -6  359.59   18.27
   1   7  -6  390.84   18.94
  -1  -7   5  331.77   11.81
  -1  -7   5  356.58   12.61
  -1   7   5  337.49   18.64
  -1   7   5  338.64   18.50
   1  -7  -5  376.29   16.74
   1   7  -5  328.77   16.37
   1   7  -5  408.07   18.38
  -1  -7   4   85.66    6.00
  -1  -7   4   87.17    6.09
  -1   7   4   77.55    9.05
  -1   7   4   82.05    9.21
   1   7  -4   76.05    8.54
   1   7  -4   89.15    9.15
  -1  -7   3  415.50   11.68
  -1  -7   3  440.10   11.95
  -1   7   3  435.10   17.47
  -1   7   3  404.66   16.76
   1  -7  -3  487.29   12.47
   1  -7  -3  474.51   12.26
   1   7  -3  431.38   17.33
   1   7  -3  488.83   18.63
  -1  -7   2  300.54   10.22
  -1  -7   2  333.39   10.69
  -1   7   2  317.34   13.38
  -1   7   2  305.30   13.09
   1   7  -2  297.08   14.52
   1   7  -2  340.81   15.60
  -1  -7   1   20.35    3.96
  -1  -7   1   18.70    3.83
  -1   7   1   21.12    4.13
  -1   7   1   21.00    4.11
   1   7  -1   18.63    5.20
   1   7  -1   21.52    5.55
  -1  -7   0  136.17    8.28
  -1   7   0  114.11    5.52
  -1   7   0  117.34    5.60
   1   7   0  117.10   10.01
   1   7   0  142.76   10.85
   1   7   1   57.91    9.10
   1   7   1   52.25    8.52
  -1  -7  -2   70.88    7.68
   1   7   2   74.88    9.09
   1   7   2   78.06    9.38
  -1  -7  -3  124.07   10.45
   1   7   3  129.90   11.79
  -1  -7  -4   66.19    9.93
   1   7   4   97.68   13.76
   1   7   4   62.56   10.74
  -1  -7  -5  286.58   17.51
  -1   7  -5  289.08    8.95
   1   7   5  398.02   22.67
   1   7   5  258.54   18.00
  -1  -7  -6   82.40   12.41
  -1   7  -6   65.34    6.33
   1   7   6   82.39   13.40
  -1  -7  -7  219.21   17.56
  -1   7  -7  264.05   12.85
   1   7   7  309.90   22.25
  -1  -7  -8  199.70   17.93
  -1   7  -8  186.85   12.43
   1   7   8  221.01   20.07
  -1  -7  -9   31.47    9.65
  -1   7  -9   40.97    8.12
   1   7   9   47.79   11.92
  -1  -7 -10  264.21   22.48
  -1   7 -10  292.17   18.28
   1   7  10  309.53   25.32
  -1  -7 -11   52.39   13.81
  -1   7 -11   40.28    9.68
   1   7  11   28.35    9.62
  -1  -7 -12   20.45   10.31
  -1   7 -12   14.23    7.58
   1   7  12    9.05    8.25
  -1  -7 -13    0.40    6.96
  -1   7 -13    3.05    6.50
   1   7  13    1.12    6.46
  -1   7 -14  103.91   17.64
   1   7  14   69.25   17.31
  -1   8  13   57.73   15.05
   1   8 -13   77.75   15.83
  -1   8  12   13.82    9.48
   1   8 -12   20.83    9.09
  -1   8  11   -2.26    5.70
   1   8 -11   -2.04    4.83
  -1   8  10   17.12    8.73
   1   8 -10   17.01    7.42
  -1   8   9   10.09    6.95
   1   8  -9    6.65    5.81
  -1   8   8   18.98    7.92
   1   8  -8    9.57    5.49
  -1   8   7  346.75   22.33
   1   8  -7  418.12   20.68
  -1   8   6   99.80   12.28
   1   8  -6  102.26   10.92
  -1   8   5   74.52   11.36
   1   8  -5   81.23    9.50
  -1   8   4  453.91   20.23
   1   8  -4  538.29   20.49
  -1   8   3   19.41    5.28
   1   8  -3   22.37    5.98
  -1   8   2  133.73    9.39
  -1   8   2  149.14   12.96
   1   8  -2  150.28   11.31
  -1   8   1  112.21    7.30
  -1   8   1  107.80    7.32
   1   8  -1  109.32    9.93
  -1  -8   0  148.32    7.77
   1   8   0  141.30   17.07
   1   8   0  160.82   12.01
   1   8   1  191.42   13.50
  -1  -8  -3   83.97    9.02
   1   8   3  106.68   13.95
  -1  -8  -4    2.63    3.61
   1   8   4    5.03    5.39
  -1  -8  -5  161.87   14.82
   1   8   5  201.67   17.12
  -1  -8  -6  422.48   31.18
   1   8   6  530.01   28.04
  -1   8  -7  137.12    8.69
   1   8   7  179.95   18.39
  -1   8  -8  144.95   10.51
   1   8   8  154.19   17.42
  -1   8  -9  155.48   12.25
   1   8   9  147.60   17.78
  -1   8 -10   68.57   10.87
   1   8  10   63.88   15.00
  -1   8 -11   85.73   13.11
   1   8  11   66.28   15.45
  -1   8 -12    3.90    6.04
   1   8  12    7.68    7.66
  -1   9  11   34.81   11.63
   1   9 -11   44.58   11.30
  -1   9  10   56.04   13.87
   1   9 -10   89.98   13.95
  -1   9   9   10.98    7.27
   1   9  -9    6.33    5.56
  -1   9   8   56.61   12.35
   1   9  -8   55.64   10.23
  -1   9   7    3.72    5.41
   1   9  -7    6.36    4.84
  -1   9   6   89.50   13.50
   1   9  -6   86.76   10.26
  -1   9   5  380.27   20.76
   1   9  -5  436.91   19.16
  -1   9   4    5.96    4.04
   1   9  -4    0.16    3.70
  -1   9   3  112.88   10.07
   1   9  -3  140.90   11.15
  -1   9   2  121.70    9.09
   1   9  -2  125.90   10.68
  -1   9   1  184.38    8.90
   1   9  -1  195.32   13.15
   1   9   0   27.79    6.86
   1   9   2   70.21   11.40
   1   9   3   49.25   10.06
   1   9   4  402.65   22.88
   1   9   5  214.49   18.35
   1   9   6  303.73   22.72
   1   9   7  202.38   19.16
   1   9   8   58.58   13.16
   1   9   9   33.86   11.07
   1   9  10   71.88   16.15
   1   9  11    5.45    7.66
  -1  10   9   45.69   12.31
  -1  10   8  137.83   16.75
  -1  10   7   71.94   13.14
  -1  10   6   57.15   11.43
  -1  10   5   12.25    5.97
   1  10  -5    9.29    5.75
  -1  10   4  105.74   11.21
   1  10  -4  137.52   11.18
  -1  10   3   25.64    6.14
   1  10  -3   33.10    7.01
   1  10  -2   39.89    7.73
   1  10   1  769.22   27.98
   1  10   2   82.48   12.68
   1  10   3  208.79   16.68
   1  10   4  304.43   21.02
   1  10   5  275.09   21.39
   1  10   6   37.67    9.94
   1  10   7   32.87   10.21
   1  10   8   24.01    9.09
   1  10   9   67.72   15.31
  -1  11   6    5.66    6.29
   1  11   1   30.71    8.04
   1  11   2  163.94   14.96
   1  11   3  110.38   15.57
   1  11   4  236.47   18.48
   1  11   5   84.33   14.22
   1  11   6   70.48   13.76
  -2   0  17   49.98   15.56
   2   0 -17   43.59   16.80
  -2   0  16  111.53   21.50
   2   0 -16  150.68   25.12
  -2   0  15    6.06    7.53
   2   0 -15    5.98    9.12
  -2   0  14    8.07    7.91
   2   0 -14   -2.49    6.50
  -2   0  13  134.16   20.46
   2   0 -13  104.68   18.32
  -2   0  12   92.53   16.10
   2   0 -12  104.99   17.79
  -2   0  11  338.70   24.31
   2   0 -11  362.66   25.34
  -2   0  10  100.16   15.15
   2   0 -10  121.43   15.12
  -2   0   9   43.84   10.45
   2   0  -9   40.76   10.10
  -2   0   8  135.26   13.77
   2   0  -8  135.70   13.90
  -2   0   7  964.36   32.48
   2   0  -7 1070.70   34.30
  -2   0   6  462.61   21.58
   2   0  -6  516.66   22.84
  -2   0   5  366.50   18.33
  -2   0   5  412.38   19.05
   2   0  -5  376.33   18.10
   2   0  -5  422.47   19.65
  -2   0   4   54.17    8.25
  -2   0   4   78.70    8.71
   2   0  -4   80.58    8.67
   2   0  -4   74.08    9.00
  -2   0   3    4.25    3.36
  -2   0   3    8.30    3.95
   2   0  -3    8.63    3.86
   2   0  -3   14.68    4.93
  -2   0   2  232.53   12.53
  -2   0   2  243.67   12.62
   2   0  -2  278.39   13.64
  -2   0   1  569.86   18.13
   2   0  -1  437.82   15.89
   2   0  -1  560.58   18.20
  -2   0   0  417.17   15.68
  -2   0   0  497.73   16.72
   2   0   0  404.52   15.04
   2   0   0  462.46   16.36
  -2   0  -1  236.34   12.10
  -2   0  -1  285.43   12.96
   2   0   1  245.75   12.07
   2   0   1  276.59   12.92
  -2   0  -2 1832.20   33.30
  -2   0  -2 2002.90   34.20
   2   0   2 1769.00   31.90
   2   0   2 2050.30   34.80
  -2   0  -3 1109.40   27.20
  -2   0  -3 1294.60   28.90
   2   0   3 1141.30   26.90
   2   0   3 1276.70   28.90
  -2   0  -4   72.66    9.04
  -2   0  -4   86.21    8.89
   2   0   4   74.19    8.19
   2   0   4   86.67    9.18
  -2   0  -5 1321.10   33.20
  -2   0  -5 1461.60   34.20
   2   0   5 1343.40   32.60
  -2   0  -6    0.82    3.58
  -2   0  -6    2.94    3.56
   2   0   6    0.97    4.24
  -2   0  -7  128.33   12.75
  -2   0  -7  142.76   12.92
   2   0   7  198.14   15.35
  -2   0  -8  513.05   24.98
   2   0   8  658.47   27.96
  -2   0  -9   70.25   12.31
   2   0   9   88.82   14.05
  -2   0 -10  134.46   15.65
   2   0  10  168.87   16.41
  -2   0 -11  285.04   22.45
   2   0  11  270.82   21.41
  -2   0 -12  244.84   22.08
   2   0  12  258.08   22.28
  -2   0 -13   65.79   14.92
   2   0  13   74.80   15.14
  -2   0 -14  249.69   24.84
   2   0  14  270.75   25.00
  -2   0 -15  261.09   26.22
   2   0  15  234.01   24.86
  -2   0 -16    9.54    9.33
   2   0  16    1.51    7.17
  -2   0 -17   29.78   12.77
   2   0  17   36.36   13.73
  -2  -1  17  123.72   23.05
  -2   1  17  147.85   25.53
   2  -1 -17  113.49   23.68
   2   1 -17  116.46   23.48
  -2  -1  16   15.49   10.45
  -2   1  16   -1.41    7.28
   2  -1 -16   -4.04    7.98
   2   1 -16    1.63    8.15
  -2  -1  15   32.17   11.59
  -2   1  15   15.41   10.12
   2  -1 -15   27.91   11.76
   2   1 -15   25.30   11.01
  -2  -1  14   85.92   17.36
  -2   1  14   96.36   18.51
   2  -1 -14  111.80   19.87
   2   1 -14   96.00   19.00
  -2  -1  13   43.06   12.38
  -2   1  13   65.50   15.10
   2  -1 -13   41.99   12.88
   2   1 -13   51.05   13.38
  -2  -1  12  430.51   28.25
  -2   1  12  409.50   28.28
   2  -1 -12  460.86   29.67
   2   1 -12  500.19   30.88
  -2  -1  11   21.50    8.58
  -2   1  11   22.89    9.17
   2  -1 -11   28.92    9.45
   2   1 -11    9.04    7.19
  -2  -1  10  192.93   17.72
  -2   1  10  191.59   18.22
   2  -1 -10  197.85   18.56
   2   1 -10  181.91   17.74
  -2  -1   9 1524.50   44.90
  -2   1   9 1547.10   46.10
   2  -1  -9 1637.10   47.20
   2   1  -9 1683.30   47.80
  -2  -1   8  120.90   13.06
  -2   1   8  106.79   12.58
   2  -1  -8  106.81   12.59
   2   1  -8  107.51   12.72
  -2  -1   7  336.01   19.58
  -2   1   7  349.11   20.17
   2  -1  -7  376.30   20.78
   2   1  -7  374.07   20.76
  -2  -1   6  300.69   17.59
  -2   1   6  296.56   17.50
  -2   1   6  316.33   17.81
   2  -1  -6  339.19   18.85
   2   1  -6  301.55   17.39
   2   1  -6  325.95   18.47
  -2  -1   5   57.29    8.80
  -2  -1   5   85.26    9.43
  -2   1   5   58.70    9.34
  -2   1   5   71.72   10.03
   2  -1  -5   69.65   10.06
   2  -1  -5   65.94    9.69
   2   1  -5   71.79   10.16
   2   1  -5   57.79    9.44
  -2  -1   4  439.20   18.95
  -2  -1   4  400.60   17.80
  -2   1   4  383.03   17.67
  -2   1   4  427.45   18.19
   2  -1  -4  393.07   17.28
   2  -1  -4  435.69   18.70
   2   1  -4  382.69   17.46
   2   1  -4  451.60   19.37
  -2  -1   3   33.66    6.38
  -2  -1   3   45.40    7.24
  -2   1   3   38.32    6.93
  -2   1   3   41.90    6.96
   2  -1  -3   31.03    5.92
   2  -1  -3   40.63    6.82
   2   1  -3   33.28    6.35
   2   1  -3   42.02    7.49
  -2  -1   2  792.73   22.89
  -2  -1   2  921.03   24.28
  -2   1   2  879.77   23.09
  -2   1   2  861.41   22.55
   2  -1  -2  802.45   21.45
   2  -1  -2  885.72   22.88
   2   1  -2  761.24   22.17
  -2  -1   1   18.06    4.86
  -2  -1   1   13.65    4.30
  -2   1   1   16.94    4.46
  -2   1   1   14.54    4.09
   2  -1  -1   14.49    3.98
   2  -1  -1   12.33    3.90
   2   1  -1   15.09    4.47
   2   1  -1   14.29    4.62
  -2  -1   0 2837.00   41.40
  -2  -1   0 3329.90   44.20
  -2   1   0 2781.40   37.60
  -2   1   0 3174.50   39.70
   2  -1   0 2772.50   36.50
   2  -1   0 3161.00   39.50
   2   1   0 2825.60   40.80
   2   1   0 3295.30   44.60
  -2  -1  -1  831.95   23.01
  -2  -1  -1  965.06   24.32
  -2   1  -1  874.08   21.43
  -2   1  -1  951.83   22.01
   2  -1   1  790.70   19.70
   2  -1   1  919.22   21.46
   2   1   1  886.74   23.33
   2   1   1  990.35   24.98
  -2  -1  -2  152.03   10.97
  -2  -1  -2  165.55   10.97
  -2   1  -2  144.20    9.69
  -2   1  -2  167.30   10.07
   2  -1   2  139.12    9.01
   2  -1   2  172.59   10.18
   2   1   2  141.44   10.22
  -2  -1  -3 1496.20   32.90
  -2  -1  -3 1641.20   33.90
  -2   1  -3 1434.70   29.40
  -2   1  -3 1560.50   30.20
   2  -1   3 1453.10   28.60
   2  -1   3 1650.70   30.80
   2   1   3 1465.00   32.00
   2   1   3 1619.40   34.20
  -2  -1  -4  316.36   16.66
  -2  -1  -4  362.25   17.15
  -2   1  -4  336.70   15.74
  -2   1  -4  383.80   16.19
   2  -1   4  331.59   14.93
   2   1   4  349.98   16.88
   2   1   4  388.07   18.16
  -2  -1  -5 1694.60   38.90
  -2  -1  -5 1799.80   39.30
  -2   1  -5 1695.60   36.20
  -2   1  -5 1856.10   37.10
   2  -1   5 2581.40   43.50
   2  -1   5 1628.30   34.10
   2   1   5 1671.30   37.80
  -2  -1  -6 1478.70   38.40
  -2  -1  -6 1657.90   40.70
  -2   1  -6 1522.60   36.60
  -2   1  -6 1633.60   37.10
   2  -1   6 2277.30   43.50
   2   1   6 2316.40   47.70
  -2  -1  -7  131.78   13.35
  -2   1  -7  131.79   12.76
  -2   1  -7  137.19   12.38
   2  -1   7  168.62   13.80
   2   1   7  221.26   16.78
  -2  -1  -8   34.62    9.03
  -2   1  -8   18.74    6.92
  -2   1  -8   24.27    7.19
   2  -1   8   46.31    9.66
   2   1   8   30.86    8.38
  -2  -1  -9  404.22   24.22
  -2   1  -9  400.16   22.95
   2  -1   9  420.57   22.86
   2   1   9  568.03   28.28
  -2  -1 -10   56.22   11.85
  -2   1 -10   42.09   10.58
   2  -1  10   37.35    9.17
   2   1  10   34.13   10.05
  -2  -1 -11  143.28   17.47
  -2   1 -11  119.86   17.64
   2  -1  11  121.03   14.92
   2   1  11  106.11   16.66
  -2  -1 -12   95.79   17.17
  -2   1 -12   75.52   14.64
   2  -1  12   82.73   15.35
   2   1  12  103.96   17.60
  -2  -1 -13  264.76   24.63
  -2   1 -13  274.47   23.85
   2  -1  13  325.22   25.13
   2   1  13  255.84   23.43
  -2  -1 -14  175.28   24.90
  -2   1 -14  222.49   23.03
   2  -1  14  190.62   21.05
   2   1  14  198.84   22.33
  -2  -1 -15   38.27   13.36
  -2   1 -15   21.90   11.72
   2  -1  15   22.93   10.50
   2   1  15   29.53   11.95
  -2  -1 -16  117.06   21.86
  -2   1 -16  114.56   21.89
   2  -1  16  110.35   20.38
   2   1  16  148.86   24.61
  -2  -1 -17   40.20   14.96
  -2   1 -17   68.41   18.52
   2  -1  17   58.03   21.43
   2   1  17   68.19   17.76
  -2  -2  17   96.62   19.98
  -2   2  17  108.83   23.03
  -2  -2  16  204.56   28.23
  -2   2  16  166.06   26.07
   2  -2 -16  167.31   27.41
   2   2 -16  217.18   26.29
  -2  -2  15   65.59   15.82
  -2   2  15   69.45   16.39
   2  -2 -15   77.90   17.47
   2   2 -15   50.97   14.61
  -2  -2  14   23.45   10.74
  -2   2  14    6.26    7.48
   2  -2 -14   15.98    9.07
   2   2 -14   17.62    9.77
  -2  -2  13  166.58   19.22
  -2   2  13  172.02   20.85
   2  -2 -13  179.66   20.73
   2   2 -13  176.29   20.51
  -2  -2  12   98.69   16.53
  -2   2  12  138.02   19.87
   2  -2 -12  146.36   18.08
   2   2 -12  125.79   19.01
  -2  -2  11  298.14   22.62
  -2   2  11  332.17   24.72
   2  -2 -11  344.60   24.93
   2   2 -11  390.36   26.38
  -2  -2  10   48.63   11.27
  -2   2  10   56.46   12.57
   2  -2 -10   51.71   12.11
   2   2 -10   55.57   11.80
  -2  -2   9  465.51   25.22
  -2   2   9  492.05   26.85
   2  -2  -9  530.29   27.40
   2   2  -9  520.41   27.13
  -2  -2   8  301.07   19.56
  -2   2   8  275.41   19.31
   2  -2  -8  338.29   21.09
   2   2  -8  362.05   21.72
  -2  -2   7  394.73   20.93
  -2   2   7  395.94   21.47
   2  -2  -7  432.44   22.15
   2   2  -7  481.06   23.43
  -2  -2   6  298.17   17.49
  -2   2   6  300.40   17.77
  -2   2   6  357.06   18.96
   2  -2  -6  290.29   17.44
   2   2  -6  323.20   18.14
   2   2  -6  325.34   18.57
  -2  -2   5  363.68   18.26
  -2   2   5  380.89   18.80
  -2   2   5  371.39   18.19
   2  -2  -5  403.32   18.91
   2   2  -5  413.92   19.30
   2   2  -5  435.33   20.35
  -2  -2   4  270.90   15.18
  -2  -2   4  321.94   16.17
  -2   2   4  281.64   15.29
  -2   2   4  309.89   15.73
   2  -2  -4  282.24   14.56
   2  -2  -4  335.97   16.31
   2   2  -4  264.53   14.95
   2   2  -4  330.20   17.03
  -2  -2   3 2039.60   38.50
  -2  -2   3 2184.80   39.30
  -2   2   3 2014.20   36.70
  -2   2   3 2197.10   37.80
   2  -2  -3 2042.30   35.60
   2  -2  -3 2212.60   37.50
   2   2  -3 1995.80   38.00
   2   2  -3 2257.20   41.00
  -2  -2   2  266.24   14.08
  -2  -2   2  302.76   14.68
  -2   2   2  286.03   13.43
  -2   2   2  313.32   13.86
   2  -2  -2  275.09   12.52
   2  -2  -2  280.85   12.97
   2   2  -2  276.94   14.24
   2   2  -2  321.19   15.56
  -2  -2   1  298.28   14.55
  -2  -2   1  349.96   15.34
  -2   2   1  324.73   13.37
  -2   2   1  357.37   13.76
   2  -2  -1  325.19   12.65
   2  -2  -1  339.35   13.16
   2   2  -1  307.96   14.59
   2   2  -1  370.72   16.31
  -2  -2   0  858.53   23.98
  -2  -2   0  995.12   25.38
  -2   2   0  803.29   19.64
  -2   2   0  949.74   21.12
   2  -2   0  847.87   19.18
   2  -2   0 1000.20   21.10
   2   2   0  823.43   23.30
   2   2   0  972.38   25.66
  -2  -2  -1   66.00    8.04
  -2  -2  -1   85.32    8.49
  -2   2  -1   76.65    6.93
  -2   2  -1   82.00    6.97
   2  -2   1   62.80    5.89
   2  -2   1   68.96    6.37
   2   2   1   63.42    7.52
   2   2   1   86.55    8.92
  -2  -2  -2  366.68   16.94
  -2  -2  -2  412.25   17.35
  -2   2  -2  360.35   13.69
  -2   2  -2  420.10   14.42
   2  -2   2  387.19   13.23
   2  -2   2  422.65   14.01
   2   2   2  376.27   16.72
   2   2   2  407.84   17.70
  -2  -2  -3  896.07   26.79
  -2  -2  -3 1019.30   28.00
  -2   2  -3  969.72   23.09
  -2   2  -3 1034.40   23.50
   2  -2   3  866.03   20.51
   2  -2   3  994.03   22.24
   2   2   3  920.67   26.74
   2   2   3 1043.20   28.90
  -2  -2  -4  298.91   16.82
  -2  -2  -4  400.62   18.72
  -2   2  -4  346.71   15.14
  -2   2  -4  352.73   15.00
   2  -2   4  509.48   17.40
   2  -2   4  327.06   13.84
   2   2   4  321.65   16.94
   2   2   4  359.09   18.42
  -2  -2  -5  826.73   28.37
  -2   2  -5  789.18   23.92
  -2   2  -5  886.93   24.81
   2  -2   5 1252.40   28.60
   2  -2   5  810.16   22.85
   2   2   5  794.54   27.30
   2   2   5  887.67   29.43
  -2  -2  -6  253.47   17.24
  -2   2  -6  251.66   14.97
  -2   2  -6  282.39   15.56
   2  -2   6  349.05   16.70
  -2  -2  -7  273.37   18.86
  -2   2  -7  267.65   16.52
  -2   2  -7  295.96   16.92
   2  -2   7  263.35   15.58
   2   2   7  407.52   22.84
  -2  -2  -8   59.00   11.41
  -2   2  -8   56.84   10.22
  -2   2  -8   67.23   10.45
   2  -2   8   72.36   10.68
   2   2   8   87.47   13.45
  -2  -2  -9  211.31   18.65
  -2   2  -9  183.97   16.07
  -2   2  -9  198.74   17.56
   2  -2   9  218.49   16.29
   2   2   9  297.51   21.71
  -2  -2 -10 1374.60   46.70
  -2   2 -10 1374.70   43.10
   2  -2  10 1410.40   41.70
   2   2  10 1900.40   54.70
  -2  -2 -11   96.16   16.39
  -2   2 -11  105.19   16.51
   2  -2  11  116.21   14.20
   2   2  11  104.91   16.64
  -2  -2 -12  218.85   21.89
  -2   2 -12  248.59   21.60
   2  -2  12  284.92   21.80
   2   2  12  243.90   22.40
  -2  -2 -13   20.38   10.50
  -2   2 -13   34.80   11.28
   2  -2  13   30.66    9.76
   2   2  13   31.33   11.36
  -2  -2 -14  185.21   22.61
  -2   2 -14  206.89   22.49
   2  -2  14  205.09   20.83
   2   2  14  204.59   23.22
  -2  -2 -15   31.82   12.57
  -2   2 -15    8.03    8.25
   2  -2  15    7.06    8.12
   2   2  15   10.47    9.34
  -2  -2 -16   48.05   15.77
  -2   2 -16   23.05   10.96
   2   2  16   31.70   12.87
  -2  -3  16   41.90   13.77
  -2   3  16   29.82   12.97
   2  -3 -16   25.89   13.27
   2   3 -16   40.18   14.76
  -2  -3  15  123.67   20.33
  -2   3  15  118.68   21.64
   2  -3 -15  121.43   21.67
   2   3 -15  144.77   23.84
  -2  -3  14  130.70   20.10
  -2   3  14  156.92   23.00
   2  -3 -14  157.41   23.59
   2   3 -14  128.25   21.07
  -2  -3  13  117.48   19.14
  -2   3  13  111.98   19.96
   2  -3 -13   89.89   17.57
   2   3 -13  112.68   18.92
  -2  -3  12  350.91   25.40
  -2   3  12  372.38   27.67
   2  -3 -12  421.09   28.75
   2   3 -12  442.92   29.61
  -2  -3  11   28.93    9.23
  -2   3  11   21.09    8.74
   2  -3 -11   27.64    9.10
   2   3 -11   24.06    9.29
  -2  -3  10  166.94   16.18
  -2   3  10  179.24   18.18
   2  -3 -10  159.31   16.82
   2   3 -10  193.24   18.24
  -2  -3   9  153.50   15.01
  -2   3   9  163.41   16.40
   2  -3  -9  157.78   16.04
   2   3  -9  147.40   15.38
  -2  -3   8  197.30   15.99
  -2   3   8  198.64   16.96
   2  -3  -8  202.77   16.61
   2   3  -8  246.94   18.42
  -2  -3   7   75.29   11.35
  -2   3   7   61.08   10.78
   2  -3  -7   74.02   11.60
   2   3  -7   77.01   11.70
   2   3  -7   69.80   11.48
  -2  -3   6  179.82   13.87
  -2   3   6  202.22   15.00
  -2   3   6  193.78   14.49
   2  -3  -6  228.12   15.54
   2   3  -6  191.15   14.31
   2   3  -6  216.09   15.59
  -2  -3   5  854.18   27.60
  -2   3   5  864.93   28.01
  -2   3   5  937.56   28.64
   2  -3  -5  942.74   28.36
   2   3  -5  839.02   27.58
   2   3  -5  946.26   29.76
  -2  -3   4  203.07   13.53
  -2   3   4  200.49   13.16
  -2   3   4  223.35   13.56
   2  -3  -4  201.07   12.34
   2  -3  -4  225.32   13.31
   2   3  -4  222.93   14.12
   2   3  -4  238.57   15.03
  -2  -3   3   44.98    7.94
  -2  -3   3   43.32    7.46
  -2   3   3   32.31    6.20
  -2   3   3   35.07    6.42
   2  -3  -3   33.81    6.10
   2  -3  -3   41.52    6.69
   2   3  -3   41.30    7.78
   2   3  -3   35.49    7.18
  -2  -3   2 1399.20   31.80
  -2  -3   2 1545.90   32.80
  -2   3   2 1417.00   28.50
  -2   3   2 1561.70   29.60
   2  -3  -2 1354.00   26.10
   2  -3  -2 1509.20   27.90
   2   3  -2 1396.90   31.90
   2   3  -2 1613.20   34.90
  -2  -3   1  487.42   18.92
  -2  -3   1  542.83   19.56
  -2   3   1  544.10   16.71
  -2   3   1  544.72   16.51
   2  -3  -1  494.17   14.61
   2  -3  -1  555.25   15.72
   2   3  -1  468.21   18.50
   2   3  -1  576.63   20.92
  -2  -3   0  599.51   20.96
  -2  -3   0  675.31   21.84
  -2   3   0  577.85   16.19
  -2   3   0  642.12   16.87
   2  -3   0  596.01   14.76
   2  -3   0  667.27   15.83
   2   3   0  587.20   20.79
   2   3   0  659.68   22.41
  -2  -3  -1  337.81   16.38
  -2  -3  -1  393.90   17.25
  -2   3  -1  334.48   12.20
  -2   3  -1  365.53   12.60
   2  -3   1  332.71   10.68
   2   3   1  336.88   16.28
   2   3   1  385.62   17.67
  -2  -3  -2  151.08   11.70
  -2  -3  -2  166.91   11.84
  -2   3  -2  132.17    8.26
  -2   3  -2  157.02    8.75
   2  -3   2  129.18    7.03
   2   3   2  121.38   10.56
   2   3   2  151.16   12.17
  -2  -3  -3  640.22   23.62
  -2  -3  -3  746.82   24.95
  -2   3  -3  629.16   17.59
  -2   3  -3  706.35   18.39
   2  -3   3 1043.20   23.00
   2  -3   3  657.40   15.93
   2   3   3  633.64   23.32
   2   3   3  744.89   25.82
  -2  -3  -4  280.63   16.75
  -2   3  -4  287.20   13.09
  -2   3  -4  293.99   13.08
   2  -3   4  330.64   12.69
   2  -3   4  249.90   10.93
   2   3   4  272.33   16.31
   2   3   4  323.95   18.22
  -2  -3  -5  108.17   11.66
  -2   3  -5  127.77    9.96
  -2   3  -5  120.68    9.35
   2  -3   5  155.52    9.95
   2  -3   5  116.50    8.53
   2   3   5  109.49   13.55
   2   3   5  121.22   12.28
  -2  -3  -6  613.66   26.56
  -2   3  -6  612.89   21.90
  -2   3  -6  636.30   21.81
   2  -3   6  641.59   20.56
   2  -3   6  689.50   25.57
  -2  -3  -7  169.37   15.62
  -2   3  -7  168.68   12.90
  -2   3  -7  188.36   13.27
   2  -3   7  159.43   11.65
   2   3   7  288.48   20.19
  -2  -3  -8  545.05   27.73
  -2   3  -8  563.90   24.31
  -2   3  -8  637.13   25.26
   2  -3   8  589.79   22.99
   2   3   8  883.85   35.46
  -2  -3  -9  349.74   23.66
  -2   3  -9  349.05   20.67
  -2   3  -9  370.68   20.70
   2  -3   9  364.21   19.60
   2   3   9  423.48   26.19
  -2  -3 -10  135.06   19.47
  -2   3 -10  114.75   13.80
   2  -3  10  141.04   13.65
   2   3  10  168.07   18.92
  -2  -3 -11  145.26   18.01
  -2   3 -11  174.25   17.47
   2  -3  11  152.75   14.85
   2   3  11  173.97   18.94
  -2  -3 -12   23.04   10.41
  -2   3 -12   32.40    9.83
   2  -3  12   30.24    8.77
   2   3  12   27.87   10.55
  -2  -3 -13   68.64   15.89
  -2   3 -13   45.78   12.67
   2  -3  13   60.12   12.68
   2   3  13   62.14   15.05
  -2  -3 -14    2.63    6.96
  -2   3 -14    6.53    7.11
   2   3  14    1.93    6.03
  -2  -3 -15  128.67   22.37
  -2   3 -15   94.96   18.67
   2   3  15  101.61   20.08
  -2  -3 -16   -2.79    8.52
  -2   3 -16    7.33    8.36
   2   3  16   15.04   10.34
  -2   4  16   66.28   18.17
   2  -4 -16   91.35   20.78
   2   4 -16   73.93   17.63
  -2   4  15  101.01   20.58
   2  -4 -15  137.34   23.17
   2   4 -15  169.55   25.96
  -2  -4  14   14.80    8.24
  -2   4  14   23.27   10.97
   2  -4 -14   15.55   10.41
   2   4 -14   18.64   11.09
  -2  -4  13  261.62   22.86
  -2   4  13  281.18   26.09
   2  -4 -13  284.65   25.45
   2   4 -13  304.79   26.18
  -2  -4  12   49.44   11.87
  -2   4  12   30.51   11.12
   2  -4 -12   21.45    8.92
   2   4 -12   52.95   13.35
  -2  -4  11   -3.02    4.26
  -2   4  11    0.10    5.88
   2  -4 -11   -2.40    4.85
   2   4 -11    3.74    5.53
  -2  -4  10   32.86    9.51
  -2   4  10   27.63    9.07
   2  -4 -10   57.15   12.91
   2   4 -10   44.39   11.03
  -2  -4   9   62.76   11.59
  -2   4   9   49.24   10.90
   2  -4  -9   50.35   11.25
   2   4  -9   66.49   12.43
  -2  -4   8    2.79    4.31
  -2   4   8    3.93    4.56
   2  -4  -8    5.54    5.25
   2   4  -8    1.15    4.43
  -2  -4   7    9.11    5.16
  -2   4   7    5.48    5.29
   2  -4  -7    2.63    4.28
   2   4  -7    7.70    5.30
   2   4  -7   18.21    6.79
  -2  -4   6  820.20   28.26
  -2   4   6  804.86   29.33
  -2   4   6  850.42   29.53
   2  -4  -6  899.35   29.63
   2   4  -6  785.94   28.37
   2   4  -6  962.91   31.97
  -2  -4   5  613.89   23.53
  -2   4   5  646.64   24.63
  -2   4   5  673.76   24.68
   2  -4  -5  709.70   24.51
   2   4  -5  657.51   24.91
   2   4  -5  757.44   27.36
  -2  -4   4 2870.20   48.40
  -2   4   4 2876.90   47.60
  -2   4   4 2938.50   47.40
   2  -4  -4 3036.90   46.10
   2   4  -4 2742.30   48.50
   2   4  -4 3236.30   53.60
  -2  -4   3  840.71   25.71
  -2   4   3  786.40   23.22
  -2   4   3  851.97   23.89
   2  -4  -3  831.89   21.92
   2  -4  -3  891.77   22.93
   2   4  -3  897.06   27.21
   2   4  -3  891.21   27.55
  -2  -4   2  148.01   11.14
  -2  -4   2  156.47   12.87
  -2   4   2  157.92   10.13
  -2   4   2  168.89   10.36
   2  -4  -2  139.09    8.51
   2  -4  -2  154.35    8.97
   2   4  -2  151.86   11.65
   2   4  -2  193.70   13.34
  -2  -4   1  263.36   14.48
  -2  -4   1  302.94   15.21
  -2   4   1  283.53   12.02
  -2   4   1  303.40   12.38
   2  -4  -1  274.12   10.09
   2   4  -1  273.65   14.99
   2   4  -1  338.54   17.00
  -2  -4   0  930.02   26.64
  -2  -4   0 1077.10   28.20
  -2   4   0  927.17   19.55
  -2   4   0 1016.30   20.30
   2  -4   0  929.75   15.39
   2  -4   0 1043.90   19.60
   2   4   0  942.22   27.15
   2   4   0 1085.70   29.60
  -2  -4  -1  126.82   10.84
  -2   4  -1  127.72    7.50
  -2   4  -1  138.60    7.62
   2  -4   1  124.00    4.94
   2   4   1  124.87   10.68
   2   4   1  132.65   11.39
  -2  -4  -2  222.62   14.36
  -2   4  -2  198.77    9.04
  -2   4  -2  237.34    9.70
   2  -4   2  264.35    6.64
   2  -4   2  206.20    5.79
   2   4   2  214.41   13.99
   2   4   2  252.85   15.56
  -2  -4  -3  404.33   19.61
  -2   4  -3  388.14   12.98
  -2   4  -3  451.54   13.78
   2  -4   3  398.45    9.20
   2  -4   3  374.57    8.89
   2   4   3  394.77   19.43
   2   4   3  447.81   20.92
  -2  -4  -4    9.07    5.09
  -2   4  -4   16.98    4.23
  -2   4  -4   15.32    3.93
   2  -4   4   10.06    2.55
   2   4   4   14.01    5.52
   2   4   4   13.78    6.10
  -2  -4  -5    8.55    4.84
  -2   4  -5   13.20    4.14
  -2   4  -5   10.66    3.80
   2  -4   5    8.80    2.85
   2   4   5    9.08    5.10
  -2  -4  -6  431.61   23.14
  -2   4  -6  401.60   17.09
  -2   4  -6  418.32   17.25
   2  -4   6  407.98   14.98
   2  -4   6  396.82   14.55
  -2  -4  -7  793.73   32.55
  -2   4  -7  783.49   25.61
  -2   4  -7  836.59   25.99
   2  -4   7  786.82   22.47
   2   4   7 1231.80   41.20
  -2  -4  -8   20.19    8.28
  -2   4  -8   19.26    6.32
  -2   4  -8   19.83    6.16
   2  -4   8   18.55    5.31
   2   4   8   29.46    9.46
  -2  -4  -9   15.16    7.77
  -2   4  -9   20.40    6.97
  -2   4  -9   18.21    6.61
   2  -4   9   24.69    6.54
   2   4   9   30.35    9.89
  -2  -4 -10  317.58   24.32
  -2   4 -10  308.50   20.36
   2  -4  10  288.90   17.61
   2   4  10  422.54   28.22
  -2  -4 -11   25.87   10.35
  -2   4 -11   22.61    8.16
   2  -4  11   19.82    6.83
   2   4  11   20.68    9.74
  -2  -4 -12    6.26    7.67
  -2   4 -12    8.90    6.34
   2   4  12   13.47    8.15
  -2  -4 -13   52.41   14.50
  -2   4 -13   41.02   11.55
   2   4  13   51.28   14.63
  -2  -4 -14   97.58   19.29
  -2   4 -14  127.73   20.45
   2   4  14   84.64   18.54
  -2  -4 -15   31.83   13.36
  -2   4 -15   11.40    8.40
   2   4  15   33.10   12.54
  -2  -4 -16   39.19   15.26
  -2   4 -16   35.60   13.68
   2   4  16   35.28   14.32
  -2   5  15   68.78   17.46
   2  -5 -15  100.87   21.00
   2   5 -15   60.98   16.00
  -2   5  14  127.76   22.34
   2  -5 -14  121.49   21.73
   2   5 -14  146.80   22.40
  -2   5  13   12.34    8.64
   2  -5 -13    3.99    7.73
   2   5 -13    6.10    7.26
  -2  -5  12  102.86   15.82
  -2   5  12  111.16   18.67
   2  -5 -12  137.64   20.64
   2   5 -12  158.64   19.18
  -2  -5  11    9.83    6.02
  -2   5  11    9.78    7.35
   2  -5 -11   -1.79    5.15
   2   5 -11   -1.05    5.82
  -2  -5  10  116.38   13.88
  -2   5  10  104.26   16.71
   2  -5 -10  135.21   16.25
   2   5 -10  115.40   17.10
  -2  -5   9  237.28   17.79
  -2   5   9  220.58   19.50
   2  -5  -9  241.22   19.42
   2   5  -9  276.00   20.86
  -2  -5   8   46.93    9.44
  -2   5   8   44.21   10.46
   2  -5  -8   56.67   11.08
   2   5  -8   59.92   11.60
  -2  -5   7  265.72   17.14
  -2   5   7  263.36   18.76
  -2   5   7  257.62   18.38
   2  -5  -7  286.74   18.46
   2   5  -7  279.91   18.54
   2   5  -7  294.83   19.51
  -2  -5   6  152.61   12.69
  -2   5   6  161.69   14.13
  -2   5   6  164.03   13.83
   2  -5  -6  175.71   13.82
   2   5  -6  172.34   14.24
   2   5  -6  176.30   15.02
  -2  -5   5 1305.60   34.00
  -2   5   5 1309.50   35.20
  -2   5   5 1353.90   35.30
   2  -5  -5 1430.50   34.10
   2   5  -5 1283.80   35.30
   2   5  -5 1475.10   38.60
  -2  -5   4  190.51   13.08
  -2   5   4  180.05   12.75
  -2   5   4  180.04   12.66
   2  -5  -4  223.81   12.74
   2   5  -4  174.89   13.35
   2   5  -4  191.34   14.21
  -2  -5   3   99.76    9.64
  -2   5   3   93.30    8.90
  -2   5   3   96.06    8.85
   2  -5  -3  122.51    8.73
   2  -5  -3   96.21    7.86
   2   5  -3  108.54   10.71
   2   5  -3  101.57   10.61
  -2  -5   2   81.20    8.81
  -2   5   2   88.80    7.84
  -2   5   2   75.63    7.35
   2  -5  -2  106.76    6.96
   2   5  -2   88.09    9.62
   2   5  -2   95.96   10.46
  -2  -5   1  780.16   24.73
  -2   5   1  807.94   19.54
  -2   5   1  851.02   19.92
   2  -5  -1 1235.70   16.70
   2  -5  -1  890.30   14.26
   2   5  -1  795.22   25.98
   2   5  -1  914.54   28.31
  -2  -5   0   36.48    7.32
  -2   5   0   33.94    4.68
  -2   5   0   36.19    4.96
   2   5   0   33.37    7.28
   2   5   0   40.95    8.20
  -2  -5  -1   38.49    7.53
  -2   5  -1   33.46    4.44
  -2   5  -1   44.29    4.53
   2   5   1   51.70    8.78
   2   5   1   53.08    9.26
  -2  -5  -2  295.89   16.62
  -2   5  -2  294.34    9.77
  -2   5  -2  326.43   10.15
   2   5   2  289.58   16.84
   2   5   2  351.94   18.96
  -2  -5  -3  248.59   16.00
  -2   5  -3  257.17    9.64
  -2   5  -3  296.04   10.25
   2   5   3  234.83   15.93
   2   5   3  268.37   17.41
  -2  -5  -4  223.23   15.98
  -2   5  -4  224.12   10.05
  -2   5  -4  243.32   10.36
   2   5   4  246.46   16.87
   2   5   4  237.43   16.91
  -2  -5  -5  245.87   17.57
  -2   5  -5  218.71   11.14
  -2   5  -5  256.30   11.77
  -2  -5  -6  197.43   16.52
  -2   5  -6  192.70   11.66
  -2   5  -6  210.72   12.03
   2  -5   6  191.95    7.74
   2  -5   6  179.16    7.46
  -2  -5  -7    6.17    5.88
  -2   5  -7    4.77    3.86
  -2   5  -7    3.87    4.04
   2  -5   7    6.70    2.97
   2   5   7    6.16    7.12
  -2  -5  -8 1154.20   41.70
  -2   5  -8 1161.30   32.40
  -2   5  -8 1230.90   32.70
   2   5   8 1889.70   54.60
  -2  -5  -9  326.77   24.22
  -2   5  -9  276.98   17.68
   2  -5   9  268.62   16.14
   2   5   9  336.69   24.84
  -2  -5 -10  121.11   18.51
  -2   5 -10  125.21   13.52
   2   5  10  149.89   21.32
  -2  -5 -11   94.00   17.73
  -2   5 -11   91.63   14.64
   2   5  11  121.34   20.24
  -2  -5 -12   53.41   14.44
  -2   5 -12   56.58   12.24
   2   5  12   59.55   14.23
  -2  -5 -13    0.56    6.92
  -2   5 -13    4.65    6.67
   2   5  13    3.12    7.12
  -2  -5 -14    8.18    8.94
  -2   5 -14    0.73    6.68
   2   5  14    3.48    7.09
  -2  -5 -15    6.33    9.68
  -2   5 -15   11.54    9.81
   2   5  15   22.26   12.05
  -2   6  14   38.59   14.12
   2   6 -14   56.26   14.44
  -2   6  13   44.38   13.73
   2  -6 -13   41.10   13.62
   2   6 -13   58.32   14.58
  -2   6  12   15.15    9.18
   2  -6 -12   11.53    8.96
   2   6 -12   13.86    8.59
  -2   6  11  175.89   19.98
   2  -6 -11  176.31   19.24
   2   6 -11  180.11   19.11
  -2   6  10  100.88   16.53
   2  -6 -10  108.52   16.67
   2   6 -10  128.26   18.07
  -2  -6   9  199.68   16.28
  -2   6   9  219.67   19.82
   2  -6  -9  261.79   20.02
   2   6  -9  229.78   19.24
  -2  -6   8  285.13   18.16
  -2   6   8  264.93   20.47
   2  -6  -8  268.59   18.98
   2   6  -8  268.65   19.96
  -2  -6   7    9.45    5.25
  -2   6   7    9.89    5.87
  -2   6   7    9.63    5.65
   2  -6  -7    5.73    5.14
   2   6  -7   15.28    6.54
   2   6  -7    9.63    5.98
  -2  -6   6   84.60    9.93
  -2   6   6   95.08   11.50
  -2   6   6  100.61   11.91
   2  -6  -6  103.40   10.74
   2   6  -6   98.45   11.95
   2   6  -6  115.07   12.87
  -2  -6   5  921.01   28.37
  -2   6   5  941.26   30.54
  -2   6   5  976.83   30.65
   2  -6  -5 1035.70   28.50
   2   6  -5  953.35   31.31
   2   6  -5 1053.60   33.40
  -2  -6   4  800.17   25.80
  -2   6   4  868.20   27.19
  -2   6   4  839.53   26.38
   2  -6  -4  926.12   24.08
   2   6  -4  845.10   28.71
   2   6  -4  959.33   31.08
  -2  -6   3   49.17    8.41
  -2   6   3   38.19    6.97
  -2   6   3   39.16    6.96
   2   6  -3   50.02    9.26
   2   6  -3   42.57    8.62
  -2  -6   2  118.46   10.36
  -2   6   2  115.30    8.80
  -2   6   2  127.00    9.16
   2  -6  -2  148.55    6.31
   2  -6  -2  136.22    6.00
   2   6  -2  124.92   11.54
   2   6  -2  131.11   12.06
  -2  -6   1  164.87   12.02
  -2   6   1  159.82    9.05
  -2   6   1  172.34    9.27
   2   6  -1  168.53   13.04
   2   6  -1  195.80   14.31
  -2  -6   0   15.03    5.24
  -2   6   0    5.13    2.51
  -2   6   0   14.40    3.21
   2   6   0    9.29    4.75
   2   6   0    7.10    4.71
  -2  -6  -1  142.53   11.81
  -2   6  -1  119.07    5.94
  -2   6  -1  115.40    5.84
   2   6   1  132.09   12.09
   2   6   1  127.52   12.32
  -2  -6  -2  253.51   15.94
  -2   6  -2  247.33    7.36
  -2   6  -2  271.70    7.67
   2   6   2  248.68   16.53
   2   6   2  269.11   17.58
  -2  -6  -3  224.02   15.59
  -2   6  -3  205.10    7.16
  -2   6  -3  229.92    7.58
   2   6   3  215.20   15.96
   2   6   3  238.35   17.24
  -2  -6  -4  140.08   13.54
  -2   6  -4  123.81    6.80
  -2   6  -4  136.04    7.08
   2   6   4  122.66   13.22
   2   6   4  152.76   14.59
  -2  -6  -5  246.95   17.95
  -2   6  -5  254.92   10.86
  -2   6  -5  294.71   11.54
  -2  -6  -6  457.44   25.01
  -2   6  -6  481.88   16.54
  -2   6  -6  489.57   16.52
  -2  -6  -7  113.13   14.07
  -2   6  -7  111.20    9.71
   2   6   7  171.98   18.38
  -2  -6  -8   26.17    9.44
  -2   6  -8   35.90    7.35
   2   6   8   39.36   11.33
  -2  -6  -9  130.80   18.90
  -2   6  -9  124.56   12.46
   2   6   9  168.83   19.30
  -2  -6 -10  300.20   24.62
  -2   6 -10  285.07   18.71
   2   6  10  417.65   30.07
  -2  -6 -11  156.92   22.51
  -2   6 -11  160.23   15.91
   2   6  11  173.75   20.49
  -2  -6 -12   97.84   18.71
  -2   6 -12   89.21   14.79
   2   6  12   72.23   16.44
  -2  -6 -13    6.46    8.74
  -2   6 -13   27.45    9.82
   2   6  13   15.65    9.13
  -2  -6 -14  131.72   23.71
  -2   6 -14  123.10   19.28
   2   6  14  126.94   23.19
  -2   7  13   74.82   17.43
   2   7 -13  100.18   18.88
  -2   7  12   66.54   15.29
   2   7 -12   65.28   14.42
  -2   7  11   37.64   11.75
   2   7 -11   26.32   10.12
  -2   7  10  126.14   18.98
   2   7 -10  144.50   17.10
  -2   7   9  137.49   16.81
   2   7  -9  207.13   18.72
  -2   7   8   14.67    7.24
   2   7  -8    4.30    5.95
  -2   7   7   38.71    9.34
   2   7  -7   63.14   11.77
  -2  -7   6  263.65   17.62
  -2   7   6  269.35   18.59
   2  -7  -6  285.25   18.26
   2   7  -6  312.66   19.78
  -2  -7   5   62.15    9.46
  -2   7   5   62.66   10.50
   2  -7  -5   63.92    8.82
   2   7  -5   70.17   11.40
  -2  -7   4   99.61    9.71
  -2   7   4   95.32   10.11
  -2   7   4   92.63   10.98
   2   7  -4   90.61   11.00
   2   7  -4  131.47   13.05
  -2  -7   3  152.90   11.59
  -2   7   3  149.95   11.16
  -2   7   3  157.53   11.38
   2  -7  -3  166.05    7.05
   2  -7  -3  164.47    7.02
   2   7  -3  166.35   14.16
   2   7  -3  188.21   14.83
  -2  -7   2  416.89   18.33
  -2   7   2  380.52   15.18
  -2   7   2  411.49   15.67
   2   7  -2  402.81   20.31
   2   7  -2  462.71   22.05
  -2  -7   1  100.12    9.94
  -2   7   1   94.67    7.13
  -2   7   1   85.56    6.84
   2   7  -1   94.07   10.97
   2   7  -1   99.94   11.52
  -2  -7   0  472.31   20.19
  -2   7   0  455.08   11.76
  -2   7   0  448.99   11.68
   2   7   0  462.50   21.97
   2   7   0  557.73   24.45
  -2  -7  -1  248.09   15.50
   2   7   1  254.40   17.23
   2   7   1  296.00   18.62
  -2  -7  -2   88.54   10.23
   2   7   2  100.60   11.76
   2   7   2  100.38   12.14
  -2  -7  -3  257.58   17.07
   2   7   3  278.07   18.87
   2   7   3  284.74   19.41
  -2  -7  -4  227.23   16.75
  -2  -7  -5    7.20    5.50
  -2   7  -5    8.68    2.56
  -2   7  -5    9.09    2.82
  -2  -7  -6   66.65   12.44
  -2   7  -6   57.92    6.11
   2   7   6   77.57   14.65
  -2  -7  -7    3.85    5.13
  -2   7  -7    3.79    3.41
   2   7   7   11.19    7.73
  -2  -7  -8   26.64    9.35
  -2   7  -8   25.57    6.34
   2   7   8   27.58   10.52
  -2  -7  -9   76.43   15.27
  -2   7  -9  107.51   10.99
   2   7   9  116.89   19.47
  -2  -7 -10   -2.55    6.37
  -2   7 -10   18.91    6.58
   2   7  10   14.35    9.84
  -2  -7 -11   62.98   15.39
  -2   7 -11   65.34   11.91
   2   7  11   66.92   15.22
  -2  -7 -12   11.06   10.09
  -2   7 -12   18.24    8.08
   2   7  12   16.73    9.02
  -2  -7 -13  226.07   25.00
  -2   7 -13  236.85   20.98
   2   7  13  246.79   27.01
  -2   8  12   32.67   12.15
   2   8 -12   33.16   11.64
  -2   8  11  172.26   20.81
   2   8 -11  195.04   20.43
  -2   8  10   79.00   15.50
   2   8 -10   84.00   15.89
  -2   8   9   39.07   10.93
   2   8  -9   38.64   10.28
  -2   8   8  350.75   23.98
   2   8  -8  383.45   23.85
  -2   8   7   23.29    8.01
   2   8  -7   19.52    7.69
  -2   8   6   79.87   12.68
   2   8  -6   84.08   13.10
  -2   8   5   17.68    6.76
   2   8  -5   18.71    7.10
  -2   8   4   96.55   10.37
   2   8  -4  124.96   13.00
  -2   8   3  239.65   13.75
   2   8  -3  270.06   17.72
  -2   8   2   83.00    7.79
   2   8  -2   88.77   12.87
  -2   8   1  482.74   14.18
   2   8  -1  541.20   24.66
   2   8   0  119.68   12.81
  -2  -8  -1  338.19   18.75
   2   8   1  371.17   21.36
  -2  -8  -2  447.78   21.18
   2   8   2  493.96   25.18
  -2  -8  -3   47.20    9.60
   2   8   3   55.22   11.39
  -2  -8  -4  218.10   16.74
  -2  -8  -5  187.55   16.52
   2   8   5  346.57   24.34
  -2  -8  -6  141.21   15.38
   2   8   6  228.57   21.03
  -2  -8  -7   98.66   19.36
  -2   8  -7  102.75    9.06
   2   8   7  156.00   18.91
  -2   8  -8   33.53    6.24
   2   8   8   38.13   11.57
  -2   8  -9  131.39   11.21
   2   8   9  144.72   22.27
  -2   8 -10  119.32   12.16
   2   8  10  153.99   23.46
  -2   8 -11  162.04   16.54
   2   8  11  179.82   21.58
   2   8  12   67.59   16.79
  -2   9  10  109.08   18.81
   2   9 -10  129.55   18.21
  -2   9   9  124.95   18.68
   2   9  -9  155.30   17.07
  -2   9   8   73.47   13.97
   2   9  -8   84.42   14.42
  -2   9   7   61.99   12.26
   2   9  -7  103.65   15.13
  -2   9   6  111.05   13.35
   2   9  -6  109.20   13.59
  -2   9   5   60.60   10.45
   2   9  -5   63.46   11.51
  -2   9   4   87.87   10.15
   2   9  -4  108.05   14.47
  -2   9   3   21.45    5.57
   2   9  -3   23.98    7.71
  -2   9   2   10.36    3.87
   2   9  -2   15.63    6.49
   2   9  -1   61.01   11.12
   2   9   0  218.40   17.10
   2   9   1   92.53   14.06
   2   9   2   20.08    7.60
   2   9   5  461.91   28.57
   2   9   6  247.80   22.52
   2   9   7    1.29    5.47
   2   9   8  202.06   22.26
   2   9   9   96.85   19.65
   2   9  10   28.78   10.28
  -2  10   8   88.98   15.55
   2  10  -8   94.43   15.12
  -2  10   7   28.58    8.92
   2  10  -7   19.03    7.91
  -2  10   6   13.78    6.88
   2  10  -6   22.33    8.01
  -2  10   5   57.15   10.35
   2  10  -5   50.60   10.71
  -2  10   4   10.26    4.77
   2  10  -4   20.40    7.77
   2  10  -3  296.54   19.38
   2  10  -2   15.30    7.11
   2  10  -1  373.60   21.99
   2  10   0   67.29   12.25
   2  10   1   48.04   10.74
   2  10   4  292.09   23.25
   2  10   5   91.56   16.60
   2  10   6   64.96   14.12
   2  10   7   65.54   15.42
   2  10   8   97.10   19.00
   2  11  -3   13.46    8.38
   2  11  -2  112.11   13.52
   2  11  -1  172.62   15.94
   2  11   2   -0.97    6.92
   2  11   3  103.15   17.07
   2  11   4   10.46    9.08
  -3   0  16   16.07   11.13
   3   0 -16   -0.33    9.85
  -3   0  15  247.25   26.92
   3   0 -15  256.71   27.81
  -3   0  14  276.60   26.75
   3   0 -14  314.03   28.86
  -3   0  13   58.36   14.96
   3   0 -13   74.25   16.51
  -3   0  12  170.46   20.02
   3   0 -12  140.94   20.95
  -3   0  11   72.95   15.19
   3   0 -11   93.96   16.99
  -3   0  10  132.78   16.31
   3   0 -10  117.99   17.71
  -3   0   9  121.39   15.14
   3   0  -9  142.10   16.40
  -3   0   8   31.90    9.18
   3   0  -8   35.24   10.00
  -3   0   7   69.00   12.07
   3   0  -7   89.03   13.73
  -3   0   6   74.64   11.84
   3   0  -6   91.36   13.48
  -3   0   5 1090.00   35.00
   3   0  -5 1204.50   36.70
  -3   0   4   -0.66    3.48
   3   0  -4   -0.31    3.36
  -3   0   3   20.75    6.41
  -3   0   3   28.77    7.16
   3   0  -3   14.97    5.61
  -3   0   2 1034.10   30.90
  -3   0   2 1175.70   32.30
   3   0  -2 1022.60   36.60
   3   0  -2 1189.70   32.90
  -3   0   1  889.64   28.28
  -3   0   1  991.25   29.15
   3   0  -1  809.71   26.13
   3   0  -1 1043.80   30.20
  -3   0   0  566.43   22.49
  -3   0   0  644.92   23.45
   3   0   0  583.91   22.17
   3   0   0  638.03   23.60
  -3   0  -1  594.58   23.14
  -3   0  -1  659.86   23.76
   3   0   1  605.98   22.64
   3   0   1  679.72   24.35
  -3   0  -2   64.79    9.56
  -3   0  -2   77.96    9.29
   3   0   2   68.92    9.98
  -3   0  -3  112.38   11.36
  -3   0  -3  130.59   11.70
   3   0   3  145.25   12.49
  -3   0  -4  220.33   15.57
  -3   0  -4  270.46   16.75
   3   0   4  240.59   15.91
  -3   0  -5  212.45   15.81
  -3   0  -5  202.64   15.41
   3   0   5  227.74   16.20
  -3   0  -6    9.75    5.58
  -3   0  -7  341.12   21.47
  -3   0  -8  878.85   35.13
   3   0   8 1406.40   43.40
  -3   0  -9   46.41   11.10
   3   0   9   57.13   12.40
  -3   0 -10 1105.30   42.90
   3   0  10 1501.10   48.70
  -3   0 -11   42.82   11.85
   3   0  11   63.79   14.67
  -3   0 -12   64.56   15.15
   3   0  12   48.92   12.36
  -3   0 -13    1.08    6.35
   3   0  13    7.18    6.69
  -3   0 -14   71.24   17.41
   3   0  14   76.90   16.77
  -3   0 -15    4.37    8.90
   3   0  15    3.53    7.39
  -3   0 -16   33.39   13.32
   3   0  16   23.74   12.47
  -3  -1  16   73.16   18.21
  -3   1  16   45.87   15.84
   3  -1 -16   75.41   19.48
   3   1 -16   58.56   16.99
  -3  -1  15  135.32   22.90
  -3   1  15  122.08   21.57
   3  -1 -15  175.27   27.25
   3   1 -15  168.57   26.10
  -3  -1  14  233.37   24.63
  -3   1  14  253.60   25.98
   3  -1 -14  288.82   27.58
   3   1 -14  251.47   25.92
  -3  -1  13  563.23   35.48
  -3   1  13  522.54   34.57
   3  -1 -13  592.23   37.02
   3   1 -13  648.87   38.52
  -3  -1  12  121.42   19.00
  -3   1  12  147.53   21.55
   3  -1 -12  168.82   20.81
   3   1 -12  178.12   20.77
  -3  -1  11    0.17    5.62
  -3   1  11    5.82    6.24
   3  -1 -11    3.33    6.86
   3   1 -11    4.01    6.66
  -3  -1  10  432.27   27.81
  -3   1  10  396.22   26.82
   3  -1 -10  468.05   28.77
   3   1 -10  449.64   28.55
  -3  -1   9  786.88   35.35
  -3   1   9  805.19   35.79
   3  -1  -9  909.03   37.83
   3   1  -9  899.05   38.10
  -3  -1   8   87.57   13.83
  -3   1   8   70.43   13.24
   3  -1  -8   78.71   13.23
   3   1  -8   91.31   14.84
  -3  -1   7   10.30    6.03
  -3   1   7   14.90    6.60
   3  -1  -7   27.40    8.16
   3   1  -7   10.67    6.29
  -3  -1   6   96.53   11.98
  -3   1   6  125.65   13.46
   3  -1  -6  148.54   14.55
   3   1  -6  121.86   13.41
  -3  -1   5  160.10   14.24
  -3   1   5  140.97   13.32
   3  -1  -5  188.37   15.02
   3   1  -5  164.16   14.77
  -3  -1   4  910.79   31.11
  -3   1   4  874.06   29.96
  -3   1   4 1145.30   33.60
   3  -1  -4 1041.80   32.20
   3   1  -4 1121.50   34.60
  -3  -1   3  347.40   19.10
  -3   1   3  339.82   18.47
  -3   1   3  369.47   18.72
   3  -1  -3  407.35   19.91
   3   1  -3  392.92   20.32
  -3  -1   2  179.70   13.95
  -3  -1   2  212.75   14.66
  -3   1   2  192.47   13.90
  -3   1   2  207.13   13.94
   3  -1  -2  223.78   14.42
   3   1  -2  214.87   15.12
   3   1  -2  212.95   15.05
  -3  -1   1  183.16   13.85
  -3  -1   1  209.25   14.31
  -3   1   1  175.75   13.12
  -3   1   1  214.94   13.97
   3  -1  -1  193.11   12.99
   3  -1  -1  220.27   14.21
   3   1  -1  191.99   13.71
   3   1  -1  216.38   14.98
  -3  -1   0  282.03   16.72
  -3  -1   0  337.73   17.78
  -3   1   0  262.47   15.30
  -3   1   0  312.77   16.30
   3  -1   0  280.63   15.12
   3  -1   0  298.93   15.82
   3   1   0  278.41   16.26
   3   1   0  311.97   17.54
  -3  -1  -1  184.53   13.98
  -3  -1  -1  206.41   14.24
  -3   1  -1  162.85   12.40
  -3   1  -1  196.00   13.04
   3  -1   1  169.08   11.88
   3  -1   1  201.47   13.39
   3   1   1  163.90   12.80
   3   1   1  194.48   14.33
  -3  -1  -2  325.33   18.35
  -3  -1  -2  425.91   20.12
  -3   1  -2  336.96   17.32
  -3   1  -2  367.81   17.69
   3  -1   2  327.62   17.67
   3  -1   2  390.80   18.20
   3   1   2  388.13   19.69
  -3  -1  -3   -0.45    3.53
  -3  -1  -3    0.39    3.42
  -3   1  -3    1.29    3.47
  -3   1  -3    1.53    3.22
   3  -1   3    1.43    3.43
   3   1   3    1.11    3.81
  -3  -1  -4  940.36   31.72
  -3   1  -4  856.20   28.40
  -3   1  -4  977.75   29.79
   3  -1   4  965.58   29.34
   3   1   4  963.49   31.83
  -3  -1  -5  440.72   22.91
  -3   1  -5  450.19   21.72
  -3   1  -5  485.52   22.15
   3  -1   5  501.27   22.29
   3   1   5  499.23   24.07
  -3  -1  -6  424.46   23.40
  -3   1  -6  399.48   21.55
  -3   1  -6  387.70   20.74
   3   1   6  436.56   23.43
  -3  -1  -7   24.62    8.40
  -3   1  -7   26.27    7.91
   3  -1   7   51.36   10.48
  -3  -1  -8   31.43    9.26
  -3   1  -8   38.81    9.87
   3  -1   8   50.12   10.92
   3   1   8   56.96   12.34
  -3  -1  -9  707.94   33.77
  -3   1  -9  680.28   31.90
   3  -1   9  863.03   34.47
   3   1   9 1071.50   41.20
  -3  -1 -10   58.59   13.63
  -3   1 -10   39.50   11.22
   3  -1  10   60.48   12.71
   3   1  10   55.06   12.98
  -3  -1 -11   20.21    9.86
  -3   1 -11   30.54   10.62
   3  -1  11   31.17    9.89
   3   1  11   26.39   10.59
  -3  -1 -12   57.31   14.71
  -3   1 -12   64.18   14.54
   3  -1  12   68.25   13.96
   3   1  12   79.72   15.36
  -3  -1 -13   74.06   16.80
  -3   1 -13   66.29   15.79
   3  -1  13   72.79   15.45
   3   1  13   69.43   15.05
  -3  -1 -14   26.22   11.88
  -3   1 -14   34.17   12.70
   3  -1  14   47.44   13.31
   3   1  14   45.74   14.03
  -3  -1 -15    7.61    9.82
  -3   1 -15    9.38    8.92
   3  -1  15    8.65    8.59
   3   1  15   24.06   10.99
  -3  -1 -16   57.13   17.05
  -3   1 -16   44.83   15.18
   3   1  16   36.88   14.42
  -3  -2  16   22.48   11.65
  -3   2  16   27.05   13.17
   3  -2 -16    7.40   10.26
   3   2 -16   23.29   12.09
  -3  -2  15   55.07   15.34
  -3   2  15   62.99   17.27
   3  -2 -15   57.41   16.32
   3   2 -15   72.41   17.65
  -3  -2  14   42.08   13.41
  -3   2  14   23.01   11.13
   3  -2 -14   17.25   10.08
   3   2 -14   22.80   10.64
  -3  -2  13   45.14   13.28
  -3   2  13   24.45   10.64
   3  -2 -13   23.27   10.98
   3   2 -13   42.90   13.40
  -3  -2  12   17.40    9.15
  -3   2  12   16.01    9.29
   3  -2 -12   20.96   10.12
   3   2 -12   20.67   10.25
  -3  -2  11  181.56   19.44
  -3   2  11  188.74   20.42
   3  -2 -11  220.14   21.57
   3   2 -11  192.25   20.55
  -3  -2  10  140.50   16.70
  -3   2  10  138.11   16.89
   3  -2 -10  129.11   18.90
   3   2 -10  152.86   18.03
  -3  -2   9  291.56   22.33
  -3   2   9  300.55   22.61
   3  -2  -9  309.61   22.68
   3   2  -9  318.67   23.41
  -3  -2   8  841.41   34.91
  -3   2   8  826.10   35.08
   3  -2  -8  923.84   36.40
   3   2  -8  928.19   37.24
  -3  -2   7  398.09   23.57
  -3   2   7  458.38   25.20
   3  -2  -7  475.51   25.20
   3   2  -7  511.23   26.92
  -3  -2   6   93.57   13.72
  -3   2   6   77.12   11.84
   3  -2  -6  106.48   12.51
   3   2  -6   89.87   13.55
  -3  -2   5  288.91   18.76
  -3   2   5  289.66   18.36
  -3   2   5  296.82   18.56
   3  -2  -5  319.22   18.80
   3   2  -5  337.28   20.50
  -3  -2   4  139.77   13.12
  -3   2   4  132.25   12.58
  -3   2   4  154.40   13.01
   3  -2  -4  171.02   13.76
   3   2  -4  151.42   13.84
  -3  -2   3   35.37    8.03
  -3   2   3   18.17    5.81
  -3   2   3   24.74    6.61
   3  -2  -3   41.53    8.01
   3   2  -3   34.65    7.97
  -3  -2   2 1264.60   35.40
  -3   2   2 1224.40   32.50
  -3   2   2 1337.20   33.30
   3  -2  -2 1397.00   33.70
   3   2  -2 1140.00   33.20
   3   2  -2 1405.40   37.60
  -3  -2   1   69.90   10.20
  -3   2   1   80.78    9.24
  -3   2   1   80.52    8.89
   3  -2  -1   69.18    8.10
   3  -2  -1   79.02    8.86
   3   2  -1   77.43    9.63
   3   2  -1   81.91   11.28
  -3  -2   0   41.51    8.47
  -3   2   0   24.96    6.25
  -3   2   0   36.28    7.02
   3  -2   0   30.93    6.44
   3  -2   0   34.59    6.79
   3   2   0   26.63    6.73
   3   2   0   25.88    6.97
  -3  -2  -1  126.20   12.09
  -3   2  -1  134.16   11.01
  -3   2  -1  153.58   11.31
   3  -2   1  127.65    9.98
   3  -2   1  133.08   10.44
   3   2   1  146.84   13.44
   3   2   1  148.71   13.14
  -3  -2  -2   46.55    9.06
  -3   2  -2   35.29    6.99
  -3   2  -2   41.04    7.38
   3  -2   2   36.64    6.64
   3  -2   2   46.52    7.57
   3   2   2   36.69    8.62
  -3  -2  -3 1350.30   37.90
  -3   2  -3 1305.40   32.70
  -3   2  -3 1495.30   34.40
   3  -2   3 1437.70   32.90
   3   2   3 1500.80   40.00
  -3  -2  -4  304.28   19.15
  -3   2  -4  283.98   16.41
  -3   2  -4  314.31   16.73
   3  -2   4  321.34   16.51
   3   2   4  315.38   19.43
  -3  -2  -5  631.23   27.94
  -3   2  -5  618.13   24.56
  -3   2  -5  709.23   25.68
   3   2   5  738.52   30.04
  -3  -2  -6  189.26   16.84
  -3   2  -6  185.26   14.70
  -3   2  -6  181.53   14.33
   3  -2   6  277.58   17.29
   3   2   6  199.22   16.97
  -3  -2  -7  117.35   16.83
  -3   2  -7  124.26   13.11
  -3   2  -7  155.88   13.93
   3  -2   7  183.98   15.19
  -3  -2  -8   98.84   15.76
  -3   2  -8  111.76   13.34
   3  -2   8  123.75   13.44
   3   2   8  174.28   18.47
  -3  -2  -9  238.12   21.14
  -3   2  -9  251.38   19.64
   3  -2   9  329.91   21.59
   3   2   9  374.64   26.25
  -3  -2 -10  445.62   28.92
  -3   2 -10  395.94   25.35
   3  -2  10  429.41   24.76
   3   2  10  542.12   31.62
  -3  -2 -11   96.43   17.73
  -3   2 -11   70.45   14.13
   3  -2  11  106.58   15.80
   3   2  11  123.19   19.55
  -3  -2 -12   45.51   13.84
  -3   2 -12   57.22   13.48
   3  -2  12   80.29   14.60
   3   2  12   67.85   16.16
  -3  -2 -13  280.28   26.70
  -3   2 -13  265.57   24.71
   3  -2  13  272.49   23.29
   3   2  13  292.18   26.14
  -3  -2 -14   16.15   10.99
  -3   2 -14   18.96   10.56
   3  -2  14   14.45    9.52
   3   2  14   15.03    9.22
  -3  -2 -15  100.66   20.98
  -3   2 -15  125.45   21.91
   3   2  15  111.52   21.49
  -3  -2 -16   27.35   13.84
  -3   2 -16   37.26   14.20
   3   2  16   39.74   14.77
  -3  -3  15    2.29    7.92
  -3   3  15    0.98    7.85
   3  -3 -15    5.17    8.89
   3   3 -15   -6.82    6.97
  -3  -3  14   46.92   14.32
  -3   3  14   27.83   11.57
   3  -3 -14   37.71   13.68
   3   3 -14   80.24   19.37
  -3  -3  13   15.68    9.29
  -3   3  13   11.69    8.15
   3  -3 -13   15.73    9.57
   3   3 -13   14.25    9.87
  -3  -3  12   79.31   16.36
  -3   3  12   88.25   16.76
   3  -3 -12   84.70   17.27
   3   3 -12  101.89   18.40
  -3  -3  11   55.54   13.43
  -3   3  11   41.46   11.83
   3  -3 -11   53.77   13.51
   3   3 -11   37.98   11.98
  -3  -3  10   50.40   11.95
  -3   3  10   40.41   10.98
   3  -3 -10   46.09   12.08
   3   3 -10   41.33   11.70
  -3  -3   9  831.01   36.01
  -3   3   9  912.88   38.64
   3  -3  -9  917.65   37.90
   3   3  -9  973.64   39.99
  -3  -3   8   86.68   14.18
  -3   3   8   83.61   14.15
   3  -3  -8  109.51   15.92
   3   3  -8  101.94   16.29
  -3  -3   7  173.29   16.20
  -3   3   7  205.19   17.40
   3  -3  -7  208.70   17.14
   3   3  -7  226.71   18.74
  -3  -3   6  261.77   18.73
  -3   3   6  231.08   17.58
   3  -3  -6  282.72   18.79
   3   3  -6  249.92   18.84
  -3  -3   5  246.51   17.60
  -3   3   5  244.10   17.12
  -3   3   5  257.94   17.30
   3  -3  -5  288.11   17.89
   3   3  -5  287.13   19.46
  -3  -3   4    9.93    5.19
  -3   3   4    3.22    3.82
  -3   3   4    6.82    4.74
   3  -3  -4    8.19    4.72
   3   3  -4    6.23    4.91
  -3  -3   3  312.20   18.75
  -3   3   3  349.58   18.36
  -3   3   3  358.19   18.24
   3  -3  -3  384.35   18.32
   3   3  -3  373.00   20.77
  -3  -3   2   68.92   10.80
  -3   3   2   76.46    9.07
  -3   3   2   82.71    9.15
   3  -3  -2   79.56    8.71
   3   3  -2   73.63   11.47
   3   3  -2   72.85   11.11
  -3  -3   1  467.51   22.22
  -3   3   1  425.21   18.51
  -3   3   1  501.42   19.72
   3  -3  -1  477.35   21.94
   3  -3  -1  504.83   19.05
   3   3  -1  452.22   21.61
   3   3  -1  513.31   23.52
  -3  -3   0   24.08    6.93
  -3   3   0   15.64    5.12
  -3   3   0   27.49    6.05
   3  -3   0   18.69    4.73
   3  -3   0   26.49    5.66
   3   3   0   22.98    6.69
   3   3   0   24.82    7.20
  -3  -3  -1 1898.20   44.30
  -3   3  -1 1973.70   37.70
  -3   3  -1 2170.50   38.80
   3  -3   1 1954.60   34.50
   3  -3   1 2195.70   37.00
   3   3   1 2223.20   48.40
  -3  -3  -2  507.72   23.74
  -3   3  -2  542.62   20.22
  -3   3  -2  562.98   20.28
   3  -3   2  460.86   17.04
   3  -3   2  542.38   18.68
   3   3   2  560.86   25.32
  -3  -3  -3   66.41   11.29
  -3   3  -3   70.87    8.56
  -3   3  -3   67.50    8.21
   3  -3   3   58.17    9.21
   3  -3   3   69.46    7.73
   3   3   3   69.65   11.74
  -3  -3  -4  747.05   30.12
  -3   3  -4  719.14   24.37
  -3   3  -4  815.72   25.52
   3   3   4  774.91   30.83
  -3  -3  -5  867.73   33.43
  -3   3  -5  854.43   27.71
  -3   3  -5  898.52   27.90
   3  -3   5 1279.00   31.30
   3   3   5  913.38   34.50
  -3  -3  -6  292.18   20.80
  -3   3  -6  265.69   16.89
  -3   3  -6  279.58   16.80
   3  -3   6  396.47   18.81
   3   3   6  266.27   19.93
  -3  -3  -7    9.95    6.41
  -3   3  -7   17.33    6.42
  -3   3  -7   18.70    6.63
   3  -3   7   16.38    6.16
  -3  -3  -8  123.17   18.00
  -3   3  -8   99.40   13.95
  -3   3  -8  127.98   13.36
   3  -3   8  134.67   12.80
   3   3   8  187.18   19.44
  -3  -3  -9  137.78   17.02
  -3   3  -9  106.58   15.37
   3  -3   9  107.76   12.24
   3   3   9  180.34   19.88
  -3  -3 -10  244.20   22.39
  -3   3 -10  236.26   19.76
   3  -3  10  275.90   19.07
   3   3  10  385.77   28.16
  -3  -3 -11   76.91   16.32
  -3   3 -11   74.11   14.78
   3  -3  11   90.16   14.44
   3   3  11   87.23   16.99
  -3  -3 -12   42.31   13.29
  -3   3 -12   45.60   12.46
   3  -3  12   37.45   11.17
   3   3  12   42.90   14.06
  -3  -3 -13   76.93   17.53
  -3   3 -13   61.88   14.96
   3   3  13   76.68   16.79
  -3  -3 -14  343.75   31.46
  -3   3 -14  336.06   27.87
   3   3  14  347.22   30.28
  -3  -3 -15  132.18   24.33
  -3   3 -15  193.53   23.37
   3   3  15  201.63   25.10
  -3   4  15    2.73    8.99
   3  -4 -15    1.89    8.16
   3   4 -15   -0.47    7.36
  -3  -4  14   13.93    8.83
  -3   4  14    8.96    9.53
   3  -4 -14   12.43    9.44
   3   4 -14   16.79   10.18
  -3  -4  13  116.46   19.78
  -3   4  13  124.51   21.14
   3  -4 -13  139.05   22.94
   3   4 -13  142.81   23.04
  -3  -4  12   24.09    9.71
  -3   4  12   28.86   10.66
   3  -4 -12   43.75   13.90
   3   4 -12   37.60   12.73
  -3  -4  11  281.56   23.26
  -3   4  11  262.07   23.73
   3  -4 -11  294.86   24.33
   3   4 -11  275.77   24.26
  -3  -4  10  222.55   20.20
  -3   4  10  219.83   20.99
   3  -4 -10  272.43   22.54
   3   4 -10  245.40   22.10
  -3  -4   9   87.67   14.95
  -3   4   9   84.38   14.77
   3  -4  -9  114.74   16.71
   3   4  -9  118.93   18.30
  -3  -4   8  114.82   16.68
  -3   4   8   97.54   15.14
   3  -4  -8  127.55   14.56
   3   4  -8  129.94   15.83
  -3  -4   7  287.82   20.42
  -3   4   7  294.35   20.89
   3  -4  -7  342.21   21.37
   3   4  -7  329.84   22.69
  -3  -4   6   53.92   11.19
  -3   4   6   42.94    9.60
   3  -4  -6   47.51    9.82
   3   4  -6   46.11   10.59
  -3  -4   5   28.14    7.99
  -3   4   5   29.97    7.90
  -3   4   5   29.77    7.86
   3  -4  -5   25.74    7.30
   3   4  -5   28.18    8.10
  -3  -4   4  383.32   21.32
  -3   4   4  317.47   18.51
  -3   4   4  348.11   18.93
   3  -4  -4  377.52   18.78
   3   4  -4  337.61   20.72
  -3  -4   3  105.22   11.81
  -3   4   3   97.35   10.30
  -3   4   3   97.61   10.36
   3  -4  -3  101.82    9.81
   3   4  -3  114.29   12.98
  -3  -4   2  177.50   14.37
  -3   4   2  154.74   11.96
  -3   4   2  182.14   12.74
   3  -4  -2  194.86   12.23
   3   4  -2  160.84   15.19
   3   4  -2  202.21   15.98
  -3  -4   1  612.44   25.72
  -3   4   1  621.70   21.77
  -3   4   1  709.24   22.92
   3  -4  -1  651.89   23.27
   3  -4  -1  697.03   20.93
   3   4  -1  635.14   27.23
   3   4  -1  736.02   28.84
  -3  -4   0  168.80   14.43
  -3   4   0  159.93   11.30
  -3   4   0  184.41   11.83
   3  -4   0  166.59    9.93
   3  -4   0  180.93   10.56
   3   4   0  164.79   19.92
   3   4   0  180.77   15.33
  -3  -4  -1  292.88   18.47
  -3   4  -1  301.28   14.72
  -3   4  -1  314.50   14.76
   3  -4   1  299.09   12.60
   3  -4   1  310.85   13.03
   3   4   1  323.70   19.84
  -3  -4  -2  192.75   15.60
  -3   4  -2  214.74   12.57
  -3   4  -2  233.99   12.93
   3  -4   2  183.96    9.91
   3  -4   2  214.52   11.13
   3   4   2  251.02   17.79
  -3  -4  -3 1122.90   36.70
  -3   4  -3 1177.40   28.80
  -3   4  -3 1264.70   29.40
   3  -4   3 1209.20   24.90
   3   4   3 1360.10   41.00
  -3  -4  -4  148.66   14.76
  -3   4  -4  137.25   11.06
  -3   4  -4  149.26   11.30
   3  -4   4  231.71   11.96
   3  -4   4  145.45   11.96
   3   4   4  181.65   16.32
  -3  -4  -5   22.88    7.98
  -3   4  -5   24.98    6.36
  -3   4  -5   31.43    7.03
   3  -4   5   29.34    5.72
   3   4   5   29.76    8.82
  -3  -4  -6  743.54   33.03
  -3   4  -6  738.97   26.21
  -3   4  -6  802.42   26.81
   3  -4   6 1036.90   27.00
   3   4   6  817.82   34.95
  -3  -4  -7  239.56   20.50
  -3   4  -7  252.83   16.82
  -3   4  -7  301.72   17.91
   3  -4   7  229.45   13.89
  -3  -4  -8  169.91   18.16
  -3   4  -8  172.59   15.06
  -3   4  -8  192.29   15.40
   3  -4   8  162.17   12.69
   3   4   8  303.52   24.27
  -3  -4  -9    1.86    6.00
  -3   4  -9    1.05    4.78
   3  -4   9   -1.94    3.24
   3   4   9    6.08    7.79
  -3  -4 -10   83.50   15.87
  -3   4 -10   96.59   15.30
   3   4  10  144.16   21.55
  -3  -4 -11  180.33   21.41
  -3   4 -11  139.97   16.41
   3   4  11  165.63   20.60
  -3  -4 -12  100.57   19.12
  -3   4 -12  117.43   18.17
   3   4  12  147.23   23.25
  -3  -4 -13  436.50   33.47
  -3   4 -13  453.65   30.02
   3   4  13  456.09   34.30
  -3  -4 -14    8.14    9.19
  -3   4 -14   -2.80    5.91
   3   4  14   11.80    8.20
  -3  -4 -15  218.57   30.79
  -3   4 -15  267.20   26.35
   3   4  15  256.38   28.08
  -3   5  14   12.78   10.37
   3  -5 -14   15.36   10.89
   3   5 -14   31.49   13.14
  -3   5  13   74.55   17.36
   3  -5 -13   69.14   16.44
   3   5 -13   68.46   16.47
  -3  -5  12   30.41   11.54
  -3   5  12   18.86   10.48
   3  -5 -12   57.73   14.40
   3   5 -12   57.19   14.98
  -3  -5  11   61.63   13.37
  -3   5  11   45.09   12.73
   3  -5 -11   75.43   14.87
   3   5 -11   62.90   14.81
  -3  -5  10   37.01   10.60
  -3   5  10   33.27   10.46
   3  -5 -10   40.48   11.06
   3   5 -10   56.97   13.33
  -3  -5   9  254.15   20.48
  -3   5   9  249.49   21.61
   3  -5  -9  284.32   21.75
   3   5  -9  269.41   22.69
  -3  -5   8  136.89   15.11
  -3   5   8  152.95   16.60
   3  -5  -8  166.86   16.45
   3   5  -8  142.61   16.78
  -3  -5   7   67.95   12.31
  -3   5   7   47.66   10.66
   3  -5  -7   65.18   11.54
   3   5  -7   65.18   12.99
  -3  -5   6  522.03   26.05
  -3   5   6  481.14   25.09
  -3   5   6  550.17   26.31
   3  -5  -6  602.03   26.01
   3   5  -6  588.42   29.17
  -3  -5   5  603.49   27.25
  -3   5   5  577.29   25.93
  -3   5   5  636.64   26.74
   3  -5  -5  670.20   25.65
   3   5  -5  684.84   30.48
  -3  -5   4   75.97   12.18
  -3   5   4   64.93   10.51
  -3   5   4   73.94   11.09
   3  -5  -4   69.84    9.83
   3   5  -4   92.72   14.17
  -3  -5   3   94.54   11.42
  -3   5   3  108.60   10.95
  -3   5   3  113.73   11.12
   3  -5  -3  109.46    9.65
   3   5  -3  132.69   14.07
  -3  -5   2   23.21    7.27
  -3   5   2   17.98    5.39
  -3   5   2   22.46    5.96
   3  -5  -2   20.83    5.07
   3   5  -2   25.68    7.97
  -3  -5   1   68.43   11.23
  -3   5   1   69.06    8.16
  -3   5   1   73.25    8.44
   3  -5  -1   60.29    6.29
   3   5  -1   74.61   12.17
  -3  -5   0  411.93   21.82
  -3   5   0  431.52   17.31
  -3   5   0  431.96   17.05
   3  -5   0  419.17   13.22
   3   5   0  420.93   23.01
  -3  -5  -1  191.47   15.68
  -3   5  -1  185.29   11.44
  -3   5  -1  202.89   11.79
   3  -5   1  174.92    7.92
   3  -5   1  211.68    8.81
   3   5   1  217.40   17.38
  -3  -5  -2  211.17   16.87
  -3   5  -2  217.35   12.14
  -3   5  -2  219.52   12.08
   3  -5   2  197.92    7.80
   3   5   2  229.99   17.85
  -3  -5  -3  143.45   14.48
  -3   5  -3  156.30   10.66
  -3   5  -3  152.90   10.45
   3  -5   3  173.95    7.52
   3  -5   3  132.96    6.46
   3   5   3  166.22   15.84
  -3  -5  -4  232.88   18.56
  -3   5  -4  220.33   12.85
  -3   5  -4  240.39   13.24
   3  -5   4  240.67    9.10
   3  -5   4  219.98    8.75
   3   5   4  233.54   18.90
  -3  -5  -5  213.22   18.29
  -3   5  -5  198.56   12.97
  -3   5  -5  252.40   14.10
   3  -5   5  217.13    9.68
   3  -5   5  213.16    9.61
   3   5   5  261.58   20.60
  -3  -5  -6  210.33   19.04
  -3   5  -6  223.03   14.38
  -3   5  -6  232.90   14.43
   3   5   6  243.46   20.66
  -3  -5  -7   24.02    9.24
  -3   5  -7   25.98    7.30
  -3  -5  -8   23.42    9.22
  -3   5  -8   18.73    6.68
   3   5   8   30.68   11.48
  -3  -5  -9  129.14   19.41
  -3   5  -9  143.16   14.63
   3   5   9  251.58   23.86
  -3  -5 -10   72.21   15.74
  -3   5 -10   66.89   12.56
   3   5  10  105.15   19.12
  -3  -5 -11   74.08   17.05
  -3   5 -11   69.34   13.13
   3   5  11  109.32   19.89
  -3  -5 -12   17.98   10.97
  -3   5 -12   25.93    9.63
   3   5  12   40.83   14.07
  -3  -5 -13   31.13   12.68
  -3   5 -13   25.09   10.03
   3   5  13   46.75   13.83
  -3  -5 -14   88.00   20.40
  -3   5 -14  100.49   18.30
   3   5  14   97.39   19.37
  -3   6  13   21.25   10.97
   3   6 -13   11.31    9.48
  -3   6  12  110.21   19.54
   3   6 -12  125.74   21.32
  -3   6  11  190.34   21.63
   3   6 -11  201.65   21.98
  -3   6  10  153.07   18.77
   3  -6 -10  175.31   25.92
   3   6 -10  171.21   19.73
  -3  -6   9  101.76   15.82
  -3   6   9   91.54   16.44
   3  -6  -9  121.53   15.14
   3   6  -9  127.37   18.98
  -3  -6   8  111.93   13.95
  -3   6   8  104.79   16.31
   3  -6  -8  127.45   14.55
   3   6  -8  117.50   17.54
  -3  -6   7  128.45   14.19
  -3   6   7  133.27   15.04
   3  -6  -7  126.98   13.59
   3   6  -7  147.32   16.66
  -3  -6   6   10.60    5.74
  -3   6   6    6.71    5.56
   3  -6  -6   14.10    6.07
   3   6  -6    7.46    5.63
  -3  -6   5  198.21   16.23
  -3   6   5  193.49   15.77
   3  -6  -5  233.13   15.13
   3   6  -5  194.80   17.70
  -3  -6   4   70.71   11.75
  -3   6   4   67.27   10.76
  -3   6   4   73.29   10.95
   3  -6  -4   89.79    9.31
   3   6  -4   87.89   13.91
  -3  -6   3  591.06   26.39
  -3   6   3  580.60   23.18
  -3   6   3  581.72   22.90
   3  -6  -3  728.01   29.99
   3   6  -3  706.15   30.70
  -3  -6   2  590.59   26.29
  -3   6   2  561.27   21.34
  -3   6   2  600.23   21.82
   3   6  -2  670.25   29.74
  -3  -6   1  780.53   30.03
  -3   6   1  742.83   22.93
  -3   6   1  809.69   23.81
   3  -6  -1  987.55   17.12
   3  -6  -1  869.35   16.16
   3   6  -1  853.02   33.26
  -3  -6   0   91.24   13.29
  -3   6   0   70.46    7.82
  -3   6   0   85.90    8.42
   3   6   0   95.89   13.99
  -3  -6  -1   63.11   11.32
  -3   6  -1   74.79    7.65
  -3   6  -1   62.23    7.10
   3   6   1   81.35   13.02
  -3  -6  -2   33.52    8.96
  -3   6  -2   21.61    4.97
  -3   6  -2   21.80    5.03
   3   6   2   28.61    8.89
  -3  -6  -3  262.27   19.34
  -3   6  -3  255.36   12.33
  -3   6  -3  277.74   12.77
   3   6   3  310.01   21.63
  -3  -6  -4   35.72    9.77
  -3   6  -4   30.73    6.03
  -3   6  -4   29.51    5.83
   3   6   4   38.70   10.18
  -3  -6  -5  207.55   18.56
  -3   6  -5  158.77   11.02
   3   6   5  179.46   18.20
  -3  -6  -6  217.37   19.69
  -3   6  -6  210.91   13.30
  -3  -6  -7  227.00   20.70
  -3   6  -7  256.90   15.51
  -3  -6  -8   16.28    8.21
  -3   6  -8   39.75    8.76
   3   6   8   54.65   13.94
  -3  -6  -9   -1.94    6.18
  -3   6  -9    3.90    5.07
   3   6   9   10.09    8.23
  -3  -6 -10   -0.58    6.82
  -3   6 -10   -0.06    4.79
   3   6  10    4.68    7.86
  -3  -6 -11  179.95   22.07
  -3   6 -11  202.95   18.08
   3   6  11  202.91   23.78
  -3  -6 -12   62.70   16.86
  -3   6 -12   57.34   12.87
   3   6  12   60.02   17.02
  -3  -6 -13   60.45   17.35
  -3   6 -13   37.22   11.57
   3   6  13   57.99   16.19
  -3   7  12   46.59   14.63
   3   7 -12   64.39   15.63
  -3   7  11   64.32   15.05
   3   7 -11   70.41   16.13
  -3   7  10   19.63    8.92
   3   7 -10    4.96    6.60
  -3   7   9  159.85   18.46
   3   7  -9  203.58   20.48
  -3   7   8    4.57    6.00
   3   7  -8    5.90    6.10
  -3   7   7  146.37   16.03
   3   7  -7  173.30   18.09
  -3   7   6   34.28    9.18
   3   7  -6   48.81   11.21
  -3  -7   5  243.44   17.84
  -3   7   5  251.04   17.95
   3   7  -5  301.43   21.68
  -3  -7   4  126.48   13.14
  -3   7   4  103.45   11.46
   3   7  -4  151.57   16.28
  -3  -7   3   84.91   12.66
  -3   7   3   77.41    9.64
   3   7  -3   92.73   14.76
  -3  -7   2   55.36   10.52
  -3   7   2   45.60    7.80
   3   7  -2   50.50   11.17
  -3  -7   1  257.79   17.93
  -3   7   1  256.20   13.59
   3   7  -1  285.53   20.64
  -3  -7   0  489.21   24.65
  -3   7   0  480.61   16.71
   3   7   0  544.55   28.01
  -3  -7  -1   93.86   13.85
  -3   7  -1   90.38    7.60
   3   7   1  111.13   16.31
  -3  -7  -2  136.63   14.45
  -3   7  -2  115.00    7.78
   3   7   2  127.02   15.13
  -3  -7  -3   18.90    7.34
  -3   7  -3   23.19    4.67
   3   7   3   15.30    7.55
  -3  -7  -4   49.00   10.98
  -3   7  -4   50.50    6.49
   3   7   4   45.83   11.63
  -3  -7  -5   97.63   15.82
  -3   7  -5   81.43    7.68
   3   7   5  131.93   19.49
  -3  -7  -6   85.99   15.27
  -3   7  -6   89.16    8.54
  -3  -7  -7  263.63   22.76
  -3   7  -7  246.56   14.15
  -3  -7  -8   78.97   15.94
  -3   7  -8   79.18    9.77
   3   7   8  131.66   21.45
  -3  -7  -9  472.52   32.11
  -3   7  -9  472.74   22.08
   3   7   9  717.26   40.59
  -3  -7 -10  134.44   21.32
  -3   7 -10  123.70   13.72
   3   7  10  162.32   24.68
  -3  -7 -11   56.54   15.17
  -3   7 -11   64.64   12.26
   3   7  11  100.89   21.11
  -3  -7 -12   55.35   16.85
  -3   7 -12   48.26   11.39
   3   7  12  101.85   22.66
  -3   8  11   50.46   14.07
   3   8 -11   67.86   15.79
  -3   8  10   66.92   14.97
   3   8 -10   85.24   16.78
  -3   8   9   34.63   11.16
   3   8  -9   36.44   11.63
  -3   8   8   67.02   13.47
   3   8  -8   65.80   14.17
  -3   8   7   35.70   10.05
   3   8  -7   41.51   11.48
  -3   8   6   11.81    6.74
   3   8  -6   10.67    7.28
  -3   8   5  449.06   23.49
   3   8  -5  539.12   29.24
  -3   8   4   29.60    7.55
   3   8  -4   44.08   11.26
  -3   8   3  178.87   13.49
   3   8  -3  176.93   17.45
  -3   8   2  340.94   16.26
   3   8  -2  422.97   25.50
  -3   8   1   49.36    7.24
   3   8  -1   44.92   11.21
  -3   8   0  130.59    8.58
   3   8   0  147.25   16.18
  -3  -8  -1  403.02   31.70
  -3   8  -1  388.56   11.62
   3   8   1  476.90   27.44
  -3  -8  -2   29.19    9.45
   3   8   2   24.67    9.02
  -3  -8  -3   30.25    9.14
   3   8   3   42.37   11.37
  -3  -8  -4  108.17   16.34
   3   8   4  129.47   18.88
  -3  -8  -5   36.99   10.26
  -3  -8  -6  107.13   18.56
   3   8   7  168.96   24.09
   3   8   8  312.82   28.41
   3   8   9    8.89    9.26
   3   8  10   63.23   15.77
   3   8  11  188.74   27.97
  -3   9   9    8.92    7.63
   3   9  -9   10.22    8.41
  -3   9   8  201.49   20.05
   3   9  -8  239.38   22.14
  -3   9   7   42.78   10.98
   3   9  -7   45.01   12.29
  -3   9   6  258.85   19.65
   3   9  -6  307.69   23.45
  -3   9   5   35.09    8.66
   3   9  -5   62.50   13.01
  -3   9   4  181.87   14.66
   3   9  -4  219.37   19.59
  -3   9   3  206.09   13.79
   3   9  -3  238.12   20.41
  -3   9   2    3.38    3.47
   3   9  -2    3.34    5.58
   3   9  -1  233.04   20.11
   3   9   0   48.36   11.60
   3   9   1   41.61   11.30
   3   9   2  144.05   20.44
   3   9   3   69.60   14.46
   3   9   6   49.07   14.77
   3   9   7  316.15   28.27
   3   9   8   16.54   10.88
   3   9   9  295.22   27.92
  -3  10   6   33.34    9.58
   3  10  -6   37.70   11.24
   3  10  -5  122.10   18.41
   3  10  -4   22.55    9.10
   3  10  -3   19.59    8.53
   3  10  -2  182.17   18.42
   3  10  -1   17.07    8.01
   3  10   0   89.27   15.82
   3  10   1   26.90    9.84
   3  10   2   83.14   15.68
   3  10   5   92.15   18.95
   3  10   6  173.85   24.79
  -4   0  15  284.21   29.54
   4   0 -15  302.41   30.55
  -4   0  14   11.67    9.48
   4   0 -14   11.98    9.43
  -4   0  13   44.13   13.28
   4   0 -13   58.21   15.50
  -4   0  12    1.49    6.09
   4   0 -12    7.02    8.42
  -4   0  11   43.78   13.17
   4   0 -11   44.99   13.56
  -4   0  10   77.89   16.43
   4   0 -10   74.76   15.84
  -4   0   9  666.97   35.58
   4   0  -9  703.95   36.24
  -4   0   8   68.99   13.58
   4   0  -8  112.97   17.38
  -4   0   7    2.76    5.20
   4   0  -7   -0.54    5.29
  -4   0   6  933.16   37.63
   4   0  -6 1046.70   39.60
  -4   0   5   -0.68    4.05
   4   0  -5    0.50    4.57
  -4   0   4   66.73   12.46
   4   0  -4   71.90   12.49
  -4   0   3  103.60   12.64
   4   0  -3  119.33   13.69
  -4   0   2    2.42    4.33
   4   0  -2   -0.89    3.50
  -4   0   1  153.13   14.87
   4   0  -1  210.22   16.58
  -4   0   0   53.56   10.19
   4   0   0   66.38   11.11
  -4   0  -1  528.43   25.55
   4   0   1  629.53   27.43
  -4   0  -2   76.50   12.01
   4   0   2   71.82   11.72
  -4   0  -3  884.87   33.65
   4   0   3  983.83   34.82
  -4   0  -4   -1.30    4.07
   4   0   4    2.52    4.71
  -4   0  -5  109.33   13.50
   4   0   5  128.28   14.41
  -4   0  -6  136.66   15.56
   4   0   6  145.55   15.42
  -4   0  -7  264.93   21.45
  -4   0  -8   70.91   14.32
  -4   0  -9    7.98    7.07
   4   0   9   10.98    8.38
  -4   0 -10   -0.11    5.88
   4   0  10   -0.24    7.36
  -4   0 -11    7.60    7.77
   4   0  11   20.57    9.00
  -4   0 -12   12.80   10.08
   4   0  12   22.71   11.82
  -4   0 -13  600.24   38.32
   4   0  13  665.84   38.40
  -4   0 -14   72.13   17.99
   4   0  14   75.69   15.97
  -4   0 -15   -1.30    8.51
   4   0  15   18.09   10.22
  -4  -1  15   40.53   15.26
  -4   1  15   38.38   14.86
   4  -1 -15   27.00   12.91
   4   1 -15   34.97   14.50
  -4  -1  14   73.40   17.76
  -4   1  14   79.80   18.29
   4  -1 -14   68.19   17.44
   4   1 -14  103.77   21.06
  -4  -1  13   47.90   14.88
  -4   1  13   56.28   15.64
   4  -1 -13   67.36   16.72
   4   1 -13   56.61   16.18
  -4  -1  12    9.70    9.55
  -4   1  12   38.08   12.92
   4  -1 -12   28.81   11.78
   4   1 -12   30.61   12.66
  -4  -1  11  179.36   21.33
  -4   1  11  192.07   21.99
   4  -1 -11  196.10   22.29
   4   1 -11  166.39   20.43
  -4  -1  10  156.75   19.22
  -4   1  10  178.58   20.23
   4  -1 -10  187.30   21.14
   4   1 -10  181.32   20.67
  -4  -1   9  260.97   22.78
  -4   1   9  265.09   23.28
   4  -1  -9  301.45   24.25
   4   1  -9  346.13   26.38
  -4  -1   8  105.61   17.37
  -4   1   8   70.10   14.00
   4  -1  -8   83.62   15.36
   4   1  -8   75.32   14.80
  -4  -1   7  525.20   29.59
  -4   1   7  480.19   28.17
   4  -1  -7  550.84   29.98
   4   1  -7  557.76   30.63
  -4  -1   6   80.74   14.24
  -4   1   6   58.88   12.11
   4  -1  -6   60.47   12.31
   4   1  -6   80.20   14.39
  -4  -1   5  299.06   21.50
  -4   1   5  308.89   21.41
   4  -1  -5  361.09   22.71
   4   1  -5  375.05   24.04
  -4  -1   4  123.83   14.13
  -4   1   4  123.91   13.89
   4  -1  -4  127.57   13.77
   4   1  -4  137.89   14.89
  -4  -1   3  260.37   19.21
  -4   1   3  258.06   18.71
   4  -1  -3  292.70   19.70
   4   1  -3  282.90   20.06
  -4  -1   2  173.75   15.76
  -4   1   2  158.50   14.82
   4  -1  -2  188.98   15.88
   4   1  -2  178.24   16.11
  -4  -1   1   70.64   12.11
  -4   1   1   70.29   11.56
   4  -1  -1   82.01   12.12
   4   1  -1   95.38   14.03
  -4  -1   0   83.07   12.53
  -4   1   0   73.85   11.33
   4  -1   0   83.11   12.00
   4   1   0   80.00   12.50
  -4  -1  -1   73.39   12.15
  -4   1  -1   63.70   11.06
   4  -1   1   83.87   12.08
   4   1   1   81.44   12.69
  -4  -1  -2  536.34   26.69
  -4   1  -2  534.45   25.40
   4  -1   2  604.18   26.05
   4   1   2  617.22   28.29
  -4  -1  -3  402.52   23.75
  -4   1  -3  412.69   22.96
   4  -1   3  441.43   22.86
   4   1   3  429.10   24.07
  -4  -1  -4   90.76   14.48
  -4   1  -4   89.61   13.26
   4  -1   4   93.69   13.20
   4   1   4  104.20   15.17
  -4  -1  -5  629.50   30.48
  -4   1  -5  635.15   29.31
   4  -1   5  701.02   29.68
   4   1   5  705.08   31.85
  -4  -1  -6   45.16   11.16
  -4   1  -6   33.24    9.31
   4  -1   6   43.91   10.41
   4   1   6   41.52   10.49
  -4  -1  -7    7.76    6.34
  -4   1  -7    5.04    5.69
   4   1   7    7.16    6.72
  -4  -1  -8   65.07   14.20
  -4   1  -8   52.91   12.02
   4  -1   8   71.38   13.63
  -4  -1  -9   28.38   10.86
  -4   1  -9   22.83    9.34
   4  -1   9   34.31   11.18
   4   1   9    9.46    8.69
  -4  -1 -10   59.51   14.49
  -4   1 -10   70.89   15.36
   4  -1  10   51.22   12.18
   4   1  10   70.80   15.56
  -4  -1 -11  234.49   24.12
  -4   1 -11  246.37   23.15
   4  -1  11  306.42   25.35
   4   1  11  284.50   25.77
  -4  -1 -12  131.30   22.10
  -4   1 -12  136.35   21.53
   4  -1  12  128.54   19.56
   4   1  12  178.01   25.07
  -4  -1 -13   63.22   16.69
  -4   1 -13   69.00   17.11
   4  -1  13   70.05   15.01
   4   1  13   77.67   18.25
  -4  -1 -14  407.92   34.28
  -4   1 -14  345.10   31.22
   4  -1  14  336.79   32.67
   4   1  14  347.44   30.14
  -4  -1 -15  120.02   23.91
  -4   1 -15  145.47   25.59
   4   1  15  136.73   23.68
  -4  -2  15  141.56   24.81
  -4   2  15  150.82   26.39
   4  -2 -15  145.44   24.85
   4   2 -15  145.73   25.80
  -4  -2  14  130.52   23.55
  -4   2  14   93.96   20.34
   4  -2 -14  109.87   21.71
   4   2 -14  126.61   23.09
  -4  -2  13    4.92    7.56
  -4   2  13    3.71    7.57
   4  -2 -13    4.96    7.76
   4   2 -13   -3.18    6.76
  -4  -2  12    8.87    7.69
  -4   2  12    0.75    7.56
   4  -2 -12   11.09    9.36
   4   2 -12   23.62   11.50
  -4  -2  11   75.33   16.51
  -4   2  11   94.20   18.13
   4  -2 -11   66.44   15.06
   4   2 -11   65.92   15.64
  -4  -2  10   81.50   16.18
  -4   2  10   77.08   15.66
   4  -2 -10   73.86   15.82
   4   2 -10  114.18   19.73
  -4  -2   9  610.54   34.11
  -4   2   9  612.18   34.16
   4  -2  -9  705.51   36.03
   4   2  -9  652.43   35.76
  -4  -2   8   27.80   10.07
  -4   2   8   28.59    9.58
   4  -2  -8   35.79   10.50
   4   2  -8   38.93   11.42
  -4  -2   7   67.95   13.82
  -4   2   7   68.07   13.55
   4  -2  -7   94.74   15.72
   4   2  -7   85.85   15.77
  -4  -2   6  403.04   25.73
  -4   2   6  319.98   22.50
   4  -2  -6  395.90   24.30
   4   2  -6  430.44   26.62
  -4  -2   5  247.39   20.28
  -4   2   5  256.98   19.74
   4  -2  -5  267.56   19.52
   4   2  -5  247.80   20.16
  -4  -2   4   17.23    7.15
  -4   2   4   23.18    7.71
   4  -2  -4   44.94    9.99
   4   2  -4   31.95    9.10
  -4  -2   3  391.09   23.63
  -4   2   3  363.39   21.67
   4  -2  -3  416.15   22.61
   4   2  -3  419.87   24.64
  -4  -2   2  174.54   16.17
  -4   2   2  205.90   16.34
   4  -2  -2  188.02   15.32
   4   2  -2  188.87   16.86
  -4  -2   1  726.13   31.08
  -4   2   1  667.36   27.84
  -4   2   1  862.40   30.72
   4  -2  -1  857.54   30.36
   4   2  -1  826.73   33.18
  -4  -2   0  139.82   14.62
  -4   2   0  131.71   13.15
  -4   2   0  185.73   14.84
   4  -2   0  162.91   13.94
   4   2   0  182.73   16.70
  -4  -2  -1   27.21    8.25
  -4   2  -1   24.99    7.45
  -4   2  -1   30.76    7.84
   4  -2   1   31.19    7.82
   4   2   1   29.61    8.75
  -4  -2  -2  229.62   18.42
  -4   2  -2  215.80   16.25
  -4   2  -2  267.70   17.46
   4  -2   2  271.71   17.27
   4   2   2  272.90   19.89
  -4  -2  -3  157.37   15.82
  -4   2  -3  173.84   15.20
  -4   2  -3  218.31   16.38
   4  -2   3  211.00   15.57
   4   2   3  206.41   17.79
  -4  -2  -4  334.53   22.65
  -4   2  -4  349.22   20.96
  -4   2  -4  369.91   21.14
   4  -2   4  412.14   21.62
   4   2   4  388.57   24.18
  -4  -2  -5  203.74   18.81
  -4   2  -5  240.51   18.27
   4  -2   5  238.44   17.24
   4   2   5  223.89   19.42
  -4  -2  -6 1037.50   40.90
  -4   2  -6 1033.00   37.20
   4   2   6 1103.50   41.80
  -4  -2  -7   90.33   15.94
  -4   2  -7   77.14   13.26
   4  -2   7  119.66   14.47
   4   2   7   96.60   16.52
  -4  -2  -8  246.73   22.19
  -4   2  -8  241.12   20.25
   4  -2   8  393.75   24.33
  -4  -2  -9  224.18   22.21
  -4   2  -9  250.29   21.40
   4  -2   9  286.26   21.43
   4   2   9  345.25   27.84
  -4  -2 -10   17.53    9.31
  -4   2 -10   28.49   10.31
   4  -2  10   38.74   10.95
   4   2  10   61.20   15.39
  -4  -2 -11   11.27    9.06
  -4   2 -11    9.12    7.98
   4  -2  11    1.15    5.43
   4   2  11    9.32    9.41
  -4  -2 -12  241.21   25.43
  -4   2 -12  211.24   22.84
   4  -2  12  265.73   22.63
   4   2  12  328.93   29.16
  -4  -2 -13  231.01   26.10
  -4   2 -13  192.57   26.25
   4   2  13  266.68   28.61
  -4  -2 -14   39.91   15.85
  -4   2 -14   23.28   11.74
   4   2  14   39.04   12.75
  -4  -3  14    6.42    7.57
  -4   3  14    6.77    9.19
   4  -3 -14   -2.47    7.48
   4   3 -14    2.24    8.24
  -4  -3  13  351.85   30.32
  -4   3  13  332.62   30.42
   4  -3 -13  400.52   31.84
   4   3 -13  419.87   33.88
  -4  -3  12  237.27   24.74
  -4   3  12  242.06   25.59
   4  -3 -12  276.13   26.43
   4   3 -12  266.76   26.94
  -4  -3  11   26.53   10.59
  -4   3  11   20.14    9.74
   4  -3 -11   20.33    9.93
   4   3 -11   13.70    9.58
  -4  -3  10  164.07   19.35
  -4   3  10  166.55   20.03
   4  -3 -10  162.48   19.13
   4   3 -10  156.12   22.43
  -4  -3   9  138.64   20.66
  -4   3   9  116.18   18.21
   4  -3  -9  140.79   20.15
   4   3  -9  102.85   17.77
  -4  -3   8  165.22   18.58
  -4   3   8  168.95   18.43
   4  -3  -8  170.94   18.23
   4   3  -8  199.85   20.70
  -4  -3   7  470.88   28.35
  -4   3   7  465.01   27.96
   4  -3  -7  513.86   28.50
   4   3  -7  573.16   31.85
  -4  -3   6  283.87   22.11
  -4   3   6  306.72   22.26
   4  -3  -6  283.91   20.81
   4   3  -6  295.19   22.90
  -4  -3   5  193.08   18.30
  -4   3   5  188.72   17.24
   4  -3  -5  264.10   19.28
   4   3  -5  256.89   20.79
  -4  -3   4  278.97   21.12
  -4   3   4  260.91   19.23
   4  -3  -4  286.95   19.16
   4   3  -4  310.57   22.31
  -4  -3   3  492.76   26.90
  -4   3   3  449.45   23.83
  -4   3   3  530.06   29.17
   4  -3  -3  528.17   24.61
   4   3  -3  568.41   29.07
  -4  -3   2  295.08   20.86
  -4   3   2  253.90   17.85
  -4   3   2  319.15   19.31
   4  -3  -2  304.43   18.47
   4   3  -2  289.06   20.94
  -4  -3   1   18.31    7.61
  -4   3   1   21.56    7.07
  -4   3   1   16.24    6.09
   4  -3  -1   17.51    6.16
   4   3  -1   16.84    7.25
  -4  -3   0  754.75   32.38
  -4   3   0  753.39   28.65
  -4   3   0  850.27   29.75
   4  -3   0  842.50   28.41
   4   3   0  843.89   34.39
  -4  -3  -1  648.65   30.20
  -4   3  -1  647.50   26.61
  -4   3  -1  739.00   27.61
   4  -3   1  720.97   26.18
   4   3   1  738.26   32.46
  -4  -3  -2   69.76   12.50
  -4   3  -2   58.29   10.24
  -4   3  -2   86.13   12.18
   4  -3   2   80.95    9.98
   4   3   2   75.65   13.24
  -4  -3  -3   86.52   14.42
  -4   3  -3   84.12   12.14
  -4   3  -3   93.34   12.78
   4  -3   3  101.76   10.86
   4   3   3  102.45   15.22
  -4  -3  -4   42.08   10.90
  -4   3  -4   34.20    8.39
  -4   3  -4   45.22    9.52
   4  -3   4   37.12    8.19
   4   3   4   45.60   10.82
  -4  -3  -5  655.69   32.62
  -4   3  -5  686.04   28.74
  -4   3  -5  723.03   29.00
   4   3   5  731.48   34.55
  -4  -3  -6   27.83    9.61
  -4   3  -6   29.40    8.64
  -4   3  -6   19.36    7.71
   4   3   6   21.93    8.97
  -4  -3  -7   48.09   12.44
  -4   3  -7   26.16    8.61
   4  -3   7   77.84   12.67
   4   3   7   48.52   12.63
  -4  -3  -8   96.62   17.48
  -4   3  -8  129.66   15.52
   4  -3   8  143.12   14.46
  -4  -3  -9  213.42   22.16
  -4   3  -9  194.14   18.88
   4  -3   9  272.85   20.53
   4   3   9  354.17   28.94
  -4  -3 -10  259.83   25.27
  -4   3 -10  258.76   22.10
   4  -3  10  260.01   21.65
   4   3  10  370.80   29.99
  -4  -3 -11  112.12   20.77
  -4   3 -11  153.09   21.25
   4   3  11  203.31   24.08
  -4  -3 -12   10.02    9.48
  -4   3 -12   10.54    8.15
   4   3  12   20.81   10.77
  -4  -3 -13  233.22   26.63
  -4   3 -13  219.40   23.75
   4   3  13  249.35   27.58
  -4  -3 -14   88.01   20.35
  -4   3 -14   78.04   17.92
   4   3  14  111.38   22.39
  -4  -4  14  192.44   35.34
  -4   4  14  187.00   27.59
   4  -4 -14  202.13   24.95
   4   4 -14  246.30   27.99
  -4  -4  13   49.45   14.94
  -4   4  13   63.46   16.87
   4  -4 -13   43.87   14.18
   4   4 -13   75.03   18.19
  -4  -4  12   56.13   14.91
  -4   4  12   40.97   13.53
   4  -4 -12   78.33   17.10
   4   4 -12   52.94   15.37
  -4  -4  11  316.83   26.60
  -4   4  11  304.36   27.34
   4  -4 -11  374.81   28.74
   4   4 -11  358.52   29.72
  -4  -4  10   76.41   15.83
  -4   4  10   88.11   16.97
   4  -4 -10   86.05   17.08
   4   4 -10   99.50   18.73
  -4  -4   9    2.31    5.96
  -4   4   9    5.62    6.64
   4  -4  -9    1.26    5.95
   4   4  -9    5.45    6.96
  -4  -4   8   32.23   10.74
  -4   4   8   34.34   10.84
   4  -4  -8   38.84   11.00
   4   4  -8   32.55   10.83
  -4  -4   7   79.43   14.77
  -4   4   7   84.59   15.12
   4  -4  -7   97.58   15.56
   4   4  -7   91.83   16.44
  -4  -4   6  139.89   16.49
  -4   4   6  133.57   15.74
   4  -4  -6  151.53   15.64
   4   4  -6  155.18   17.65
  -4  -4   5  342.90   23.79
  -4   4   5  289.66   20.68
   4  -4  -5  368.17   21.88
   4   4  -5  375.42   25.43
  -4  -4   4  303.76   22.13
  -4   4   4  281.37   19.90
   4  -4  -4  334.76   20.12
   4   4  -4  313.11   23.22
  -4  -4   3    9.61    6.44
  -4   4   3   13.39    6.36
  -4   4   3   18.02    7.08
   4  -4  -3   16.48    6.17
   4   4  -3   15.71    7.61
  -4  -4   2  232.22   19.31
  -4   4   2  241.32   17.35
  -4   4   2  249.59   17.28
   4  -4  -2  272.98   16.91
   4   4  -2  286.71   21.48
  -4  -4   1  836.67   34.53
  -4   4   1  750.96   28.68
  -4   4   1  857.07   29.93
   4  -4  -1  881.16   28.37
   4   4  -1  858.58   35.75
  -4  -4   0  317.67   21.94
  -4   4   0  311.29   18.58
  -4   4   0  359.73   19.45
   4  -4   0  331.65   17.45
   4   4   0  351.71   23.51
  -4  -4  -1  830.86   34.73
  -4   4  -1  882.63   30.08
  -4   4  -1  935.75   30.38
   4  -4   1  988.05   28.68
   4   4   1  981.25   38.51
  -4  -4  -2  224.87   19.20
  -4   4  -2  174.79   14.30
  -4   4  -2  234.81   15.92
   4  -4   2  227.90   14.21
   4   4   2  230.26   19.93
  -4  -4  -3   70.15   13.10
  -4   4  -3   78.64   11.57
  -4   4  -3   89.11   10.74
   4  -4   3   82.44    9.50
   4   4   3   71.40   14.23
  -4  -4  -4  101.09   16.31
  -4   4  -4  102.09   11.86
  -4   4  -4  125.86   12.69
   4   4   4  124.50   17.92
  -4  -4  -5  227.20   20.68
  -4   4  -5  246.37   17.44
  -4   4  -5  289.32   18.34
   4  -4   5  370.69   18.92
   4   4   5  265.72   22.64
  -4  -4  -6   83.95   15.70
  -4   4  -6   89.43   13.28
   4  -4   6  117.95   12.25
   4   4   6  103.54   17.47
  -4  -4  -7   21.88    9.22
  -4   4  -7   12.78    6.53
   4  -4   7   31.88    7.83
   4   4   7   18.88    9.09
  -4  -4  -8  202.84   21.31
  -4   4  -8  191.70   17.54
  -4  -4  -9  372.84   29.25
  -4   4  -9  373.96   24.83
   4   4   9  583.71   36.31
  -4  -4 -10   17.56    9.42
  -4   4 -10   47.49   11.89
   4   4  10   46.34   14.34
  -4  -4 -11  118.04   21.58
  -4   4 -11   92.65   16.89
   4   4  11  166.24   25.46
  -4  -4 -12   86.00   19.39
  -4   4 -12   77.66   15.95
   4   4  12  130.16   22.96
  -4  -4 -13   35.03   14.24
  -4   4 -13   40.96   13.20
   4   4  13   53.95   16.57
  -4   5  13  268.41   28.61
   4   5 -13  384.08   33.40
  -4   5  12   39.41   13.39
   4   5 -12   44.29   14.74
  -4  -5  11   45.08   13.57
  -4   5  11   55.54   14.47
   4  -5 -11   52.70   14.38
   4   5 -11   61.97   16.14
  -4  -5  10   82.25   16.68
  -4   5  10   84.66   17.02
   4  -5 -10  108.54   17.97
   4   5 -10   80.84   17.30
  -4  -5   9   18.80    9.06
  -4   5   9    7.08    6.23
   4  -5  -9   17.61    8.72
   4   5  -9   26.32   10.64
  -4  -5   8  112.14   18.09
  -4   5   8   87.50   16.36
   4  -5  -8  107.52   16.59
   4   5  -8  118.33   19.84
  -4  -5   7    5.07    6.02
  -4   5   7   -1.84    4.91
   4  -5  -7    8.63    6.41
   4   5  -7    5.37    6.39
  -4  -5   6   91.22   15.67
  -4   5   6   95.92   15.00
   4  -5  -6  103.93   14.85
   4   5  -6  114.41   17.88
  -4  -5   5   29.65    9.68
  -4   5   5   30.65    8.65
   4  -5  -5   51.33   10.42
   4   5  -5   27.77    9.50
  -4  -5   4  176.19   17.60
  -4   5   4  162.16   15.70
   4  -5  -4  179.88   14.80
   4   5  -4  199.30   19.19
  -4  -5   3   89.41   14.81
  -4   5   3   80.60   12.49
  -4   5   3  102.11   14.12
   4  -5  -3  112.78   11.52
   4   5  -3   88.45   15.31
  -4  -5   2  212.08   18.63
  -4   5   2  224.50   16.61
  -4   5   2  222.37   16.33
   4  -5  -2  251.11   15.47
   4   5  -2  228.12   19.87
  -4  -5   1   37.07   10.09
  -4   5   1   35.07    8.26
  -4   5   1   47.57    9.11
   4  -5  -1   43.41    7.85
   4   5  -1   45.65   11.82
  -4  -5   0  156.86   16.51
  -4   5   0  141.76   13.15
  -4   5   0  143.58   12.88
   4  -5   0  167.27   11.83
   4   5   0  173.60   17.72
  -4  -5  -1  552.40   29.36
  -4   5  -1  531.15   22.92
  -4   5  -1  566.88   23.42
   4  -5   1  623.04   20.77
   4   5   1  630.02   32.12
  -4  -5  -2  112.57   16.96
  -4   5  -2  123.53   12.14
  -4   5  -2  137.91   12.75
   4  -5   2  131.11   10.59
   4   5   2  148.17   17.00
  -4  -5  -3  140.79   16.30
  -4   5  -3  142.04   12.87
   4   5   3  161.68   17.97
  -4  -5  -4  128.63   19.14
  -4   5  -4   97.02   11.13
   4   5   4  129.56   18.95
  -4  -5  -5  118.45   18.11
  -4   5  -5  150.18   13.68
   4   5   5  135.92   19.76
  -4  -5  -6   53.09   13.15
  -4   5  -6   47.63    9.81
   4   5   6   52.26   13.62
  -4  -5  -7  250.63   23.22
  -4   5  -7  227.97   17.67
   4   5   7  261.42   24.02
  -4  -5  -8  222.80   23.12
  -4   5  -8  236.81   18.76
  -4  -5  -9   59.76   14.90
  -4   5  -9   86.90   14.61
   4   5   9   76.11   17.96
  -4  -5 -10  235.92   25.20
  -4   5 -10  206.65   19.35
   4   5  10  335.28   30.04
  -4  -5 -11   85.38   18.64
  -4   5 -11   81.56   15.09
   4   5  11  137.68   24.61
  -4  -5 -12   45.43   15.52
  -4   5 -12   18.13    9.85
   4   5  12   20.44   10.84
  -4  -5 -13  173.73   28.24
  -4   5 -13  175.31   21.26
   4   5  13  194.83   29.53
  -4   6  12   -0.35    7.29
   4   6 -12   -1.55    7.60
  -4   6  11   74.00   16.59
   4   6 -11  111.15   20.39
  -4   6  10   39.32   12.25
   4   6 -10   56.91   15.39
  -4   6   9   60.80   14.09
   4   6  -9  113.59   19.99
  -4  -6   8   38.81   11.16
  -4   6   8   39.98   11.57
   4   6  -8   38.67   12.53
  -4  -6   7  119.66   18.00
  -4   6   7   84.26   15.21
   4   6  -7  133.15   20.11
  -4  -6   6   80.41   14.84
  -4   6   6   58.72   12.53
   4   6  -6   86.92   16.52
  -4  -6   5   87.21   15.25
  -4   6   5   70.33   12.73
   4   6  -5   76.61   15.23
  -4  -6   4   27.49    9.35
  -4   6   4   38.33    9.39
   4   6  -4   41.77   11.52
  -4  -6   3    3.91    5.49
  -4   6   3    1.73    4.62
   4   6  -3   10.87    6.80
  -4  -6   2   56.10   11.76
  -4   6   2   47.10    9.37
   4   6  -2   68.43   14.62
  -4  -6   1  196.84   18.34
  -4   6   1  183.70   14.61
   4   6  -1  229.15   20.82
  -4  -6   0   50.94   12.37
  -4   6   0   52.26    9.29
   4   6   0   89.17   16.03
  -4  -6  -1  279.65   21.61
  -4   6  -1  301.55   17.22
   4   6   1  308.47   23.89
  -4  -6  -2   29.84    9.57
  -4   6  -2   31.29    7.23
   4   6   2   32.17    9.62
  -4  -6  -3   90.79   15.68
  -4   6  -3   74.45   10.74
   4   6   3   86.63   15.96
  -4  -6  -4  497.26   29.98
  -4   6  -4  467.15   21.11
   4   6   4  533.68   31.81
  -4  -6  -5    8.62    7.22
  -4   6  -5   18.77    6.30
   4   6   5   18.98    9.30
  -4  -6  -6  125.06   19.88
  -4   6  -6  169.40   14.50
   4   6   6  170.67   20.12
  -4  -6  -7  101.03   18.04
  -4   6  -7   87.59   12.72
  -4  -6  -8   51.30   14.32
  -4   6  -8   39.81    9.61
  -4  -6  -9   71.39   16.81
  -4   6  -9   78.46   13.39
   4   6   9  121.26   22.50
  -4  -6 -10   -2.04    7.54
  -4   6 -10    4.63    7.14
   4   6  10    2.75    9.66
  -4  -6 -11  183.89   27.46
  -4   6 -11  174.39   18.79
   4   6  11  236.02   28.32
  -4  -6 -12   13.91   11.37
  -4   6 -12   13.29    8.66
   4   6  12   16.87   10.21
  -4   7  11   18.82   10.32
   4   7 -11   41.20   13.78
  -4   7  10   19.12   10.29
   4   7 -10   16.48    9.76
  -4   7   9   12.48    8.80
   4   7  -9    8.03    8.08
  -4   7   8  162.72   19.14
   4   7  -8  240.32   24.15
  -4   7   7  202.84   19.76
   4   7  -7  214.84   22.40
  -4   7   6    4.18    6.26
   4   7  -6   17.46    9.67
  -4  -7   5  221.49   24.67
  -4   7   5  181.66   16.96
   4   7  -5  192.52   20.49
  -4  -7   4   95.73   15.51
  -4   7   4   92.20   13.86
   4   7  -4   92.14   16.02
  -4  -7   3   22.79    8.41
  -4   7   3   21.67    7.02
   4   7  -3   26.63    9.66
  -4  -7   2   25.64    8.76
  -4   7   2   18.13    6.61
   4   7  -2   28.05    9.91
  -4  -7   1   38.31   10.68
  -4   7   1   44.82    8.75
   4   7  -1   54.61   13.09
  -4  -7   0   11.76    6.95
  -4   7   0   10.52    4.97
   4   7   0    6.10    7.46
  -4  -7  -1   76.56   14.50
  -4   7  -1   52.49    8.80
   4   7   1   80.84   16.27
  -4  -7  -2  278.86   22.39
  -4   7  -2  308.59   16.35
   4   7   2  371.40   27.07
  -4  -7  -3  112.75   17.95
  -4   7  -3   94.90   10.10
   4   7   3  125.93   20.17
  -4  -7  -4   36.60   11.25
  -4   7  -4   32.21    7.19
   4   7   4   55.10   13.81
  -4  -7  -5  358.72   27.07
  -4   7  -5  376.29   18.36
   4   7   5  467.76   31.77
  -4  -7  -6  102.89   18.48
  -4   7  -6   86.49   10.80
   4   7   6   86.45   17.67
  -4  -7  -7    9.57    9.32
  -4   7  -7    8.83    5.86
  -4  -7  -8   27.29   11.59
  -4   7  -8   21.90    7.59
  -4  -7  -9   37.65   13.76
  -4   7  -9   52.32   10.66
   4   7   9   93.35   20.53
  -4  -7 -10    8.26    9.45
  -4   7 -10    8.58    7.32
   4   7  10   19.73   13.00
  -4   8   9   59.31   15.05
   4   8  -9   61.43   15.46
  -4   8   8  109.60   17.98
   4   8  -8  116.51   19.97
  -4   8   7   94.89   15.64
   4   8  -7  136.76   21.39
  -4   8   6  122.61   17.55
   4   8  -6  130.09   20.33
  -4   8   5   90.71   14.26
   4   8  -5  102.35   17.84
  -4   8   4  170.93   16.02
   4   8  -4  207.30   21.51
  -4   8   3   77.73   12.04
   4   8  -3   91.08   16.89
  -4   8   2   16.58    6.46
   4   8  -2   16.86    9.35
  -4   8   1   42.87    8.35
   4   8  -1   41.42   11.99
  -4   8   0    7.38    4.83
   4   8   0   14.97    8.01
  -4   8  -1  119.98   10.36
   4   8   1  123.11   20.09
  -4   8  -2   66.43    8.01
   4   8   2   77.15   16.50
   4   8   3  140.79   21.53
   4   8   4  199.03   22.35
   4   8   5  138.99   21.85
   4   8   8   41.96   15.59
   4   8   9   11.86   12.14
  -4   9   7   83.76   16.10
   4   9  -7  101.03   18.77
  -4   9   6    5.73    6.16
   4   9  -6    1.60    7.85
  -4   9   5  134.03   15.45
   4   9  -5  162.86   23.02
  -4   9   4  233.09   17.96
   4   9  -4  296.48   25.57
  -4   9   3   61.55   10.78
   4   9  -3   76.30   16.15
   4   9  -2  159.56   19.78
   4   9  -1   21.22    9.74
   4   9   0   12.61    8.83
   4   9   1    6.41    6.81
   4   9   2  212.28   22.72
   4   9   3   24.35   10.05
   4   9   4   13.98    9.05
   4  10  -2   74.62   16.29
   4  10  -1  207.38   22.60
   4  10   0   20.72   10.56
   4  10   1   32.33   11.99
   4  10   2  136.12   21.76
  -5   0  13  148.89   25.14
   5   0 -13  137.05   24.90
  -5   0  12   -0.50    7.86
   5   0 -12   -4.53    7.61
  -5   0  11  257.93   26.82
   5   0 -11  297.70   28.81
  -5   0  10   30.39   11.55
   5   0 -10   36.22   12.39
  -5   0   9   85.07   16.97
   5   0  -9   92.46   17.94
  -5   0   8   82.84   16.90
   5   0  -8   91.85   18.20
  -5   0   7  145.12   21.00
   5   0  -7  193.59   21.03
  -5   0   6  161.21   18.80
   5   0  -6  174.54   19.29
  -5   0   5  266.35   22.80
   5   0  -5  306.61   24.05
  -5   0   4    2.17    5.58
   5   0  -4   15.99    8.30
  -5   0   3  276.90   22.45
   5   0  -3  287.51   22.50
  -5   0   2   -1.38    4.63
   5   0  -2   -2.12    5.04
  -5   0   1  183.11   18.54
   5   0  -1  196.43   18.71
  -5   0   0  460.28   27.54
   5   0   0  542.44   29.35
  -5   0  -1  147.59   16.85
   5   0   1  152.99   16.87
  -5   0  -2  374.77   25.31
   5   0   2  426.36   26.34
  -5   0  -3  759.74   35.39
   5   0   3  893.82   37.59
  -5   0  -4   25.54   10.05
   5   0   4   42.47   11.58
  -5   0  -5   -1.01    4.92
   5   0   5    6.29    6.51
  -5   0  -6  157.74   18.33
   5   0   6  187.27   19.46
  -5   0  -7    7.04    7.37
   5   0   7   19.82    9.15
  -5   0  -8    6.23    7.42
  -5   0  -9  423.52   31.01
   5   0   9  689.09   38.10
  -5   0 -10  117.37   20.52
   5   0  10  226.30   24.90
  -5   0 -11   42.84   14.48
   5   0  11   84.94   18.75
  -5   0 -12  151.65   24.57
   5   0  12  203.79   24.35
  -5   0 -13  217.09   26.15
   5   0  13  318.38   31.20
  -5  -1  13   10.91   10.94
  -5   1  13    9.50    8.98
   5  -1 -13   33.29   14.60
   5   1 -13    8.26   10.86
  -5  -1  12   35.61   13.66
  -5   1  12   27.82   11.43
   5  -1 -12   46.99   15.75
   5   1 -12   31.76   14.12
  -5  -1  11  311.16   29.12
  -5   1  11  277.88   27.16
   5  -1 -11  331.23   29.71
   5   1 -11  326.25   30.01
  -5  -1  10   29.41   11.82
  -5   1  10   38.27   12.51
   5  -1 -10   63.87   16.11
   5   1 -10   54.79   15.31
  -5  -1   9  397.14   30.38
  -5   1   9  375.23   29.64
   5  -1  -9  444.81   31.96
   5   1  -9  459.49   32.69
  -5  -1   8   29.77   11.64
  -5   1   8   36.10   11.80
   5  -1  -8   36.91   11.91
   5   1  -8   28.65   11.31
  -5  -1   7   91.69   17.27
  -5   1   7   74.54   15.16
   5  -1  -7  113.06   18.49
   5   1  -7   78.27   15.92
  -5  -1   6  203.25   21.11
  -5   1   6  198.88   20.42
   5  -1  -6  213.67   20.74
   5   1  -6  240.14   22.26
  -5  -1   5  153.25   18.06
  -5   1   5  180.55   19.07
   5  -1  -5  173.03   18.43
   5   1  -5  174.15   19.82
  -5  -1   4   19.47    8.63
  -5   1   4   21.68    9.19
   5  -1  -4   30.42   10.43
   5   1  -4   33.70   10.85
  -5  -1   3  230.34   20.74
  -5   1   3  212.57   19.71
   5  -1  -3  239.08   20.55
   5   1  -3  225.30   20.51
  -5  -1   2  642.71   33.29
  -5   1   2  658.35   32.60
   5  -1  -2  767.61   34.41
   5   1  -2  751.73   35.39
  -5  -1   1   88.33   14.92
  -5   1   1   89.02   14.71
   5  -1  -1  100.80   15.34
   5   1  -1  103.28   16.48
  -5  -1   0   28.00    9.74
  -5   1   0   33.63    9.82
   5  -1   0   24.60    8.60
   5   1   0   37.87   10.50
  -5  -1  -1 1093.80   42.40
  -5   1  -1 1079.30   40.60
   5  -1   1 1227.20   42.10
   5   1   1 1231.60   44.40
  -5  -1  -2    8.87    7.17
  -5   1  -2    2.73    5.40
   5  -1   2    6.29    6.08
   5   1   2    8.22    6.73
  -5  -1  -3   25.59    9.31
  -5   1  -3   16.61    7.98
   5  -1   3   27.31    9.03
   5   1   3   16.79    8.15
  -5  -1  -4  113.95   17.60
  -5   1  -4   99.53   16.10
   5  -1   4  130.15   15.79
   5   1   4  135.55   19.02
  -5  -1  -5  153.04   18.43
  -5   1  -5  138.32   16.50
   5  -1   5  172.49   17.90
   5   1   5  148.37   17.71
  -5  -1  -6  255.96   23.30
  -5   1  -6  257.96   22.43
   5  -1   6  295.25   22.53
   5   1   6  289.61   24.40
  -5  -1  -7   81.51   16.12
  -5   1  -7   72.62   15.27
   5   1   7   68.36   14.69
  -5  -1  -8  139.53   21.50
  -5   1  -8  114.79   18.64
  -5  -1  -9   42.01   13.30
  -5   1  -9   45.28   13.22
   5  -1   9   50.43   13.73
  -5  -1 -10  110.33   20.04
  -5   1 -10  142.88   22.41
   5  -1  10  196.36   22.91
   5   1  10  212.37   24.69
  -5  -1 -11  205.13   24.60
  -5   1 -11  224.00   24.50
   5  -1  11  291.42   26.15
   5   1  11  352.93   30.78
  -5  -1 -12   81.65   19.55
  -5   1 -12   58.52   16.22
   5   1  12   91.01   18.91
  -5  -1 -13    9.69   10.69
  -5   1 -13   12.66   11.07
   5   1  13   12.60   11.77
  -5  -2  13  100.22   21.31
  -5   2  13   77.80   20.23
   5  -2 -13  137.90   24.85
   5   2 -13  128.21   24.18
  -5  -2  12   12.24   10.53
  -5   2  12   27.49   12.69
   5  -2 -12   27.72   12.20
   5   2 -12   22.18   11.88
  -5  -2  11   28.10   11.67
  -5   2  11   40.18   14.20
   5  -2 -11   26.73   12.95
   5   2 -11   36.60   13.42
  -5  -2  10   55.04   14.85
  -5   2  10   53.85   14.39
   5  -2 -10   79.62   17.16
   5   2 -10   89.58   19.09
  -5  -2   9   82.70   17.26
  -5   2   9   85.83   17.54
   5  -2  -9   99.02   18.06
   5   2  -9  107.09   19.67
  -5  -2   8  347.70   27.94
  -5   2   8  346.24   27.59
   5  -2  -8  382.53   28.12
   5   2  -8  394.90   30.28
  -5  -2   7  265.85   24.60
  -5   2   7  239.54   23.05
   5  -2  -7  292.88   24.57
   5   2  -7  282.58   25.15
  -5  -2   6  296.19   24.73
  -5   2   6  277.47   23.52
   5  -2  -6  316.80   24.30
   5   2  -6  325.23   26.24
  -5  -2   5  255.83   22.82
  -5   2   5  250.75   21.92
   5  -2  -5  314.37   23.89
   5   2  -5  280.96   24.42
  -5  -2   4  363.93   26.30
  -5   2   4  350.47   25.07
   5  -2  -4  384.49   25.41
   5   2  -4  379.08   27.00
  -5  -2   3  268.60   22.62
  -5   2   3  256.33   21.51
   5  -2  -3  317.08   22.74
   5   2  -3  291.90   23.58
  -5  -2   2   48.16   12.09
  -5   2   2   38.85   10.42
   5  -2  -2   42.94   10.82
   5   2  -2   32.57   10.74
  -5  -2   1  338.21   24.68
  -5   2   1  352.81   23.97
   5  -2  -1  402.80   24.39
   5   2  -1  366.91   25.84
  -5  -2   0  102.85   16.89
  -5   2   0   89.41   14.61
   5  -2   0   92.53   14.06
   5   2   0  146.29   17.15
  -5  -2  -1  100.28   16.48
  -5   2  -1  106.24   15.78
   5  -2   1  117.85   14.00
   5   2   1  105.81   16.81
  -5  -2  -2   -0.52    4.70
  -5   2  -2    0.85    5.61
   5  -2   2    8.53    5.94
   5   2   2    6.90    6.58
  -5  -2  -3  252.52   22.13
  -5   2  -3  248.65   20.48
   5  -2   3  267.79   20.14
   5   2   3  275.58   23.19
  -5  -2  -4  106.95   17.78
  -5   2  -4  117.47   16.78
   5  -2   4  139.26   15.38
   5   2   4  149.85   17.83
  -5  -2  -5  286.98   24.58
  -5   2  -5  257.12   21.12
   5  -2   5  299.23   21.94
   5   2   5  303.50   24.67
  -5  -2  -6  149.10   21.17
  -5   2  -6  176.55   18.87
   5  -2   6  151.20   16.79
   5   2   6  200.50   21.50
  -5  -2  -7   43.66   12.82
  -5   2  -7   46.63   12.05
   5   2   7   39.18   12.07
  -5  -2  -8   96.59   17.89
  -5   2  -8  128.92   19.72
   5  -2   8  157.42   19.35
  -5  -2  -9  304.18   27.75
  -5   2  -9  340.43   27.16
   5  -2   9  513.77   31.12
  -5  -2 -10   68.20   16.77
  -5   2 -10   87.85   17.91
   5   2  10  136.32   22.92
  -5  -2 -11   22.81   13.29
  -5   2 -11   11.19    9.30
   5   2  11   34.03   14.08
  -5  -2 -12   28.03   12.52
  -5   2 -12   40.20   13.48
   5   2  12   62.98   17.49
  -5  -2 -13  173.39   28.06
  -5   2 -13  203.67   28.87
   5   2  13  279.39   29.78
  -5  -3  12   25.90   12.45
  -5   3  12   25.73   12.80
   5  -3 -12   15.52   11.83
   5   3 -12   30.12   13.01
  -5  -3  11   11.92    9.81
  -5   3  11   -0.34    8.60
   5  -3 -11    5.90    9.40
   5   3 -11   15.25   11.32
  -5  -3  10   52.71   15.06
  -5   3  10   36.15   12.89
   5  -3 -10   52.56   14.38
   5   3 -10   45.68   14.25
  -5  -3   9   48.12   14.19
  -5   3   9   30.79   11.08
   5  -3  -9   47.52   13.49
   5   3  -9   74.53   17.34
  -5  -3   8    0.99    6.43
  -5   3   8   -6.13    4.98
   5  -3  -8    3.68    7.03
   5   3  -8    3.44    6.43
  -5  -3   7  132.71   20.77
  -5   3   7  153.96   19.14
   5  -3  -7  138.12   19.64
   5   3  -7  179.12   20.86
  -5  -3   6  214.97   21.98
  -5   3   6  197.34   20.26
   5  -3  -6  254.65   21.85
   5   3  -6  248.97   24.19
  -5  -3   5   77.20   15.87
  -5   3   5   81.83   14.84
   5  -3  -5  116.14   17.30
   5   3  -5   96.08   18.01
  -5  -3   4  208.67   21.12
  -5   3   4  201.78   19.48
   5  -3  -4  219.06   19.47
   5   3  -4  238.96   22.65
  -5  -3   3  250.04   22.21
  -5   3   3  234.47   20.05
   5  -3  -3  294.65   21.40
   5   3  -3  323.14   25.16
  -5  -3   2  141.20   17.38
  -5   3   2  128.18   15.52
   5  -3  -2  135.85   15.05
   5   3  -2  132.66   19.16
  -5  -3   1   13.61    7.79
  -5   3   1   10.64    6.95
   5  -3  -1   14.75    7.10
   5   3  -1   15.51    7.95
  -5  -3   0   70.02   14.13
  -5   3   0   53.44   11.84
   5  -3   0  105.06   12.99
   5   3   0   92.56   16.15
  -5  -3  -1   39.23   11.38
  -5   3  -1   28.59    9.26
   5  -3   1   57.53   11.53
   5   3   1   62.06   13.61
  -5  -3  -2   34.49   10.85
  -5   3  -2   24.32    8.69
   5  -3   2   33.28    8.65
   5   3   2   40.36   11.99
  -5  -3  -3  257.53   22.75
  -5   3  -3  249.19   20.06
   5  -3   3  304.99   20.22
   5   3   3  276.75   23.57
  -5  -3  -4  227.04   22.00
  -5   3  -4  223.70   19.46
   5  -3   4  259.02   19.10
   5   3   4  245.57   22.72
  -5  -3  -5   26.66   10.71
  -5   3  -5   46.22   11.47
   5  -3   5   51.73   10.84
   5   3   5   31.00   10.81
  -5  -3  -6  219.98   22.65
  -5   3  -6  225.73   20.29
   5   3   6  269.57   24.62
  -5  -3  -7   64.18   15.04
  -5   3  -7   87.08   15.70
   5  -3   7  124.61   17.67
   5   3   7  108.60   19.45
  -5  -3  -8   22.55   11.28
  -5   3  -8   26.88    9.77
  -5  -3  -9   93.11   19.58
  -5   3  -9   99.16   18.17
  -5  -3 -10   15.80   10.52
  -5   3 -10   13.29    9.14
   5   3  10   21.82   13.44
  -5  -3 -11   61.37   18.17
  -5   3 -11   50.68   14.53
   5   3  11   85.37   19.52
  -5  -3 -12   44.49   14.98
  -5   3 -12   40.19   13.51
   5   3  12   64.53   19.36
  -5  -4  12   16.42   10.20
  -5   4  12   22.21   12.30
   5   4 -12   16.69   11.40
  -5  -4  11   65.56   16.60
  -5   4  11   44.63   15.93
   5  -4 -11   55.32   15.69
   5   4 -11   62.80   17.34
  -5  -4  10    9.74    8.35
  -5   4  10   13.48   10.43
   5  -4 -10    3.45    8.65
   5   4 -10   19.72   11.14
  -5  -4   9  105.97   19.67
  -5   4   9   80.72   17.02
   5  -4  -9   92.07   17.69
   5   4  -9   96.06   19.07
  -5  -4   8   45.41   13.57
  -5   4   8   45.02   12.48
   5  -4  -8   34.22   11.43
   5   4  -8   27.83   11.31
  -5  -4   7   72.02   15.93
  -5   4   7   54.25   13.51
   5  -4  -7   68.19   14.16
   5   4  -7   69.34   16.24
  -5  -4   6  163.54   19.54
  -5   4   6  172.73   19.55
   5  -4  -6  200.18   19.33
   5   4  -6  221.07   23.22
  -5  -4   5  402.66   28.64
  -5   4   5  344.60   25.24
   5  -4  -5  449.48   26.81
   5   4  -5  457.12   30.94
  -5  -4   4   29.39   10.59
  -5   4   4   38.35   11.05
   5  -4  -4   58.02   11.66
   5   4  -4   36.62   11.67
  -5  -4   3  171.58   19.16
  -5   4   3  174.88   17.91
   5  -4  -3  160.82   16.25
   5   4  -3  186.12   20.83
  -5  -4   2   31.30   10.61
  -5   4   2   30.98    9.13
   5  -4  -2   24.82    8.25
   5   4  -2   27.26   10.32
  -5  -4   1  146.56   20.71
  -5   4   1  154.56   16.38
   5  -4  -1  167.39   15.35
   5   4  -1  194.08   20.42
  -5  -4   0    1.23    5.70
  -5   4   0    1.68    5.11
   5  -4   0    6.39    5.22
   5   4   0    3.01    6.51
  -5  -4  -1   11.44    7.50
  -5   4  -1    4.82    5.62
   5  -4   1    7.19    5.13
   5   4   1    4.69    6.96
  -5  -4  -2  275.65   23.97
  -5   4  -2  281.61   20.59
   5  -4   2  298.59   18.94
   5   4   2  280.13   24.19
  -5  -4  -3   16.53    8.41
  -5   4  -3   24.58    8.51
   5  -4   3   23.40    7.62
   5   4   3   11.00    8.43
  -5  -4  -4  252.76   23.47
  -5   4  -4  267.80   20.67
   5   4   4  321.05   26.26
  -5  -4  -5  135.80   21.20
  -5   4  -5  157.93   16.95
   5   4   5  167.47   20.25
  -5  -4  -6   10.80    8.26
  -5   4  -6    7.11    6.54
   5   4   6   12.19    8.90
  -5  -4  -7  205.24   23.45
  -5   4  -7  199.92   19.76
   5   4   7  246.40   24.62
  -5  -4  -8  240.92   25.00
  -5   4  -8  245.31   22.01
  -5  -4  -9   70.91   17.28
  -5   4  -9   50.42   12.93
  -5  -4 -10   10.44   10.07
  -5   4 -10   14.34    9.61
   5   4  10   33.26   15.62
  -5  -4 -11    3.48    9.33
  -5   4 -11    8.45    7.91
   5   4  11   21.02   13.33
  -5  -4 -12   22.79   12.65
  -5   4 -12   12.22   10.15
   5   4  12   17.60   13.56
  -5  -5  11   20.77   16.65
  -5   5  11   10.17   10.25
   5   5 -11   29.72   13.43
  -5  -5  10  146.34   23.58
  -5   5  10  146.59   23.88
   5   5 -10  171.74   26.51
  -5  -5   9  131.41   21.89
  -5   5   9  104.72   19.33
   5   5  -9  157.93   24.93
  -5  -5   8   27.12   11.35
  -5   5   8   16.13    8.39
   5   5  -8    4.84    8.56
  -5  -5   7  332.99   27.66
  -5   5   7  285.76   24.86
   5   5  -7  328.20   28.34
  -5  -5   6   86.40   17.28
  -5   5   6   77.57   15.28
   5   5  -6   82.07   17.67
  -5  -5   5   29.35   11.27
  -5   5   5   14.69    8.29
   5   5  -5   22.71   10.12
  -5  -5   4  116.76   18.65
  -5   5   4  150.26   17.23
   5   5  -4  165.14   20.18
  -5  -5   3  221.27   21.82
  -5   5   3  235.15   20.04
   5   5  -3  323.93   26.79
  -5  -5   2  166.04   18.90
  -5   5   2  146.95   16.05
   5   5  -2  158.32   19.77
  -5  -5   1   27.54   10.01
  -5   5   1   22.56    7.97
   5   5  -1   12.16    8.44
  -5  -5   0   45.88   12.53
  -5   5   0   51.56   11.17
   5   5   0   69.58   15.26
  -5  -5  -1   20.26    9.80
  -5   5  -1   21.79    7.95
   5   5   1   11.70    8.61
  -5  -5  -2  126.35   19.62
  -5   5  -2  117.61   14.14
   5   5   2  144.01   21.63
  -5  -5  -3  202.82   21.81
  -5   5  -3  206.20   17.70
   5   5   3  237.56   23.37
  -5  -5  -4   87.70   17.29
  -5   5  -4   93.33   14.37
   5   5   4   91.73   17.28
  -5  -5  -5  208.17   22.46
  -5   5  -5  245.86   19.69
   5   5   5  308.52   27.26
  -5  -5  -6  178.32   22.09
  -5   5  -6  174.34   17.53
   5   5   6  179.53   25.91
  -5  -5  -7  224.23   24.24
  -5   5  -7  219.46   19.77
   5   5   7  264.81   26.15
  -5  -5  -8   29.77   12.94
  -5   5  -8   18.95    8.02
  -5  -5  -9  172.78   26.63
  -5   5  -9  160.55   18.70
  -5  -5 -10   31.17   14.19
  -5   5 -10   22.88   10.30
   5   5  10   54.55   18.09
  -5  -5 -11  101.55   22.06
  -5   5 -11   69.88   16.04
   5   5  11  160.41   28.15
  -5   6  10   55.28   17.71
   5   6 -10  108.90   21.83
  -5   6   9   96.84   18.90
   5   6  -9  100.55   20.03
  -5  -6   8   78.87   25.68
  -5   6   8   45.15   13.19
   5   6  -8   53.89   15.53
  -5  -6   7   -0.50    6.94
  -5   6   7   -3.00    6.43
   5   6  -7   -4.36    6.18
  -5  -6   6   66.16   15.50
  -5   6   6   55.04   13.56
   5   6  -6   64.12   16.23
  -5  -6   5  122.03   19.57
  -5   6   5  161.20   18.20
   5   6  -5  160.73   23.76
  -5  -6   4   77.41   16.90
  -5   6   4   45.81   11.89
   5   6  -4   54.12   14.51
  -5  -6   3  110.33   18.84
  -5   6   3  106.71   15.92
   5   6  -3  131.35   20.92
  -5  -6   2   25.88   10.53
  -5   6   2   35.32    9.73
   5   6  -2   45.58   13.58
  -5  -6   1  235.80   22.55
  -5   6   1  212.04   18.21
   5   6  -1  273.86   25.14
  -5  -6   0  319.81   26.07
  -5   6   0  330.00   21.70
   5   6   0  355.38   28.06
  -5  -6  -1    5.18    6.87
  -5   6  -1   -2.13    4.75
   5   6   1    4.56    6.98
  -5  -6  -2   25.88   10.99
  -5   6  -2   30.88    9.19
   5   6   2   32.71   11.69
  -5  -6  -3   19.37    9.87
  -5   6  -3    5.90    6.07
   5   6   3   24.04   11.06
  -5  -6  -4  191.04   21.64
  -5   6  -4  215.61   17.78
   5   6   4  230.45   23.97
  -5  -6  -5  264.74   25.73
  -5   6  -5  246.96   19.18
   5   6   5  296.43   27.25
  -5  -6  -6  192.51   23.25
  -5   6  -6  181.15   17.27
   5   6   6  218.34   24.43
  -5  -6  -7   52.96   15.85
  -5   6  -7   62.20   12.96
   5   6   7   52.33   15.60
  -5  -6  -8  104.25   20.70
  -5   6  -8   96.14   15.44
  -5  -6  -9  190.81   29.01
  -5   6  -9  159.62   18.14
   5   6  10  187.62   29.08
  -5   7   8   53.43   13.72
   5   7  -8   71.18   17.55
  -5   7   7   42.20   12.32
   5   7  -7   66.01   16.48
  -5   7   6   39.83   11.94
   5   7  -6   60.25   16.34
  -5   7   5   25.30    9.60
   5   7  -5   16.94    9.23
  -5   7   4   61.81   13.19
   5   7  -4  112.27   20.76
  -5  -7   3  152.41   18.99
  -5   7   3  138.88   15.97
   5   7  -3  178.93   21.48
  -5  -7   2  231.69   22.63
  -5   7   2  234.51   19.21
   5   7  -2  268.51   26.20
  -5  -7   1   84.27   17.14
  -5   7   1   74.72   12.93
   5   7  -1   79.82   17.55
  -5  -7   0    8.42    7.95
  -5   7   0   20.42    7.66
   5   7   0   25.24   11.17
  -5  -7  -1  182.47   20.98
  -5   7  -1  169.41   15.81
   5   7   1  207.99   23.46
  -5  -7  -2  142.79   22.11
  -5   7  -2  116.66   13.59
   5   7   2  120.20   20.86
  -5  -7  -3    1.98    6.15
  -5   7  -3   -3.74    4.11
   5   7   3   -1.80    6.51
  -5  -7  -4  158.08   23.04
  -5   7  -4  134.52   14.26
   5   7   4  158.49   25.08
  -5  -7  -5  127.00   21.78
  -5   7  -5   98.30   14.06
   5   7   5  112.04   21.21
  -5  -7  -6   30.08   13.25
  -5   7  -6    7.24    6.71
   5   7   6   34.33   12.64
  -5  -7  -7   25.01   12.19
  -5   7  -7   27.49    8.99
  -5  -7  -8   89.36   20.35
  -5   7  -8   85.98   14.21
  -5   8   6    6.34    7.49
   5   8  -6   16.10   11.44
  -5   8   5   13.34    8.42
   5   8  -5   17.88   10.29
  -5   8   4   81.14   14.50
   5   8  -4  113.25   20.77
  -5   8   3   34.63   10.53
   5   8  -3   40.75   13.54
  -5   8   2  114.26   15.93
   5   8  -2  111.32   20.22
  -5   8   1  140.09   15.01
   5   8  -1  170.96   25.08
  -5   8   0  354.84   21.05
   5   8   0  415.93   31.94
  -5   8  -1   22.38    7.61
   5   8   1   16.67   10.49
  -5   8  -2  124.48   19.51
   5   8   2  155.04   24.43
   5   8   3   40.44   13.96
   5   8   4   51.61   15.68
   5   8   5    0.17    8.09
   5   8   6   15.56   11.46
   5   9   0   12.16    9.87
  -6   0  11    8.56   10.75
   6   0 -11    4.94   10.07
  -6   0  10   61.50   16.91
   6   0 -10   58.03   17.29
  -6   0   9    8.24    9.11
   6   0  -9   21.77   11.31
  -6   0   8   62.73   16.31
   6   0  -8   92.30   18.61
  -6   0   7   96.32   19.50
   6   0  -7  122.54   21.89
  -6   0   6   20.91   10.29
   6   0  -6   39.89   13.95
  -6   0   5  423.92   31.40
   6   0  -5  464.22   32.13
  -6   0   4  675.23   38.41
   6   0  -4  796.02   40.89
  -6   0   3  176.08   21.43
   6   0  -3  212.79   22.55
  -6   0   2   10.54    7.99
   6   0  -2    2.99    7.46
  -6   0   1   83.08   16.47
   6   0  -1   90.76   16.90
  -6   0   0   16.50    9.29
   6   0   0   18.93    9.45
  -6   0  -1   61.79   14.73
   6   0   1  122.31   19.34
  -6   0  -2  221.19   22.60
   6   0   2  243.03   23.17
  -6   0  -3   90.34   17.01
   6   0   3  100.34   18.18
  -6   0  -4   12.03    8.22
   6   0   4    7.18    7.74
  -6   0  -5  156.55   23.02
   6   0   5  162.20   22.66
  -6   0  -6  239.83   24.91
   6   0   6  228.12   23.77
  -6   0  -7    5.89    8.67
   6   0   7    4.06    7.54
  -6   0  -8  105.25   20.03
  -6   0  -9  234.68   26.59
  -6   0 -10   45.22   15.22
   6   0  10   56.13   17.28
  -6   0 -11   -4.79    8.71
   6   0  11  -11.54    9.83
  -6  -1  11   62.43   17.98
  -6   1  11   53.99   16.74
   6  -1 -11   54.44   16.72
   6   1 -11   68.52   19.51
  -6  -1  10  138.43   24.67
  -6   1  10  119.25   21.99
   6  -1 -10  203.52   29.45
   6   1 -10  133.90   24.10
  -6  -1   9   47.59   15.43
  -6   1   9   44.91   15.02
   6  -1  -9   44.14   15.31
   6   1  -9   43.22   14.35
  -6  -1   8   30.15   12.84
  -6   1   8   30.27   12.06
   6  -1  -8   26.60   12.05
   6   1  -8   38.82   13.71
  -6  -1   7   12.30    9.70
  -6   1   7   -1.17    6.65
   6  -1  -7    1.53    7.30
   6   1  -7    2.94    8.09
  -6  -1   6  384.67   30.83
  -6   1   6  349.42   29.02
   6  -1  -6  407.63   30.76
   6   1  -6  357.96   29.98
  -6  -1   5  101.91   19.36
  -6   1   5   93.58   17.94
   6  -1  -5  102.13   18.58
   6   1  -5  104.30   19.70
  -6  -1   4   97.79   18.58
  -6   1   4   98.93   18.36
   6  -1  -4  111.73   19.11
   6   1  -4  118.08   20.14
  -6  -1   3  355.80   28.53
  -6   1   3  376.44   28.81
   6  -1  -3  405.59   29.00
   6   1  -3  440.51   31.10
  -6  -1   2   29.43   11.77
  -6   1   2   22.92    9.99
   6  -1  -2   23.69   10.79
   6   1  -2   27.08   11.01
  -6  -1   1  165.43   20.67
  -6   1   1  160.37   19.72
   6  -1  -1  191.99   20.58
   6   1  -1  166.19   19.89
  -6  -1   0  109.72   19.29
  -6   1   0  121.31   19.09
   6  -1   0  131.39   19.55
   6   1   0  152.82   22.33
  -6  -1  -1   63.70   15.04
  -6   1  -1   70.00   14.87
   6  -1   1   93.58   16.75
   6   1   1   94.10   17.61
  -6  -1  -2   67.43   15.69
  -6   1  -2   44.42   12.27
   6  -1   2   76.79   15.27
   6   1   2   68.85   15.64
  -6  -1  -3    7.56    8.45
  -6   1  -3    8.36    8.21
   6  -1   3    3.51    6.76
   6   1   3   10.70    8.73
  -6  -1  -4  365.35   29.14
  -6   1  -4  361.54   28.05
   6  -1   4  399.18   28.23
   6   1   4  385.53   29.34
  -6  -1  -5   34.07   12.54
  -6   1  -5   51.69   13.84
   6  -1   5   27.97   10.63
   6   1   5   43.13   13.38
  -6  -1  -6   68.57   16.34
  -6   1  -6  119.41   20.40
   6  -1   6  111.60   18.81
   6   1   6   93.05   18.33
  -6  -1  -7  271.07   27.52
  -6   1  -7  310.81   27.65
   6  -1   7  364.59   28.44
   6   1   7  352.14   29.20
  -6  -1  -8  166.02   25.82
  -6   1  -8  153.88   24.00
  -6  -1  -9  122.99   23.34
  -6   1  -9   96.96   19.84
   6  -1   9  133.97   28.48
  -6  -1 -10   67.44   18.80
  -6   1 -10   32.60   12.90
   6   1  10   19.44   14.28
  -6  -2  10    7.14   10.24
  -6   2  10    5.74    9.45
   6  -2 -10   22.48   12.52
   6   2 -10   11.36   11.30
  -6  -2   9  176.31   26.78
  -6   2   9  221.93   26.00
   6  -2  -9  209.61   24.67
   6   2  -9  218.09   25.92
  -6  -2   8   32.51   12.66
  -6   2   8   36.97   13.15
   6  -2  -8   27.02   11.99
   6   2  -8   29.63   13.52
  -6  -2   7  133.83   22.30
  -6   2   7  145.93   22.63
   6  -2  -7  152.69   23.30
   6   2  -7  158.02   24.86
  -6  -2   6   42.12   14.00
  -6   2   6   35.11   12.87
   6  -2  -6   56.84   14.62
   6   2  -6   33.73   12.90
  -6  -2   5  211.46   23.71
  -6   2   5  176.74   21.22
   6  -2  -5  220.91   22.58
   6   2  -5  243.27   25.25
  -6  -2   4  239.46   24.54
  -6   2   4  237.57   24.16
   6  -2  -4  245.20   23.47
   6   2  -4  309.51   27.50
  -6  -2   3   -2.45    6.01
  -6   2   3    0.97    6.48
   6  -2  -3    6.47    6.92
   6   2  -3    4.38    7.51
  -6  -2   2    4.63    7.51
  -6   2   2    2.88    6.68
   6  -2  -2   14.66    8.44
   6   2  -2    5.40    7.36
  -6  -2   1  137.25   21.15
  -6   2   1  137.63   20.80
   6  -2  -1  179.11   19.39
   6   2  -1  163.07   20.28
  -6  -2   0  132.95   21.58
  -6   2   0  116.64   18.63
   6  -2   0  147.06   18.15
   6   2   0  146.69   22.18
  -6  -2  -1  207.28   22.79
  -6   2  -1  223.43   21.87
   6  -2   1  227.84   21.55
   6   2   1  222.88   23.24
  -6  -2  -2  181.23   21.83
  -6   2  -2  160.45   19.74
   6  -2   2  210.01   20.40
   6   2   2  222.62   23.13
  -6  -2  -3   42.66   13.45
  -6   2  -3   33.26   11.21
   6  -2   3   59.03   13.39
   6   2   3   43.01   13.52
  -6  -2  -4   76.48   17.02
  -6   2  -4   67.89   15.32
   6  -2   4   81.58   15.73
   6   2   4   93.55   18.25
  -6  -2  -5  191.97   22.71
  -6   2  -5  181.43   20.50
   6  -2   5  216.09   21.42
   6   2   5  215.60   23.37
  -6  -2  -6  150.56   23.56
  -6   2  -6  126.67   20.67
   6  -2   6  130.27   19.14
   6   2   6  169.32   24.82
  -6  -2  -7    1.80    7.86
  -6   2  -7   -3.02    6.18
   6   2   7    5.26    7.97
  -6  -2  -8   55.72   16.54
  -6   2  -8   57.53   15.27
   6   2   8   68.50   16.86
  -6  -2  -9   94.66   20.91
  -6   2  -9   77.15   17.77
  -6  -2 -10  181.23   28.45
  -6   2 -10  185.14   27.43
   6   2  10  247.33   30.67
  -6  -3  10  198.48   29.23
  -6   3  10  196.69   28.58
   6  -3 -10  249.05   27.43
   6   3 -10  248.77   28.75
  -6  -3   9   24.05   11.86
  -6   3   9   23.23   12.25
   6  -3  -9   45.45   14.52
   6   3  -9   32.44   14.24
  -6  -3   8   21.14   11.48
  -6   3   8   20.90   10.94
   6  -3  -8   22.35   11.28
   6   3  -8   37.51   14.01
  -6  -3   7  102.19   20.65
  -6   3   7   87.88   18.24
   6  -3  -7   99.46   19.16
   6   3  -7  119.93   22.01
  -6  -3   6   18.47   10.62
  -6   3   6   29.28   12.06
   6  -3  -6   20.31   10.91
   6   3  -6   33.38   12.43
  -6  -3   5   21.01   10.38
  -6   3   5   10.11    9.47
   6  -3  -5   26.16   10.65
   6   3  -5   25.12   11.78
  -6  -3   4   55.24   14.96
  -6   3   4   63.00   15.47
   6  -3  -4   69.93   15.08
   6   3  -4   33.14   12.46
  -6  -3   3  101.02   19.42
  -6   3   3  104.00   18.31
   6  -3  -3   89.75   16.18
   6   3  -3   90.68   18.36
  -6  -3   2   85.88   17.62
  -6   3   2   80.63   15.94
   6  -3  -2  106.43   17.40
   6   3  -2  120.32   20.20
  -6  -3   1  180.73   21.64
  -6   3   1  201.34   20.80
   6  -3  -1  218.98   20.64
   6   3  -1  256.78   24.84
  -6  -3   0  287.64   26.34
  -6   3   0  310.67   24.99
   6  -3   0  358.82   25.06
   6   3   0  363.81   29.35
  -6  -3  -1  187.64   22.44
  -6   3  -1  185.86   20.20
   6  -3   1  225.65   20.25
   6   3   1  182.21   22.16
  -6  -3  -2  164.97   24.32
  -6   3  -2  145.80   20.70
   6  -3   2  164.67   18.43
   6   3   2  154.48   23.13
  -6  -3  -3  173.84   21.48
  -6   3  -3  164.93   22.50
   6   3   3  198.20   22.91
  -6  -3  -4   39.62   13.08
  -6   3  -4   34.24   11.60
   6   3   4   45.18   14.38
  -6  -3  -5   26.57   11.51
  -6   3  -5   44.83   12.66
   6   3   5   36.26   12.62
  -6  -3  -6    5.99    8.57
  -6   3  -6    5.95    7.35
   6   3   6   -0.58    7.02
  -6  -3  -7   94.72   19.97
  -6   3  -7   98.78   18.17
   6   3   7  122.47   21.90
  -6  -3  -8   58.76   16.41
  -6   3  -8   74.52   16.53
   6   3   8  106.45   21.66
  -6  -3  -9   59.40   16.83
  -6   3  -9   60.67   15.69
  -6  -3 -10    9.89   10.52
  -6   3 -10   12.26   10.27
  -6  -4   9  243.86   27.79
  -6   4   9  277.57   28.53
   6   4  -9  295.23   31.19
  -6  -4   8   91.00   19.87
  -6   4   8   67.07   16.77
   6   4  -8   89.92   20.15
  -6  -4   7   19.49   11.34
  -6   4   7    6.41    9.06
   6   4  -7    4.42    7.89
  -6  -4   6   14.07    9.54
  -6   4   6   -0.34    6.66
   6   4  -6   15.17    9.18
  -6  -4   5   -0.42    7.11
  -6   4   5    4.80    7.38
   6   4  -5   -8.57    5.84
  -6  -4   4   -4.74    6.58
  -6   4   4   11.98    8.86
   6   4  -4    0.71    7.06
  -6  -4   3  118.84   21.04
  -6   4   3  104.29   18.05
   6   4  -3  163.16   24.72
  -6  -4   2   62.85   16.02
  -6   4   2   50.70   12.97
   6   4  -2   55.08   15.62
  -6  -4   1   38.20   13.67
  -6   4   1   26.56   10.18
   6   4  -1   24.21   11.30
  -6  -4   0  128.95   22.02
  -6   4   0  125.87   19.06
   6   4   0  128.85   21.71
  -6  -4  -1  450.77   32.70
  -6   4  -1  478.42   30.17
   6   4   1  506.00   35.14
  -6  -4  -2   18.02   10.44
  -6   4  -2   11.80    8.22
   6   4   2   33.10   12.55
  -6  -4  -3   67.59   16.67
  -6   4  -3   65.93   14.53
   6   4   3   68.49   17.18
  -6  -4  -4  176.91   25.99
  -6   4  -4  163.28   19.19
   6   4   4  201.64   24.05
  -6  -4  -5  113.63   21.49
  -6   4  -5  137.09   20.34
   6   4   5  141.92   22.89
  -6  -4  -6   61.94   17.26
  -6   4  -6   68.35   15.95
   6   4   6   71.04   18.19
  -6  -4  -7   11.24    9.65
  -6   4  -7    7.46    7.83
   6   4   7   21.56   12.05
  -6  -4  -8   74.35   19.18
  -6   4  -8   58.17   14.89
   6   4   8   98.44   21.33
  -6  -4  -9   70.65   20.13
  -6   4  -9   98.15   19.21
  -6  -5   8  107.31   21.11
  -6   5   8  118.25   21.57
   6   5  -8  160.04   26.55
  -6  -5   7  198.68   27.91
  -6   5   7  196.71   23.67
   6   5  -7  238.42   26.82
  -6  -5   6   82.27   18.52
  -6   5   6   88.57   18.01
   6   5  -6   85.32   19.30
  -6  -5   5    0.49    8.04
  -6   5   5   12.22    9.25
   6   5  -5    4.75    7.89
  -6  -5   4   26.77   11.77
  -6   5   4   23.67    9.88
   6   5  -4   22.96   11.42
  -6  -5   3   32.57   12.41
  -6   5   3   27.50   10.46
   6   5  -3   31.69   12.69
  -6  -5   2   20.30   10.95
  -6   5   2   24.31   10.38
   6   5  -2   27.86   12.17
  -6  -5   1   79.68   18.07
  -6   5   1   65.23   14.15
   6   5  -1  100.63   20.22
  -6  -5   0   85.79   18.33
  -6   5   0   71.81   14.16
   6   5   0   87.98   19.60
  -6  -5  -1  130.27   22.13
  -6   5  -1  119.37   18.28
   6   5   1  177.98   25.80
  -6  -5  -2  252.60   26.33
  -6   5  -2  228.90   21.62
   6   5   2  246.59   26.13
  -6  -5  -3  113.45   20.84
  -6   5  -3  131.35   19.06
   6   5   3  130.82   22.69
  -6  -5  -4   69.62   16.83
  -6   5  -4   78.55   15.36
   6   5   4   69.37   18.33
  -6  -5  -5  111.40   21.84
  -6   5  -5  121.63   18.63
   6   5   5  107.28   21.63
  -6  -5  -6   16.08   10.21
  -6   5  -6   24.95   10.65
   6   5   6   20.46   12.31
  -6  -5  -7   54.17   16.21
  -6   5  -7   53.76   14.24
   6   5   7   78.28   18.44
  -6  -5  -8   96.83   21.59
  -6   5  -8   94.00   18.42
  -6  -6   6   48.38   15.20
  -6   6   6   32.85   12.48
   6   6  -6   48.21   16.50
  -6  -6   5   36.41   13.49
  -6   6   5   35.69   12.51
   6   6  -5   58.19   17.15
  -6  -6   4  129.41   22.79
  -6   6   4  129.65   20.52
   6   6  -4  176.26   26.87
  -6  -6   3   34.87   13.43
  -6   6   3   41.51   12.13
   6   6  -3   53.49   15.78
  -6  -6   2  200.83   23.63
  -6   6   2  218.16   21.49
   6   6  -2  235.82   27.00
  -6  -6   1   71.35   16.80
  -6   6   1   55.38   13.30
   6   6  -1   73.18   17.91
  -6  -6   0   57.72   16.03
  -6   6   0   61.75   13.69
   6   6   0   72.28   18.51
  -6  -6  -1   86.38   18.02
  -6   6  -1   79.18   14.77
   6   6   1   90.83   19.38
  -6  -6  -2   10.19    8.95
  -6   6  -2   14.79    8.42
   6   6   2    5.36    9.06
  -6  -6  -3   37.38   13.75
  -6   6  -3   37.65   11.53
   6   6   3   37.73   13.44
  -6  -6  -4   70.47   17.54
  -6   6  -4   59.50   13.71
   6   6   4   63.53   17.97
  -6  -6  -5  183.99   27.38
  -6   6  -5  135.52   19.66
   6   6   5  166.12   26.18
  -6  -6  -6  115.32   23.83
  -6   6  -6  112.12   17.88
   6   6   6  125.18   23.80
  -6   7   3   67.99   14.80
   6   7  -3   82.63   19.72
  -6   7   2   23.93    9.99
   6   7  -2   14.46   11.08
  -6   7   1  108.37   17.24
   6   7  -1  142.55   25.47
  -6  -7   0   15.52   10.58
  -6   7   0    8.54    7.44
   6   7   0    3.06    8.78
  -6  -7  -1   57.21   16.50
  -6   7  -1   77.51   14.56
   6   7   1   90.33   20.41
  -6  -7  -2   16.48   11.28
  -6   7  -2   20.60    9.42
   6   7   2   22.23   12.29
  -6  -7  -3   34.16   14.14
  -6   7  -3   31.49   10.39
   6   7   3   32.04   14.33
  -7   0   7   23.68   13.16
   7   0  -7   25.38   13.65
  -7   0   6   -0.98    7.68
   7   0  -6   -0.13    8.54
  -7   0   5   -0.82    7.43
   7   0  -5    1.30    8.77
  -7   0   4    2.33    8.50
   7   0  -4    9.89   10.01
  -7   0   3    1.45    7.32
   7   0  -3   36.95   13.22
  -7   0   2   45.73   14.50
   7   0  -2   96.40   19.88
  -7   0   1  206.96   24.91
   7   0  -1  291.47   28.05
  -7   0   0   27.89   12.71
   7   0   0   18.07   10.50
  -7   0  -1  312.00   29.64
   7   0   1  366.98   30.60
  -7   0  -2  203.32   24.48
   7   0   2  217.29   24.31
  -7   0  -3  120.45   21.97
   7   0   3  157.93   23.96
  -7   0  -4  188.24   27.31
   7   0   4  212.09   24.27
  -7   0  -5  110.76   21.78
   7   0   5  168.53   25.19
  -7   0  -6  158.00   25.63
   7   0   6  203.11   28.76
  -7   0  -7   33.21   14.71
   7   0   7   38.15   14.77
  -7  -1   7  150.19   25.85
  -7   1   7  108.83   22.61
   7  -1  -7  130.61   24.04
   7   1  -7  139.12   24.89
  -7  -1   6   91.69   21.52
  -7   1   6   79.46   18.67
   7  -1  -6  100.99   21.21
   7   1  -6   88.34   20.62
  -7  -1   5   10.10    9.52
  -7   1   5   26.50   12.82
   7  -1  -5   28.48   12.69
   7   1  -5    6.66    9.19
  -7  -1   4   51.34   15.96
  -7   1   4   65.82   17.01
   7  -1  -4   52.35   15.52
   7   1  -4   53.93   16.53
  -7  -1   3   86.42   20.19
  -7   1   3   85.10   18.52
   7  -1  -3  118.01   21.43
   7   1  -3  126.96   22.78
  -7  -1   2   28.53   12.85
  -7   1   2   15.35   10.64
   7  -1  -2   19.62   10.85
   7   1  -2   25.67   11.87
  -7  -1   1  105.72   20.81
  -7   1   1  123.85   22.17
   7  -1  -1  111.39   20.22
   7   1  -1  118.07   21.86
  -7  -1   0  219.23   25.86
  -7   1   0  205.20   24.07
   7  -1   0  282.14   27.06
   7   1   0  258.11   26.80
  -7  -1  -1   -1.12    8.54
  -7   1  -1    0.74    8.18
   7  -1   1    9.58    8.88
   7   1   1    1.82    8.90
  -7  -1  -2    1.78    7.55
  -7   1  -2    0.83    8.11
   7  -1   2    2.72    8.64
   7   1   2    5.95    9.06
  -7  -1  -3  341.34   31.30
  -7   1  -3  414.34   33.37
   7  -1   3  480.01   34.02
   7   1   3  419.30   33.98
  -7  -1  -4  181.23   27.19
  -7   1  -4  177.37   26.75
   7  -1   4  236.81   25.20
   7   1   4  223.58   26.10
  -7  -1  -5   41.54   14.71
  -7   1  -5   34.08   13.32
   7   1   5   38.81   15.65
  -7  -1  -6   10.49   10.20
  -7   1  -6   22.85   11.44
   7   1   6   24.30   12.89
  -7  -1  -7   29.54   13.53
  -7   1  -7   31.00   13.77
   7   1   7   56.85   16.87
  -7  -2   6  124.92   23.75
  -7   2   6  138.52   24.52
   7  -2  -6  135.03   24.10
   7   2  -6  152.45   27.02
  -7  -2   5   12.96   10.19
  -7   2   5   13.85   10.90
   7  -2  -5   11.93   10.57
   7   2  -5   17.89   11.77
  -7  -2   4   70.97   18.13
  -7   2   4   53.11   16.16
   7  -2  -4   68.35   17.67
   7   2  -4   89.74   20.64
  -7  -2   3   14.72   11.11
  -7   2   3   34.61   13.32
   7  -2  -3   30.63   12.66
   7   2  -3   40.50   14.61
  -7  -2   2   12.21   10.52
  -7   2   2   23.01   12.05
   7  -2  -2   16.00   10.43
   7   2  -2   18.91   11.21
  -7  -2   1  119.96   22.71
  -7   2   1  102.74   19.63
   7  -2  -1  114.85   20.38
   7   2  -1  137.54   23.48
  -7  -2   0   57.17   16.64
  -7   2   0   45.75   14.81
   7  -2   0   52.33   22.32
   7   2   0   31.06   13.91
  -7  -2  -1   71.54   17.80
  -7   2  -1   77.55   17.77
   7   2   1   93.88   19.80
  -7  -2  -2   25.94   12.84
  -7   2  -2   44.27   14.35
   7   2   2   46.16   15.06
  -7  -2  -3   48.14   15.68
  -7   2  -3   52.68   15.48
   7   2   3   29.01   13.91
  -7  -2  -4  218.35   26.40
  -7   2  -4  186.56   23.24
   7   2   4  213.98   30.14
  -7  -2  -5  129.33   24.28
  -7   2  -5  125.93   22.29
   7   2   5  176.62   27.30
  -7  -2  -6  119.31   24.36
  -7   2  -6  113.55   21.92
   7   2   6  114.92   22.69
  -7  -3   5  189.25   28.45
  -7   3   5  176.19   26.29
   7   3  -5  189.18   29.26
  -7  -3   4   60.17   17.38
  -7   3   4   58.51   16.92
   7   3  -4   81.53   20.19
  -7  -3   3   40.81   15.32
  -7   3   3   51.71   15.25
   7   3  -3  100.76   21.77
  -7  -3   2   40.19   15.39
  -7   3   2   27.95   12.07
   7   3  -2   46.85   15.10
  -7  -3   1   81.71   19.50
  -7   3   1  101.21   19.77
   7   3  -1  103.08   22.11
  -7  -3   0   57.49   16.55
  -7   3   0   79.70   17.80
   7   3   0   89.55   20.97
  -7  -3  -1   27.74   13.27
  -7   3  -1   18.48   10.16
   7   3   1   35.62   14.12
  -7  -3  -2   29.93   13.25
  -7   3  -2   35.72   12.82
   7   3   2   39.50   14.51
  -7  -3  -3   29.06   13.23
  -7   3  -3   22.51   11.97
   7   3   3   27.11   13.38
  -7  -3  -4  187.43   28.99
  -7   3  -4  159.56   23.91
   7   3   4  213.32   29.92
  -7  -3  -5   77.21   20.09
  -7   3  -5   74.00   17.75
   7   3   5   65.42   18.59
  -7  -4   4  221.81   30.73
  -7   4   4  215.98   25.52
   7   4  -4  262.74   29.76
  -7  -4   3  143.76   25.54
  -7   4   3  123.75   22.07
   7   4  -3  189.64   28.78
  -7  -4   2   34.58   14.14
  -7   4   2   32.62   12.70
   7   4  -2   30.85   14.01
  -7  -4   1   79.18   19.27
  -7   4   1   74.04   16.82
   7   4  -1   74.31   19.71
  -7  -4   0   52.04   16.43
  -7   4   0   60.02   15.81
   7   4   0   51.77   17.67
  -7  -4  -1    3.70   10.57
  -7   4  -1    9.87    8.73
   7   4   1   11.67   11.13
  -7  -4  -2    3.49    8.89
  -7   4  -2   17.28   10.36
   7   4   2   14.30   11.48
  -7  -4  -3    0.20    8.57
  -7   4  -3    2.58    8.59
   7   4   3    3.66    8.78
   7   4   4   84.45   20.44
   0   0   0    0.00    0.00
;
_shelx_hkl_checksum              28096
_olex2_date_sample_data_collection 2015-10-13
_olex2_date_sample_submission    2015-10-09
_olex2_submission_original_sample_id ca111015_1_1
_olex2_submission_special_instructions 'No special instructions were received'
loop_
_space_group_symop_operation_xyz
'x, y, z'
'-x, y+1/2, -z'
loop_
_atom_site_label
_atom_site_type_symbol
_atom_site_fract_x
_atom_site_fract_y
_atom_site_fract_z
_atom_site_U_iso_or_equiv
_atom_site_adp_type
_atom_site_occupancy
_atom_site_site_symmetry_order
_atom_site_calc_flag
_atom_site_refinement_flags_posn
Cl1 Cl 0.18887(13) 0.60681(8) 0.30112(5) 0.01701(18) Uani 1 1 d .
Cl2 Cl 0.59263(12) 0.73489(8) 0.38823(5) 0.02004(19) Uani 1 1 d .
O3 O 1.0441(3) 0.6356(2) 0.03720(14) 0.0138(5) Uani 1 1 d .
O4 O 0.2405(4) 0.8624(2) 0.15552(15) 0.0143(5) Uani 1 1 d D
H4 H 0.191(5) 0.784(3) 0.127(2) 0.021 Uiso 1 1 d DR
C5 C 1.4687(5) 0.7189(3) -0.1083(2) 0.0144(7) Uani 1 1 d .
H5 H 1.5728 0.7083 -0.0558 0.017 Uiso 1 1 calc R
C6 C 1.2641(5) 0.6429(3) -0.1076(2) 0.0114(7) Uani 1 1 d .
C7 C 0.5835(5) 0.7224(3) 0.1701(2) 0.0123(6) Uani 1 1 d .
C8 C 1.1165(6) 0.6584(3) -0.1857(2) 0.0149(7) Uani 1 1 d .
H8 H 0.9775 0.6061 -0.1862 0.018 Uiso 1 1 calc R
C9 C 0.1941(5) 0.8858(3) 0.3697(2) 0.0140(7) Uani 1 1 d .
H9 H 0.0522 0.8973 0.3303 0.017 Uiso 1 1 calc R
C10 C 1.5204(5) 0.8102(3) -0.1856(2) 0.0161(7) Uani 1 1 d .
H10 H 1.6598 0.8620 -0.1855 0.019 Uiso 1 1 calc R
C11 C 1.1967(5) 0.5497(3) -0.0220(2) 0.0139(7) Uani 1 1 d .
H11A H 1.1202 0.4595 -0.0448 0.017 Uiso 1 1 calc R
H11B H 1.3323 0.5215 0.0163 0.017 Uiso 1 1 calc R
C12 C 0.1259(6) 0.8345(4) 0.4713(2) 0.0212(8) Uani 1 1 d .
H12A H 0.0634 0.7353 0.4673 0.032 Uiso 1 1 calc GR
H12B H 0.0113 0.9010 0.4975 0.032 Uiso 1 1 calc GR
H12C H 0.2592 0.8344 0.5141 0.032 Uiso 1 1 calc GR
C13 C 0.7134(5) 0.6440(3) 0.1307(2) 0.0136(7) Uani 1 1 d .
C14 C 0.8724(5) 0.5471(3) 0.0804(2) 0.0146(7) Uani 1 1 d .
H14A H 0.9415 0.4776 0.1272 0.018 Uiso 1 1 calc R
H14B H 0.7918 0.4902 0.0297 0.018 Uiso 1 1 calc R
C15 C 1.3719(6) 0.8263(3) -0.2623(2) 0.0166(7) Uani 1 1 d .
H15 H 1.4077 0.8899 -0.3147 0.020 Uiso 1 1 calc R
C16 C 0.4268(5) 0.8265(3) 0.2158(2) 0.0120(7) Uani 1 1 d .
H16 H 0.5135 0.9191 0.2267 0.014 Uiso 1 1 calc R
C17 C 0.3448(5) 0.7745(3) 0.3171(2) 0.0109(7) Uani 1 1 d .
C18 C 1.1688(5) 0.7490(4) -0.2629(2) 0.0194(7) Uani 1 1 d .
H18 H 1.0665 0.7585 -0.3162 0.023 Uiso 1 1 calc R
C19 C 0.3070(6) 1.0365(3) 0.3764(2) 0.0207(8) Uani 1 1 d .
H19A H 0.2127 1.1021 0.4154 0.031 Uiso 1 1 calc GR
H19B H 0.3243 1.0772 0.3110 0.031 Uiso 1 1 calc GR
H19C H 0.4564 1.0266 0.4073 0.031 Uiso 1 1 calc GR
loop_
_atom_site_aniso_label
_atom_site_aniso_U_11
_atom_site_aniso_U_22
_atom_site_aniso_U_33
_atom_site_aniso_U_23
_atom_site_aniso_U_13
_atom_site_aniso_U_12
Cl1 0.0185(4) 0.0133(4) 0.0193(4) 0.0003(3) 0.0030(3) -0.0024(3)
Cl2 0.0142(4) 0.0301(5) 0.0157(4) 0.0031(4) -0.0039(3) 0.0040(4)
O3 0.0133(11) 0.0124(12) 0.0158(11) -0.0018(9) 0.0062(9) -0.0022(9)
O4 0.0169(12) 0.0122(13) 0.0137(11) 0.0000(9) -0.0045(10) 0.0025(9)
C5 0.0145(16) 0.0149(17) 0.0139(15) -0.0030(14) -0.0014(12) 0.0025(14)
C6 0.0138(16) 0.0075(16) 0.0130(15) -0.0028(12) 0.0034(13) 0.0014(12)
C7 0.0144(15) 0.0128(16) 0.0098(14) 0.0022(14) 0.0002(12) -0.0035(14)
C8 0.0148(16) 0.0151(17) 0.0149(16) -0.0033(12) 0.0011(13) -0.0042(13)
C9 0.0143(17) 0.0175(17) 0.0103(15) -0.0017(13) -0.0009(13) 0.0025(13)
C10 0.0129(17) 0.0155(17) 0.0198(18) -0.0012(14) 0.0015(14) -0.0023(13)
C11 0.0131(16) 0.0141(16) 0.0145(16) -0.0007(12) 0.0033(14) 0.0023(12)
C12 0.0188(19) 0.032(2) 0.0125(17) -0.0036(14) 0.0034(14) 0.0010(15)
C13 0.0127(16) 0.0149(18) 0.0134(16) 0.0032(12) -0.0010(13) -0.0031(13)
C14 0.0143(17) 0.0143(17) 0.0153(17) -0.0001(13) 0.0048(14) -0.0012(13)
C15 0.0226(18) 0.0151(17) 0.0122(16) 0.0012(13) 0.0032(14) -0.0014(14)
C16 0.0147(17) 0.0092(16) 0.0123(16) 0.0015(12) -0.0015(13) 0.0007(13)
C17 0.0102(15) 0.0120(16) 0.0105(15) 0.0023(12) -0.0032(13) -0.0020(12)
C18 0.0212(18) 0.0222(18) 0.0148(16) 0.0002(15) -0.0020(13) -0.0022(16)
C19 0.025(2) 0.0176(18) 0.0193(18) -0.0055(14) -0.0001(16) 0.0030(15)
loop_
_atom_type_symbol
_atom_type_description
_atom_type_scat_dispersion_real
_atom_type_scat_dispersion_imag
_atom_type_scat_source
C C 0.0033 0.0016 'International Tables Vol C Tables 4.2.6.8 and 6.1.1.4'
H H 0.0000 0.0000 'International Tables Vol C Tables 4.2.6.8 and 6.1.1.4'
Cl Cl 0.1484 0.1585 'International Tables Vol C Tables 4.2.6.8 and 6.1.1.4'
O O 0.0106 0.0060 'International Tables Vol C Tables 4.2.6.8 and 6.1.1.4'
loop_
_geom_angle_atom_site_label_1
_geom_angle_atom_site_label_2
_geom_angle_atom_site_label_3
_geom_angle
C14 O3 C11 111.9(2)
C16 O4 H4 110(2)
C6 C5 H5 120.0
C10 C5 H5 120.0
C10 C5 C6 120.0(3)
C5 C6 C11 121.3(3)
C8 C6 C5 119.0(3)
C8 C6 C11 119.6(3)
C13 C7 C16 176.8(3)
C6 C8 H8 119.6
C18 C8 C6 120.9(3)
C18 C8 H8 119.6
C12 C9 H9 107.5
C12 C9 C17 112.6(2)
C12 C9 C19 109.7(3)
C17 C9 H9 107.5
C19 C9 H9 107.5
C19 C9 C17 111.7(3)
C5 C10 H10 119.7
C15 C10 C5 120.7(3)
C15 C10 H10 119.7
O3 C11 C6 107.5(2)
O3 C11 H11A 110.2
O3 C11 H11B 110.2
C6 C11 H11A 110.2
C6 C11 H11B 110.2
H11A C11 H11B 108.5
C9 C12 H12A 109.5
C9 C12 H12B 109.5
C9 C12 H12C 109.5
H12A C12 H12B 109.5
H12A C12 H12C 109.5
H12B C12 H12C 109.5
C7 C13 C14 179.1(3)
O3 C14 C13 108.2(2)
O3 C14 H14A 110.1
O3 C14 H14B 110.1
C13 C14 H14A 110.1
C13 C14 H14B 110.1
H14A C14 H14B 108.4
C10 C15 H15 120.2
C10 C15 C18 119.7(3)
C18 C15 H15 120.2
O4 C16 C7 112.9(2)
O4 C16 H16 106.7
O4 C16 C17 110.6(2)
C7 C16 H16 106.7
C7 C16 C17 112.7(2)
C17 C16 H16 106.7
Cl2 C17 Cl1 108.04(15)
C9 C17 Cl1 108.9(2)
C9 C17 Cl2 110.5(2)
C9 C17 C16 113.9(2)
C16 C17 Cl1 108.3(2)
C16 C17 Cl2 107.0(2)
C8 C18 C15 119.8(3)
C8 C18 H18 120.1
C15 C18 H18 120.1
C9 C19 H19A 109.5
C9 C19 H19B 109.5
C9 C19 H19C 109.5
H19A C19 H19B 109.5
H19A C19 H19C 109.5
H19B C19 H19C 109.5
loop_
_geom_bond_atom_site_label_1
_geom_bond_atom_site_label_2
_geom_bond_distance
Cl1 C17 1.800(3)
Cl2 C17 1.792(3)
O3 C11 1.450(3)
O3 C14 1.430(3)
O4 H4 0.87(2)
O4 C16 1.412(4)
C5 H5 0.9500
C5 C6 1.394(4)
C5 C10 1.387(4)
C6 C8 1.385(4)
C6 C11 1.509(4)
C7 C13 1.185(4)
C7 C16 1.471(4)
C8 H8 0.9500
C8 C18 1.383(4)
C9 H9 1.0000
C9 C12 1.530(4)
C9 C17 1.536(4)
C9 C19 1.533(4)
C10 H10 0.9500
C10 C15 1.376(4)
C11 H11A 0.9900
C11 H11B 0.9900
C12 H12A 0.9800
C12 H12B 0.9800
C12 H12C 0.9800
C13 C14 1.467(4)
C14 H14A 0.9900
C14 H14B 0.9900
C15 H15 0.9500
C15 C18 1.392(5)
C16 H16 1.0000
C16 C17 1.552(4)
C18 H18 0.9500
C19 H19A 0.9800
C19 H19B 0.9800
C19 H19C 0.9800
loop_
_geom_torsion_atom_site_label_1
_geom_torsion_atom_site_label_2
_geom_torsion_atom_site_label_3
_geom_torsion_atom_site_label_4
_geom_torsion
O4 C16 C17 Cl1 64.7(3)
O4 C16 C17 Cl2 -179.08(19)
O4 C16 C17 C9 -56.6(3)
C5 C6 C8 C18 -0.7(5)
C5 C6 C11 O3 98.4(3)
C5 C10 C15 C18 -0.7(5)
C6 C5 C10 C15 -0.3(4)
C6 C8 C18 C15 -0.2(5)
C7 C16 C17 Cl1 -62.7(3)
C7 C16 C17 Cl2 53.5(3)
C7 C16 C17 C9 176.0(3)
C8 C6 C11 O3 -78.9(3)
C10 C5 C6 C8 1.0(4)
C10 C5 C6 C11 -176.4(3)
C10 C15 C18 C8 1.0(5)
C11 O3 C14 C13 -174.4(2)
C11 C6 C8 C18 176.7(3)
C12 C9 C17 Cl1 61.9(3)
C12 C9 C17 Cl2 -56.6(3)
C12 C9 C17 C16 -177.1(3)
C14 O3 C11 C6 144.8(3)
C19 C9 C17 Cl1 -174.1(2)
C19 C9 C17 Cl2 67.4(3)
C19 C9 C17 C16 -53.1(4)
