#------------------------------------------------------------------------------
#$Date: 2017-03-05 09:36:07 +0200 (Sun, 05 Mar 2017) $
#$Revision: 193948 $
#$URL: file:///home/coder/svn-repositories/cod/cif/1/54/54/1545486.cif $
#------------------------------------------------------------------------------
#
# This file is available in the Crystallography Open Database (COD),
# http://www.crystallography.net/. The original data for this entry
# were provided by IUCr Journals, http://journals.iucr.org/.
#
# The file may be used within the scientific community so long as
# proper attribution is given to the journal article from which the
# data were obtained.
#
data_1545486
loop_
_publ_author_name
'Mague, Joel T.'
'Mohamed, Shaaban K.'
'Akkurt, Mehmet'
'Adam, Mohamed Shaker S.'
'Hawaiz, Farouq E.'
_publ_section_title
;
 3-Hydroxy-3-(2-oxo-2,3-dihydro-1<i>H</i>-indol-3-yl)-2,3-dihydro-1<i>H</i>-indol-2-one
;
_journal_coeditor_code           SJ4085
_journal_issue                   2
_journal_name_full               IUCrData
_journal_page_first              x170139
_journal_paper_doi               10.1107/S2414314617001390
_journal_volume                  2
_journal_year                    2017
_chemical_formula_iupac          'C16 H12 N2 O3'
_chemical_formula_moiety         'C16 H12 N2 O3'
_chemical_formula_sum            'C16 H12 N2 O3'
_chemical_formula_weight         280.28
_chemical_name_systematic
3-Hydroxy-3-(2-oxo-2,3-dihydro-1<i>H</i>-indol-3-yl)-2,3-dihydro-1<i>H</i>-indol-2-one
_space_group_crystal_system      triclinic
_space_group_IT_number           2
_space_group_name_Hall           '-P 1'
_space_group_name_H-M_alt        'P -1'
_symmetry_space_group_name_Hall  '-P 1'
_symmetry_space_group_name_H-M   'P -1'
_atom_sites_solution_hydrogens   mixed
_atom_sites_solution_primary     direct
_atom_sites_solution_secondary   difmap
_audit_creation_method           SHELXL-2014/7
_cell_angle_alpha                90.457(2)
_cell_angle_beta                 95.070(2)
_cell_angle_gamma                90.627(2)
_cell_formula_units_Z            2
_cell_length_a                   7.7193(3)
_cell_length_b                   8.6977(3)
_cell_length_c                   9.5907(4)
_cell_measurement_reflns_used    6334
_cell_measurement_temperature    150.(2)
_cell_measurement_theta_max      72.3497
_cell_measurement_theta_min      4.6289
_cell_volume                     641.34(4)
_computing_cell_refinement
;
<i>SAINT</i> (Bruker, 2016)
;
_computing_data_collection
;
<i>APEX3</i> (Bruker, 2016)
;
_computing_data_reduction
;
<i>SAINT</i> (Bruker, 2016)
;
_computing_molecular_graphics
;
<i>DIAMOND</i> (Brandenburg & Putz, 2012)
;
_computing_publication_material
;
<i>SHELXTL</i> (Sheldrick, 2008)
;
_computing_structure_refinement
;
<i>SHELXL2014</i> (Sheldrick, 2015<i>b</i>)
;
_computing_structure_solution
;
<i>SHELXT</i> (Sheldrick, 2015<i>a</i>)
;
_diffrn_ambient_temperature      150(2)
_diffrn_detector_area_resol_mean 10.4167
_diffrn_measured_fraction_theta_full 0.985
_diffrn_measured_fraction_theta_max 0.979
_diffrn_measurement_device_type  'Bruker D8 VENTURE PHOTON 100 CMOS'
_diffrn_measurement_method       '\w scans'
_diffrn_radiation_monochromator  mirror
_diffrn_radiation_type           CuK\a
_diffrn_radiation_wavelength     1.54178
_diffrn_reflns_av_R_equivalents  0.0334
_diffrn_reflns_limit_h_max       9
_diffrn_reflns_limit_h_min       -9
_diffrn_reflns_limit_k_max       10
_diffrn_reflns_limit_k_min       -10
_diffrn_reflns_limit_l_max       11
_diffrn_reflns_limit_l_min       -11
_diffrn_reflns_number            8464
_diffrn_reflns_theta_full        66.500
_diffrn_reflns_theta_max         72.399
_diffrn_reflns_theta_min         4.629
_exptl_absorpt_coefficient_mu    0.843
_exptl_absorpt_correction_T_max  0.96
_exptl_absorpt_correction_T_min  0.89
_exptl_absorpt_correction_type   multi-scan
_exptl_absorpt_process_details
;
(<i>SADABS</i>; Bruker, 2016)
;
_exptl_crystal_colour            'dark yellow-orange'
_exptl_crystal_density_diffrn    1.451
_exptl_crystal_density_method    'not measured'
_exptl_crystal_description       column
_exptl_crystal_F_000             292
_exptl_crystal_size_max          0.138
_exptl_crystal_size_mid          0.066
_exptl_crystal_size_min          0.052
_refine_diff_density_max         0.190
_refine_diff_density_min         -0.281
_refine_ls_extinction_method     none
_refine_ls_goodness_of_fit_ref   1.057
_refine_ls_hydrogen_treatment    mixed
_refine_ls_matrix_type           full
_refine_ls_number_parameters     235
_refine_ls_number_reflns         2487
_refine_ls_number_restraints     0
_refine_ls_restrained_S_all      1.057
_refine_ls_R_factor_all          0.0469
_refine_ls_R_factor_gt           0.0394
_refine_ls_shift/su_max          0.000
_refine_ls_shift/su_mean         0.000
_refine_ls_structure_factor_coef Fsqd
_refine_ls_weighting_details
'w=1/[\s^2^(Fo^2^)+(0.0430P)^2^+0.3252P] where P=(Fo^2^+2Fc^2^)/3'
_refine_ls_weighting_scheme      calc
_refine_ls_wR_factor_gt          0.0949
_refine_ls_wR_factor_ref         0.1011
_reflns_number_gt                2137
_reflns_number_total             2487
_reflns_threshold_expression     'I > 2\s(I)'
_cod_data_source_file            sj4085sup1.cif
_cod_data_source_block           I
_cod_database_code               1545486
_shelx_space_group_comment
;
The symmetry employed for this shelxl refinement is uniquely defined
by the following loop, which should always be used as a source of
symmetry information in preference to the above space-group names.
They are only intended as comments.
;
_shelx_estimated_absorpt_t_min   0.892
_shelx_estimated_absorpt_t_max   0.957
_shelx_hkl_file
;
  -1   0   0    0.99    0.05
  -1   0   0    1.03    0.05
  -1   0   0    1.03    0.06
   1   0   0    1.11    0.05
   1   0   0    1.04    0.05
   1   0   0    1.08    0.05
  -3   0   0    0.01    0.03
   3   0   0   -0.01    0.04
   3   0   0    0.03    0.05
  -4   0   0   14.71    0.52
   4   0   0   14.13    0.54
   4   0   0   15.36    0.57
   5   0   0    6.45    0.40
   5   0   0    6.76    0.37
   5   0   0    6.15    0.42
   5   0   0    6.20    0.44
   5   0   0    6.38    0.35
   5   0   0    6.49    0.41
   6   0   0    4.39    0.53
   6   0   0    5.38    0.37
   6   0   0    5.37    0.35
   6   0   0    4.61    0.38
   6   0   0    5.08    0.35
   6   0   0    4.95    0.43
   7   0   0    2.08    0.27
   7   0   0    2.45    0.29
   7   0   0    1.99    0.27
   7   0   0    2.20    0.28
   8   0   0    3.26    0.27
   8   0   0    3.11    0.26
   8   0   0    2.56    0.25
   8   0   0    2.93    0.26
   9   0   0    0.30    0.09
   9   0   0    0.49    0.15
   9   0   0    0.27    0.08
   9  -1   0    0.21    0.09
   9  -1   0    0.26    0.09
   9  -1   0    0.10    0.08
   8  -1   0    5.32    0.32
   8  -1   0    5.15    0.32
   8  -1   0    5.36    0.33
   8  -1   0    5.03    0.31
   7  -1   0    1.97    0.24
   7  -1   0    1.73    0.26
   7  -1   0    2.60    0.28
   7  -1   0    2.08    0.27
   6  -1   0    0.84    0.28
   6  -1   0    0.78    0.24
   6  -1   0    0.73    0.19
   6  -1   0    0.34    0.23
   6  -1   0    1.17    0.31
   6  -1   0    0.42    0.17
   5  -1   0   30.36    1.14
   5  -1   0   30.81    1.12
   5  -1   0   30.05    1.08
   5  -1   0   29.99    1.12
   5  -1   0   31.61    1.12
   5  -1   0   29.58    1.13
   4  -1   0   68.04    2.26
   4  -1   0   66.95    2.28
  -4   1   0   70.93    2.25
   3  -1   0   20.84    0.73
   3  -1   0   20.47    0.71
   3  -1   0   20.02    0.73
  -3   1   0   21.62    0.71
   2  -1   0    6.84    0.27
   2  -1   0    7.67    0.27
   2  -1   0    7.59    0.28
  -2   1   0    7.39    0.27
  -2   1   0    6.92    0.28
   1  -1   0   23.50    0.81
   1  -1   0   26.18    0.81
  -1   1   0   25.62    0.81
  -1   1   0   24.57    0.81
  -1   1   0   23.85    0.81
   0  -1   0   15.35    0.53
   0  -1   0   16.58    0.53
   0  -1   0   15.94    0.53
   0   1   0   16.20    0.53
   0   1   0   16.63    0.53
  -1  -1   0  373.05   11.95
  -1  -1   0  356.76   11.95
  -1  -1   0  388.74   11.95
   1   1   0  369.56   11.95
   1   1   0  372.18   11.96
  -2  -1   0   10.58    0.42
  -2  -1   0   11.69    0.44
  -2  -1   0   12.55    0.42
   2   1   0   12.96    0.42
  -3  -1   0    9.50    0.32
  -3  -1   0    8.02    0.33
   3   1   0    8.30    0.32
   3   1   0    8.18    0.33
  -4  -1   0   16.74    0.53
   4   1   0   14.49    0.55
   4   1   0   12.82    0.56
   5   1   0   10.90    0.54
   5   1   0   10.07    0.47
   5   1   0   11.07    0.55
   5   1   0   10.19    0.56
   5   1   0   11.38    0.51
   5   1   0   11.35    0.53
   6   1   0    4.33    0.34
   6   1   0    4.60    0.37
   6   1   0    4.29    0.42
   6   1   0    4.77    0.34
   6   1   0    4.96    0.37
   7   1   0   43.80    1.57
   7   1   0   45.92    1.59
   7   1   0   42.84    1.57
   7   1   0   44.84    1.58
   8   1   0    5.34    0.32
   8   1   0    5.62    0.33
   8   1   0    5.76    0.32
   8   1   0    4.23    0.30
   9   1   0    0.96    0.14
   9   1   0    1.08    0.16
   9   1   0    0.94    0.14
   9  -2   0    1.23    0.15
   9  -2   0    1.09    0.17
   9  -2   0    1.26    0.17
   8  -2   0   14.01    0.57
   8  -2   0   13.62    0.56
   8  -2   0   12.41    0.55
   8  -2   0   13.30    0.56
  -8   2   0   12.94    0.54
   7  -2   0    0.92    0.26
   7  -2   0    0.59    0.16
   7  -2   0    0.47    0.15
   7  -2   0    0.30    0.16
   6  -2   0    6.36    0.40
   6  -2   0    6.52    0.39
   6  -2   0    6.17    0.42
   6  -2   0    6.46    0.41
   6  -2   0    6.17    0.48
   5  -2   0    5.41    0.38
   5  -2   0    5.48    0.43
   5  -2   0    6.01    0.36
   5  -2   0    5.35    0.40
   5  -2   0    5.43    0.42
   5  -2   0    5.80    0.42
   5  -2   0    5.42    0.35
   4  -2   0   12.75    0.52
   4  -2   0   12.91    0.50
  -4   2   0   13.54    0.51
   3  -2   0    0.86    0.10
   3  -2   0    0.69    0.09
  -3   2   0    0.72    0.09
   2  -2   0   13.18    0.47
   2  -2   0   13.82    0.47
  -2   2   0   12.93    0.47
   1  -2   0    1.95    0.10
   1  -2   0    1.68    0.12
   1  -2   0    1.93    0.10
  -1   2   0    2.11    0.11
  -1   2   0    1.83    0.11
  -1   2   0    1.84    0.11
   0  -2   0   64.18    2.16
   0  -2   0   70.97    2.14
   0  -2   0   65.29    2.15
   0   2   0   66.55    2.15
   0   2   0   65.69    2.15
  -1  -2   0   66.59    2.20
  -1  -2   0   63.41    2.20
  -1  -2   0   68.04    2.19
   1   2   0   73.75    2.20
  -2  -2   0  170.65    5.59
   2   2   0  165.74    5.58
   2   2   0  186.04    5.58
  -3  -2   0    2.93    0.15
  -3  -2   0    2.62    0.20
   3   2   0    2.87    0.16
  -4  -2   0   23.30    0.79
   4   2   0   21.66    0.81
   5   2   0    0.27    0.17
   5   2   0    0.06    0.22
   5   2   0   -0.07    0.22
   5   2   0   -0.01    0.14
   5   2   0    0.06    0.18
   5   2   0   -0.25    0.16
   6   2   0    0.58    0.17
   6   2   0    1.04    0.27
   6   2   0    0.65    0.17
   6   2   0    0.31    0.15
   6   2   0    0.45    0.22
   7   2   0    2.81    0.29
   7   2   0    2.48    0.28
   7   2   0    2.26    0.29
   7   2   0    1.96    0.29
   8   2   0   -0.08    0.10
   8   2   0    0.11    0.13
   8   2   0   -0.02    0.13
   8   2   0    0.00    0.10
   9   2   0    0.49    0.10
   9   2   0    0.51    0.13
   9   2   0    0.51    0.17
   9  -3   0    0.24    0.11
   9  -3   0    0.22    0.08
   8  -3   0    0.18    0.12
   8  -3   0    0.01    0.10
   8  -3   0   -0.11    0.11
  -8   3   0   -0.01    0.10
   7  -3   0   16.84    0.71
   7  -3   0   16.02    0.69
   7  -3   0   17.26    0.70
   7  -3   0   16.79    0.70
   6  -3   0   21.19    0.85
   6  -3   0   20.36    0.86
   6  -3   0   22.38    0.87
   6  -3   0   22.63    0.87
   5  -3   0    8.89    0.51
   5  -3   0    8.22    0.56
   5  -3   0    8.68    0.47
   5  -3   0    8.55    0.48
   5  -3   0    8.83    0.46
   5  -3   0    8.51    0.47
   5  -3   0    8.77    0.54
   4  -3   0   58.63    1.97
   4  -3   0   58.51    1.99
  -4   3   0   58.91    1.98
   3  -3   0    7.37    0.31
   3  -3   0    6.42    0.31
  -3   3   0    7.19    0.31
   2  -3   0  150.71    4.56
   2  -3   0  136.51    4.55
  -2   3   0  136.34    4.56
   1  -3   0   28.67    0.92
   1  -3   0   25.77    0.91
  -1   3   0   26.93    0.93
   0  -3   0  112.86    3.60
   0  -3   0  118.10    3.59
   0   3   0  111.18    3.60
   0   3   0  103.61    3.60
  -1  -3   0   44.82    1.44
  -1  -3   0   42.33    1.44
   1   3   0   43.93    1.45
  -2  -3   0   30.95    1.05
   2   3   0   30.99    1.05
  -3  -3   0    3.32    0.20
  -4  -3   0    0.67    0.18
   5   3   0   22.19    0.87
   5   3   0   22.15    0.88
   5   3   0   22.09    0.87
   5   3   0   21.19    0.90
   6   3   0   26.65    1.03
   6   3   0   26.65    1.02
   6   3   0   28.11    1.04
   6   3   0   26.01    1.04
   6   3   0   26.99    1.03
   8   3   0    0.85    0.21
   8   3   0    0.86    0.19
   8   3   0    0.88    0.18
   9   3   0    0.23    0.08
   9   3   0    0.21    0.09
   8  -4   0    8.02    0.39
   8  -4   0    8.32    0.38
  -8   4   0    8.12    0.36
   7  -4   0   23.92    0.91
   7  -4   0   23.12    0.90
  -7   4   0   24.19    0.89
   6  -4   0    1.60    0.28
   6  -4   0    1.74    0.26
   6  -4   0    2.13    0.33
   5  -4   0    2.47    0.39
   5  -4   0    2.41    0.30
   5  -4   0    1.81    0.47
   5  -4   0    2.00    0.30
   5  -4   0    1.65    0.39
   5  -4   0    1.94    0.41
   4  -4   0    3.47    0.33
   4  -4   0    3.51    0.29
   4  -4   0    2.24    0.39
   4  -4   0    3.40    0.27
  -4   4   0    3.89    0.31
   3  -4   0    0.01    0.09
   3  -4   0    0.11    0.11
  -3   4   0   -0.01    0.09
   2  -4   0    9.73    0.40
   2  -4   0   10.51    0.41
  -2   4   0    9.82    0.42
   1  -4   0   43.54    1.41
   1  -4   0   43.73    1.41
  -1   4   0   38.48    1.42
   0  -4   0   27.70    0.98
   0  -4   0   29.03    0.97
   0   4   0   28.25    0.99
  -1  -4   0   34.11    1.11
  -1  -4   0   31.30    1.12
   1   4   0   32.68    1.13
  -2  -4   0    2.10    0.17
  -2  -4   0    2.04    0.15
   2   4   0    2.16    0.25
   2   4   0    2.29    0.17
  -3  -4   0   47.05    1.56
   3   4   0   43.83    1.57
  -4  -4   0    4.97    0.36
   4   4   0    4.84    0.36
   4   4   0    4.68    0.44
   4   4   0    4.64    0.42
   4   4   0    4.99    0.50
   5   4   0    4.54    0.39
   5   4   0    4.16    0.41
   5   4   0    4.45    0.43
   5   4   0    4.27    0.40
   6   4   0    2.60    0.35
   6   4   0    3.01    0.33
   6   4   0    2.25    0.32
   6   4   0    2.55    0.30
   7   4   0    7.97    0.41
   7   4   0    7.65    0.42
   7   4   0    7.28    0.42
   8   4   0    1.60    0.20
   8   4   0    1.25    0.19
   8   4   0    1.38    0.20
   8  -5   0    0.08    0.08
  -8   5   0    0.18    0.12
  -8   5   0   -0.01    0.07
   7  -5   0    8.54    0.41
  -7   5   0    8.38    0.40
   6  -5   0   19.72    0.99
   6  -5   0   20.19    0.81
  -6   5   0   20.28    0.78
   5  -5   0   10.77    0.54
   5  -5   0   10.98    0.53
  -5   5   0   10.49    0.56
  -5   5   0   11.00    0.51
   4  -5   0   10.18    0.56
   4  -5   0   10.55    0.59
   4  -5   0   11.27    0.54
  -4   5   0   11.54    0.54
  -4   5   0   10.71    0.61
  -4   5   0   11.16    0.51
   3  -5   0   49.88    1.74
   3  -5   0   49.49    1.72
   3  -5   0   50.15    1.73
  -3   5   0   49.65    1.73
  -3   5   0   49.06    1.75
  -3   5   0   50.35    1.72
   2  -5   0   18.94    0.72
   2  -5   0   18.70    0.73
  -2   5   0   19.51    0.75
  -2   5   0   19.11    0.77
   1  -5   0    0.01    0.09
   1  -5   0    0.04    0.08
  -1   5   0    0.01    0.13
  -1   5   0   -0.05    0.08
   0  -5   0   31.74    1.12
   0  -5   0   34.10    1.12
   0   5   0   30.61    1.14
   0   5   0   31.02    1.13
  -1  -5   0   25.59    0.91
  -1  -5   0   24.70    0.89
   1   5   0   24.99    0.92
   1   5   0   24.30    0.92
  -2  -5   0    4.39    0.28
  -2  -5   0    4.54    0.27
   2   5   0    5.09    0.30
   2   5   0    4.69    0.29
  -3  -5   0    0.32    0.16
  -3  -5   0    0.25    0.18
   3   5   0    0.21    0.16
   3   5   0    0.14    0.14
   3   5   0    0.19    0.22
  -4  -5   0    2.29    0.40
  -4  -5   0    2.85    0.40
   4   5   0    1.78    0.37
   4   5   0    2.25    0.29
   4   5   0    2.33    0.36
   4   5   0    3.01    0.47
   5   5   0    0.51    0.20
   5   5   0    0.60    0.17
   5   5   0    0.61    0.21
   6   5   0    0.31    0.16
   6   5   0    0.04    0.16
   6   5   0    0.45    0.17
   7   5   0    1.08    0.23
   7   5   0    0.61    0.15
   8   5   0    1.79    0.40
   8   5   0    0.90    0.20
   7  -6   0   26.80    0.97
  -7   6   0   27.35    0.96
   6  -6   0    0.52    0.14
  -6   6   0    0.69    0.20
   5  -6   0    0.06    0.15
   5  -6   0   -0.03    0.12
  -5   6   0    0.03    0.11
  -5   6   0   -0.01    0.16
   4  -6   0   16.41    0.70
  -4   6   0   16.70    0.69
  -4   6   0   16.06    0.67
   3  -6   0    4.16    0.46
   3  -6   0    4.02    0.34
   3  -6   0    3.80    0.61
  -3   6   0    3.20    0.41
  -3   6   0    4.38    0.34
  -3   6   0    4.14    0.32
   2  -6   0    6.44    0.43
   2  -6   0    6.48    0.41
  -2   6   0    6.80    0.44
  -2   6   0    6.47    0.43
  -2   6   0    6.13    0.43
  -2   6   0    6.60    0.42
  -2   6   0    6.44    0.38
   1  -6   0   27.60    1.02
   1  -6   0   25.11    0.99
  -1   6   0   27.90    1.02
  -1   6   0   27.38    1.01
  -1   6   0   27.81    1.06
  -1   6   0   27.46    1.04
  -1   6   0   26.68    1.04
   0  -6   0    6.19    0.38
   0  -6   0    6.50    0.38
   0   6   0    6.29    0.50
   0   6   0    6.93    0.42
   0   6   0    6.49    0.44
   0   6   0    6.97    0.38
  -1  -6   0   16.90    0.68
  -1  -6   0   15.85    0.66
   1   6   0   16.04    0.71
   1   6   0   16.45    0.70
   1   6   0   16.06    0.67
   1   6   0   16.59    0.67
   1   6   0   15.09    0.72
  -2  -6   0   37.80    1.34
  -2  -6   0   35.60    1.33
   2   6   0   36.30    1.33
   2   6   0   35.72    1.32
   2   6   0   37.94    1.32
   2   6   0   36.03    1.34
   2   6   0   36.40    1.37
   3   6   0   19.38    0.75
   3   6   0   18.32    0.76
   3   6   0   16.90    0.78
   3   6   0   17.32    0.77
   4   6   0   27.90    1.07
   4   6   0   28.84    1.07
   4   6   0   27.52    1.07
   5   6   0    9.64    0.54
   5   6   0   11.28    0.54
   5   6   0   12.23    0.54
   6   6   0   -0.05    0.16
   6   6   0    0.30    0.15
   6   6   0    0.87    0.25
   7   6   0    1.19    0.24
   7  -7   0   -0.06    0.08
  -7   7   0   -0.04    0.07
   6  -7   0    3.11    0.23
  -6   7   0    2.95    0.22
   5  -7   0    6.74    0.40
   5  -7   0    7.34    0.39
  -5   7   0    7.39    0.38
  -5   7   0    7.47    0.39
   4  -7   0    1.19    0.25
  -4   7   0    1.40    0.23
   3  -7   0    0.36    0.17
  -3   7   0    0.37    0.14
  -3   7   0    0.52    0.16
  -2   7   0    1.54    0.30
  -2   7   0    0.80    0.22
  -2   7   0    0.75    0.23
  -2   7   0    0.67    0.17
  -1   7   0   34.11    1.19
  -1   7   0   29.63    1.17
  -1   7   0   32.33    1.18
  -1   7   0   30.82    1.16
   0   7   0    7.79    0.46
   0   7   0    7.13    0.41
   0   7   0    7.00    0.39
   0   7   0    7.33    0.44
   1   7   0    1.30    0.28
   1   7   0    1.11    0.23
   1   7   0    1.40    0.25
   1   7   0    1.03    0.22
   2   7   0    0.02    0.14
   2   7   0    0.16    0.17
   2   7   0    0.07    0.14
   2   7   0    0.07    0.20
   3   7   0    0.76    0.22
   3   7   0    0.24    0.20
   3   7   0    0.82    0.21
   3   7   0    1.17    0.26
   4   7   0   10.35    0.50
   4   7   0   10.01    0.50
   4   7   0    9.92    0.52
   5   7   0    0.32    0.16
   5   7   0    0.06    0.17
   5   7   0    0.78    0.23
   6   7   0   -0.04    0.15
   6   7   0    0.83    0.22
   6  -8   0    1.94    0.17
  -6   8   0    2.17    0.17
   5  -8   0   14.76    0.58
   5  -8   0   13.73    0.56
  -5   8   0   14.53    0.57
  -5   8   0   14.70    0.56
   4  -8   0    0.22    0.11
   4  -8   0   -0.19    0.11
  -4   8   0    0.27    0.11
  -4   8   0    0.11    0.11
   3  -8   0    0.95    0.18
  -3   8   0    1.32    0.21
  -3   8   0    1.50    0.25
   2  -8   0    4.39    0.33
  -2   8   0    3.02    0.39
  -2   8   0    3.22    0.31
  -2   8   0    3.92    0.34
  -2   8   0    3.87    0.29
  -1   8   0    5.35    0.37
  -1   8   0    5.22    0.34
  -1   8   0    5.38    0.37
   0   8   0    1.96    0.27
   0   8   0    1.71    0.27
   0   8   0    1.92    0.24
   1   8   0    0.45    0.14
   1   8   0    0.86    0.23
   1   8   0    0.70    0.21
   2   8   0   11.44    0.55
   2   8   0   11.32    0.54
   2   8   0   11.53    0.54
   2   8   0   11.58    0.53
   3   8   0    0.67    0.18
   3   8   0    0.83    0.22
   3   8   0    0.74    0.23
   4   8   0   -0.04    0.13
   4   8   0    0.15    0.11
   4   8   0   -0.32    0.15
   5   8   0    0.08    0.10
   5   8   0    0.24    0.17
   5  -9   0    1.84    0.17
  -5   9   0    1.87    0.17
   4  -9   0   10.71    0.45
   4  -9   0   10.95    0.46
  -4   9   0   11.32    0.45
  -4   9   0   11.17    0.44
   3  -9   0    3.35    0.24
  -3   9   0    2.82    0.25
  -3   9   0    2.82    0.21
   2  -9   0    1.77    0.24
  -2   9   0    1.84    0.19
   1  -9   0    6.21    0.37
  -1   9   0    7.29    0.36
  -1   9   0    7.29    0.38
  -1   9   0    6.55    0.40
   0   9   0   27.10    1.08
   0   9   0   30.66    1.07
   0   9   0   30.23    1.09
   1   9   0    0.26    0.13
   1   9   0    0.54    0.14
   1   9   0    0.08    0.09
   2   9   0    2.05    0.23
   2   9   0    1.93    0.21
   2   9   0    1.68    0.22
   3   9   0    1.63    0.19
   3   9   0    1.69    0.21
   4   9   0    1.36    0.17
   4   9   0    1.06    0.20
   5   9   0    5.31    0.28
   3 -10   0    1.61    0.21
   3 -10   0    2.08    0.17
  -3  10   0    1.95    0.15
   2 -10   0   -0.15    0.11
  -2  10   0    0.00    0.08
   1 -10   0    0.10    0.13
  -1  10   0   -0.09    0.08
   0 -10   0    4.31    0.29
   0  10   0    4.38    0.24
   0  10   0    4.68    0.30
   0  10   0    4.61    0.26
   1  10   0   -0.07    0.09
   1  10   0    0.05    0.07
   1  10   0    0.38    0.12
   2  10   0    0.70    0.15
   2  10   0    0.65    0.17
   2  10   0    0.82    0.17
   3  10   0    3.79    0.22
   3  10   0    3.86    0.26
   3  10  -1    0.18    0.08
   3  10  -1    0.26    0.11
   2  10  -1    4.96    0.25
   2  10  -1    4.96    0.26
   2  10  -1    5.08    0.28
   1  10  -1    1.01    0.19
   1  10  -1    1.38    0.16
   1  10  -1    1.22    0.15
   0  10  -1    0.07    0.08
   0  10  -1    0.01    0.12
  -1  10  -1    0.08    0.08
  -2  10  -1    0.11    0.08
  -3  10  -1    0.04    0.08
   3 -10   1    0.00    0.07
   4   9  -1    3.72    0.25
   4   9  -1    4.06    0.27
   3   9  -1    8.29    0.39
   3   9  -1    8.67    0.41
   3   9  -1    8.75    0.39
   2   9  -1    3.73    0.27
   2   9  -1    3.90    0.27
   2   9  -1    3.63    0.27
   1   9  -1    4.16    0.30
   1   9  -1    4.55    0.29
   1   9  -1    4.32    0.30
   0   9  -1    2.78    0.23
   0   9  -1    2.48    0.25
   0   9  -1    2.25    0.25
   0  -9   1    2.59    0.33
  -1   9  -1    8.03    0.40
  -1   9  -1    7.83    0.42
   1  -9   1    7.85    0.43
  -2   9  -1    1.14    0.18
  -2   9  -1    1.06    0.23
   2  -9   1    1.33    0.24
  -3   9  -1    1.73    0.18
  -3   9  -1    1.28    0.21
   3  -9   1    1.66    0.24
  -4   9  -1    6.17    0.29
  -4   9  -1    6.47    0.30
   4  -9   1    5.79    0.32
   4  -9   1    6.01    0.29
  -5   9  -1    0.00    0.08
   5  -9   1    0.10    0.20
   5  -9   1    0.05    0.09
   5   8  -1   15.31    0.61
   5   8  -1   16.07    0.64
   4   8  -1    2.92    0.27
   4   8  -1    2.70    0.27
   3   8  -1    2.16    0.24
   3   8  -1    2.25    0.28
   3   8  -1    1.93    0.27
   2   8  -1   19.23    0.74
   2   8  -1   16.97    0.75
   2   8  -1   18.82    0.75
   1   8  -1   39.59    1.43
   1   8  -1   39.64    1.44
   1   8  -1   40.81    1.45
   0   8  -1   31.45    1.14
   0   8  -1   29.74    1.14
   0   8  -1   29.48    1.12
  -1   8  -1    5.05    0.35
  -1   8  -1    4.20    0.35
  -1   8  -1    4.15    0.32
  -1   8  -1    4.54    0.36
   1  -8   1    4.55    0.37
  -2   8  -1    1.87    0.27
  -2   8  -1    1.20    0.25
  -2   8  -1    1.20    0.22
   2  -8   1    1.77    0.30
  -3   8  -1   15.16    0.62
  -3   8  -1   14.93    0.63
   3  -8   1   15.07    0.64
  -4   8  -1    6.33    0.34
  -4   8  -1    6.14    0.34
   4  -8   1    6.32    0.36
   4  -8   1    6.46    0.34
  -5   8  -1    2.57    0.20
   5  -8   1    2.51    0.23
   5  -8   1    2.48    0.21
  -6   8  -1    2.18    0.17
   6  -8   1    2.22    0.20
   5   7  -1    0.27    0.17
   5   7  -1    0.31    0.14
   4   7  -1    3.65    0.30
   4   7  -1    2.84    0.32
   3   7  -1    0.03    0.15
   3   7  -1    0.11    0.24
   3   7  -1    0.16    0.15
   3   7  -1    0.30    0.18
   2   7  -1    9.88    0.50
   2   7  -1    9.25    0.49
   2   7  -1    9.95    0.49
   1   7  -1    0.37    0.16
   1   7  -1    0.27    0.24
   1   7  -1    0.14    0.13
   0   7  -1   19.25    0.85
   0   7  -1   20.90    0.83
   0   7  -1   21.61    0.85
   0   7  -1   22.63    0.86
  -1   7  -1   15.43    0.68
  -1   7  -1   15.16    0.66
  -1   7  -1   15.37    0.66
  -1   7  -1   14.98    0.64
  -2   7  -1    2.00    0.32
  -2   7  -1    1.26    0.28
  -2   7  -1    1.42    0.26
  -2   7  -1    1.39    0.23
   2  -7   1    1.90    0.33
  -3   7  -1    5.26    0.36
  -3   7  -1    5.58    0.35
   3  -7   1    4.90    0.39
  -4   7  -1    8.04    0.42
  -4   7  -1    8.53    0.43
   4  -7   1    8.27    0.42
   4  -7   1    8.30    0.44
  -5   7  -1    3.04    0.32
  -5   7  -1    3.17    0.26
   5  -7   1    3.32    0.28
   5  -7   1    3.17    0.28
  -6   7  -1    3.90    0.24
   6  -7   1    3.76    0.25
   6  -7   1    3.71    0.26
  -7   7  -1    0.42    0.12
   7  -7   1    0.29    0.09
   4   6  -1    7.13    0.45
   4   6  -1    8.18    0.45
   3   6  -1    2.14    0.33
   3   6  -1    3.20    0.37
   3   6  -1    2.87    0.28
   3   6  -1    2.61    0.45
   2   6  -1    0.40    0.15
   2   6  -1    0.39    0.28
   2   6  -1    0.54    0.22
   2   6  -1    0.48    0.19
   2   6  -1    0.44    0.19
  -2  -6   1    0.36    0.20
   1   6  -1    5.39    0.33
   1   6  -1    6.12    0.56
   1   6  -1    5.53    0.36
   1   6  -1    4.94    0.36
   1   6  -1    4.86    0.40
   1   6  -1    4.64    0.55
  -1  -6   1    5.09    0.35
   0   6  -1   23.43    0.89
   0   6  -1   24.13    0.89
   0   6  -1   22.71    0.93
   0   6  -1   22.85    0.92
   0   6  -1   23.63    0.92
   0   6  -1   21.92    0.96
   0  -6   1   23.60    0.90
  -1   6  -1   18.51    0.83
  -1   6  -1   22.41    0.84
  -1   6  -1   22.81    0.88
  -1   6  -1   21.26    0.85
  -1   6  -1   21.37    0.85
   1  -6   1   22.64    0.86
  -2   6  -1    7.39    0.51
  -2   6  -1    7.59    0.41
  -2   6  -1    7.91    0.45
  -2   6  -1    7.62    0.42
   2  -6   1    7.24    0.47
   2  -6   1    8.02    0.47
  -3   6  -1    4.40    0.33
  -3   6  -1    3.32    0.74
  -3   6  -1    3.96    0.33
   3  -6   1    4.07    0.38
  -4   6  -1   12.75    0.58
  -4   6  -1   12.69    0.57
   4  -6   1   12.61    0.58
  -5   6  -1   10.35    0.48
   5  -6   1   10.33    0.50
   5  -6   1   10.28    0.52
  -6   6  -1    4.42    0.28
   6  -6   1    4.38    0.32
   6  -6   1    4.38    0.29
  -7   6  -1    2.98    0.21
   7  -6   1    3.02    0.22
   7   5  -1   -0.05    0.17
   7   5  -1    0.00    0.15
   6   5  -1    0.15    0.19
   6   5  -1   -0.07    0.18
   6   5  -1   -0.14    0.21
   5   5  -1    2.78    0.38
   5   5  -1    3.62    0.40
   4   5  -1    3.42    0.40
   4   5  -1    3.86    0.42
   4   5  -1    3.98    0.33
  -4  -5   1    3.44    0.39
   3   5  -1    0.12    0.29
   3   5  -1    0.12    0.15
   3   5  -1    0.17    0.20
   3   5  -1    0.24    0.23
  -3  -5   1    0.38    0.17
  -3  -5   1    0.53    0.20
   2   5  -1    4.36    0.30
   2   5  -1    4.83    0.31
  -2  -5   1    4.25    0.28
  -2  -5   1    4.64    0.28
   1   5  -1   41.15    1.42
   1   5  -1   39.06    1.40
  -1  -5   1   40.21    1.36
  -1  -5   1   39.85    1.38
   0   5  -1    0.07    0.14
   0   5  -1    0.01    0.10
   0  -5   1    0.03    0.09
   0  -5   1    0.05    0.09
  -1   5  -1    0.23    0.15
  -1   5  -1    0.12    0.09
   1  -5   1    0.08    0.10
   1  -5   1    0.14    0.09
  -2   5  -1   84.88    2.86
  -2   5  -1   85.11    2.88
   2  -5   1   87.56    2.84
   2  -5   1   86.48    2.87
  -3   5  -1    5.79    0.40
  -3   5  -1    5.52    0.38
  -3   5  -1    5.98    0.38
   3  -5   1    6.26    0.37
   3  -5   1    5.96    0.36
   3  -5   1    5.74    0.43
  -4   5  -1   12.68    0.54
  -4   5  -1   11.23    0.69
  -4   5  -1   12.12    0.60
   4  -5   1   11.31    0.66
   4  -5   1   10.99    0.61
   4  -5   1   11.91    0.55
  -5   5  -1   13.52    0.59
   5  -5   1   13.48    0.60
   5  -5   1   13.83    0.63
  -6   5  -1    3.38    0.29
   6  -5   1    3.70    0.30
   6  -5   1    3.31    0.33
  -7   5  -1    8.00    0.38
   7  -5   1    8.41    0.41
  -8   5  -1    3.78    0.22
  -8   5  -1    3.58    0.22
   8  -5   1    3.54    0.22
   8   4  -1    0.38    0.12
   8   4  -1    0.67    0.19
   7   4  -1    6.28    0.38
   7   4  -1    5.96    0.38
   7   4  -1    5.35    0.36
   6   4  -1    1.17    0.22
   6   4  -1    1.18    0.35
   6   4  -1    1.46    0.32
   5   4  -1    3.83    0.42
   5   4  -1    3.35    0.42
   5   4  -1    3.13    0.41
   5   4  -1    3.47    0.45
  -5  -4   1    3.75    0.52
   4   4  -1    1.34    0.30
   4   4  -1    1.14    0.30
   4   4  -1    1.20    0.26
  -4  -4   1    1.75    0.25
  -4  -4   1    1.53    0.31
  -4  -4   1    1.38    0.26
   3   4  -1    7.76    0.41
  -3  -4   1    7.80    0.36
  -3  -4   1    7.80    0.36
   2   4  -1    5.35    0.32
   2   4  -1    5.40    0.28
  -2  -4   1    5.35    0.26
  -2  -4   1    5.33    0.25
   1   4  -1    2.62    0.17
  -1  -4   1    2.63    0.16
  -1  -4   1    2.64    0.15
   0   4  -1   28.74    1.01
   0  -4   1   28.30    1.00
   0  -4   1   29.76    0.98
  -1   4  -1    0.56    0.10
   1  -4   1    0.59    0.11
   1  -4   1    0.48    0.08
  -2   4  -1    7.37    0.34
   2  -4   1    7.30    0.32
   2  -4   1    7.65    0.34
  -3   4  -1    0.16    0.11
   3  -4   1    0.12    0.10
   3  -4   1    0.09    0.10
  -4   4  -1    0.62    0.16
  -4   4  -1    0.59    0.20
   4  -4   1    0.84    0.21
   4  -4   1    0.64    0.17
   4  -4   1    0.83    0.25
   4  -4   1    0.60    0.17
  -5   4  -1    0.90    0.24
   5  -4   1    0.79    0.19
   5  -4   1    0.47    0.17
   5  -4   1    1.12    0.27
  -6   4  -1    0.33    0.14
   6  -4   1    0.36    0.22
   6  -4   1    0.50    0.16
  -7   4  -1    1.75    0.24
   7  -4   1    1.52    0.32
   7  -4   1    1.79    0.23
   7  -4   1    1.91    0.28
  -8   4  -1    1.96    0.19
   8  -4   1    1.81    0.19
   9   3  -1    0.05    0.08
   9   3  -1    0.07    0.08
   8   3  -1    0.16    0.14
   8   3  -1    0.23    0.11
   8   3  -1    0.23    0.15
   8   3  -1    0.22    0.10
   7   3  -1   15.39    0.65
   7   3  -1   15.44    0.66
   7   3  -1   15.58    0.66
   7   3  -1   14.61    0.65
   6   3  -1   47.47    1.67
   6   3  -1   47.61    1.67
   6   3  -1   47.62    1.67
   6   3  -1   46.42    1.66
   5   3  -1   11.42    0.58
   5   3  -1   11.04    0.57
   5   3  -1   10.85    0.55
   5   3  -1   11.13    0.56
  -4  -3   1   24.83    0.91
   2   3  -1   46.69    1.56
  -2  -3   1   46.50    1.55
  -2  -3   1   47.21    1.54
   1   3  -1    2.58    0.15
  -1  -3   1    2.52    0.14
  -1  -3   1    2.57    0.15
   0   3  -1  197.41    6.75
   0   3  -1  202.51    6.72
   0  -3   1  209.21    6.77
   0  -3   1  232.05    6.75
  -1   3  -1    2.07    0.13
  -1   3  -1    2.17    0.15
   1  -3   1    2.31    0.11
   1  -3   1    2.12    0.13
  -2   3  -1    6.12    0.27
   2  -3   1    6.29    0.27
   2  -3   1    6.16    0.26
  -3   3  -1    0.07    0.06
   3  -3   1   -0.03    0.07
   3  -3   1    0.03    0.07
  -4   3  -1   37.16    1.26
   4  -3   1   35.47    1.28
   4  -3   1   36.38    1.27
   5  -3   1    8.13    0.53
   5  -3   1    8.37    0.50
   5  -3   1    8.63    0.45
   5  -3   1    7.04    0.54
   5  -3   1    8.20    0.48
   5  -3   1    9.24    0.48
   5  -3   1    8.90    0.48
   6  -3   1    0.78    0.17
   6  -3   1    0.58    0.20
   6  -3   1    0.69    0.20
   6  -3   1    0.89    0.25
   6  -3   1    0.77    0.18
  -7   3  -1    0.96    0.23
   7  -3   1    0.93    0.29
   7  -3   1    1.07    0.25
   7  -3   1    0.75    0.18
   7  -3   1    0.91    0.21
   7  -3   1    1.10    0.27
  -8   3  -1    4.48    0.28
   8  -3   1    4.25    0.28
   8  -3   1    4.44    0.30
   8  -3   1    4.53    0.28
   9  -3   1    0.55    0.12
   9   2  -1    4.80    0.24
   9   2  -1    4.60    0.24
   9   2  -1    4.71    0.24
   9   2  -1    4.58    0.29
   8   2  -1    3.22    0.28
   8   2  -1    3.40    0.25
   8   2  -1    2.97    0.25
   8   2  -1    3.02    0.26
   7   2  -1    0.76    0.23
   7   2  -1    0.26    0.16
   7   2  -1    0.71    0.23
   7   2  -1    0.33    0.14
   6   2  -1    6.13    0.41
   6   2  -1    6.54    0.39
   6   2  -1    5.97    0.41
   6   2  -1    5.91    0.39
   5   2  -1   59.19    2.04
   5   2  -1   59.11    2.05
   5   2  -1   59.04    2.04
   5   2  -1   59.95    2.04
  -4  -2   1   12.41    0.49
  -3  -2   1   17.10    0.62
  -2  -2   1   39.96    1.26
  -2  -2   1   35.66    1.25
   1   2  -1    9.36    0.33
  -1  -2   1    8.43    0.33
  -1  -2   1    8.90    0.35
  -1  -2   1    8.63    0.31
  -1  -2   1    8.58    0.31
  -1  -2   1    9.54    0.32
   0   2  -1  474.49   15.27
   0   2  -1  486.62   15.36
   0   2  -1  461.51   15.33
   0  -2   1  460.47   15.37
   0  -2   1  487.96   15.35
   0  -2   1  493.07   15.28
  -1   2  -1   26.00    0.82
  -1   2  -1   22.05    0.82
  -1   2  -1   24.48    0.81
   1  -2   1   25.71    0.80
   1  -2   1   23.54    0.81
   1  -2   1   24.18    0.83
   2  -2   1    1.39    0.15
   2  -2   1    1.50    0.10
   2  -2   1    1.48    0.11
  -3   2  -1    0.58    0.09
   3  -2   1    0.70    0.10
   3  -2   1    0.69    0.10
  -4   2  -1   18.96    0.66
   4  -2   1   18.15    0.70
   4  -2   1   18.27    0.69
   5  -2   1   55.47    1.93
   5  -2   1   55.75    1.94
   5  -2   1   54.18    1.94
   5  -2   1   57.68    1.95
   5  -2   1   56.94    1.95
   5  -2   1   58.18    1.93
   5  -2   1   55.61    1.95
   6  -2   1   35.44    1.27
   6  -2   1   35.33    1.27
   6  -2   1   33.45    1.26
   6  -2   1   34.16    1.26
   6  -2   1   33.76    1.26
  -7   2  -1   36.45    1.32
   7  -2   1   37.88    1.34
   7  -2   1   37.21    1.35
   7  -2   1   37.73    1.34
   7  -2   1   37.61    1.35
   7  -2   1   36.65    1.34
  -8   2  -1    2.63    0.30
   8  -2   1    2.73    0.24
   8  -2   1    2.61    0.24
   8  -2   1    2.87    0.24
   9  -2   1    4.43    0.25
   9  -2   1    4.78    0.25
   9  -2   1    4.60    0.23
   9   1  -1    1.28    0.15
   9   1  -1    1.11    0.14
   9   1  -1    1.22    0.16
   9   1  -1    1.03    0.19
   8   1  -1    5.13    0.32
   8   1  -1    4.90    0.30
   8   1  -1    4.55    0.32
   8   1  -1    4.64    0.31
   7   1  -1    4.99    0.36
   7   1  -1    5.24    0.36
   7   1  -1    5.51    0.35
   7   1  -1    5.12    0.34
   6   1  -1    0.29    0.17
   6   1  -1    0.39    0.16
   6   1  -1    0.60    0.18
   6   1  -1    0.48    0.19
   6   1  -1    0.57    0.20
   5   1  -1   36.84    1.34
   5   1  -1   38.01    1.32
   5   1  -1   33.39    1.28
   5   1  -1   38.37    1.33
   5   1  -1   38.79    1.34
   4   1  -1   14.53    0.57
   4   1  -1   14.68    0.54
  -4  -1   1   15.60    0.56
   3   1  -1   12.41    0.45
   3   1  -1   12.73    0.47
  -3  -1   1   12.91    0.46
   2   1  -1    6.58    0.23
   2   1  -1    6.78    0.24
  -2  -1   1    5.79    0.24
  -2  -1   1    6.10    0.26
  -2  -1   1    6.54    0.25
  -2  -1   1    6.06    0.25
   1   1  -1   12.35    0.40
  -1  -1   1   11.15    0.40
  -1  -1   1   12.13    0.40
  -1  -1   1   11.60    0.41
   0   1  -1   71.07    2.25
   0   1  -1   71.38    2.26
   0   1  -1   62.70    2.24
   0  -1   1   70.84    2.25
   0  -1   1   73.78    2.26
   0  -1   1   71.69    2.26
  -1   1  -1   16.13    0.54
  -1   1  -1   17.14    0.54
  -1   1  -1   15.48    0.55
   1  -1   1   16.36    0.55
   1  -1   1   15.48    0.54
   1  -1   1   17.49    0.54
  -2   1  -1   77.99    2.38
  -2   1  -1   75.85    2.41
   2  -1   1   75.59    2.38
   2  -1   1   67.98    2.39
   2  -1   1   72.90    2.40
  -3   1  -1   21.14    0.68
   3  -1   1   20.87    0.71
   3  -1   1   18.94    0.72
   3  -1   1   20.60    0.69
  -4   1  -1   10.17    0.36
   4  -1   1   10.08    0.41
   4  -1   1    9.49    0.42
   5  -1   1    4.14    0.32
   5  -1   1    4.00    0.37
   5  -1   1    4.46    0.34
   5  -1   1    4.51    0.36
   5  -1   1    4.70    0.30
   5  -1   1    4.96    0.41
   5  -1   1    4.25    0.44
   6  -1   1    1.55    0.25
   6  -1   1    1.04    0.28
   6  -1   1    1.18    0.30
   6  -1   1    1.41    0.33
   7  -1   1   12.60    0.58
   7  -1   1   12.99    0.60
   7  -1   1   13.13    0.61
   7  -1   1   13.75    0.60
   7  -1   1   12.91    0.59
   8  -1   1    1.79    0.20
   8  -1   1    1.55    0.20
   8  -1   1    1.51    0.21
   8  -1   1    1.39    0.21
   9  -1   1   -0.02    0.08
   9  -1   1   -0.06    0.07
   9  -1   1    0.08    0.09
   9   0  -1    0.07    0.08
   9   0  -1    0.29    0.11
   9   0  -1    0.14    0.08
   9   0  -1    0.03    0.07
   8   0  -1   17.18    0.69
   8   0  -1   16.44    0.68
   8   0  -1   17.05    0.69
   8   0  -1   16.98    0.68
   7   0  -1   72.75    2.44
   7   0  -1   70.99    2.43
   7   0  -1   69.50    2.40
   7   0  -1   72.26    2.43
   7   0  -1   70.39    2.43
   6   0  -1   16.32    0.82
   6   0  -1   18.57    0.77
   6   0  -1   20.66    0.79
   6   0  -1   19.17    0.79
   6   0  -1   19.79    0.78
   6   0  -1   19.56    0.78
   5   0  -1    7.36    0.39
   5   0  -1    7.65    0.42
   5   0  -1    7.53    0.45
   5   0  -1    7.67    0.45
  -5   0   1    7.86    0.39
   4   0  -1    5.50    0.28
   4   0  -1    6.33    0.26
  -4   0   1    6.00    0.27
   3   0  -1    4.50    0.18
   3   0  -1    4.24    0.20
  -3   0   1    4.05    0.19
  -3   0   1    4.09    0.21
   2   0  -1   72.00    2.29
   2   0  -1   72.84    2.31
  -2   0   1   76.90    2.32
  -2   0   1   67.37    2.29
  -2   0   1   68.19    2.32
   1   0  -1  297.90    9.30
   1   0  -1  282.04    9.39
   1   0  -1  292.54    9.38
  -1   0   1  306.63    9.44
  -1   0   1  284.13    9.30
  -1   0   1  285.91    9.38
   0   0  -1  208.31    7.07
   0   0  -1  220.83    7.07
   0   0   1  210.76    7.07
   0   0   1  232.04    7.07
   0   0   1  231.69    7.11
  -1   0  -1   38.72    1.30
  -1   0  -1   39.70    1.30
   1   0   1   40.44    1.30
   1   0   1   41.78    1.30
  -2   0  -1   40.81    1.41
  -2   0  -1   39.11    1.40
   2   0   1   44.62    1.40
   2   0   1   46.11    1.40
   3   0   1   27.55    0.94
   3   0   1   27.21    0.93
   4   0   1    0.54    0.12
   4   0   1    0.69    0.13
   5   0   1    0.32    0.19
   5   0   1    0.21    0.12
   5   0   1    0.09    0.14
   5   0   1   -0.01    0.16
   5   0   1    0.08    0.15
   5   0   1    0.25    0.19
   6   0   1    4.01    0.34
   6   0   1    3.50    0.47
   6   0   1    4.03    0.36
   6   0   1    4.20    0.35
   6   0   1    4.33    0.33
   6   0   1    4.15    0.38
   7   0   1    0.30    0.14
   7   0   1    0.46    0.14
   7   0   1    0.44    0.14
   7   0   1    0.39    0.17
   7   0   1    0.22    0.15
   8   0   1   14.65    0.60
   8   0   1   15.13    0.61
   8   0   1   13.42    0.59
   8   0   1   15.07    0.61
   9   0   1    0.02    0.08
   9   0   1    0.06    0.08
   9   0   1    0.10    0.08
   9  -1  -1    0.21    0.09
   9  -1  -1   -0.02    0.07
   9  -1  -1    0.09    0.08
   9  -1  -1    0.04    0.08
   8  -1  -1    1.89    0.22
   8  -1  -1    1.71    0.23
   8  -1  -1    1.77    0.25
   8  -1  -1    1.88    0.22
   7  -1  -1   15.01    0.65
   7  -1  -1   15.19    0.65
   7  -1  -1   15.23    0.66
   7  -1  -1   14.68    0.65
   6  -1  -1   26.86    1.02
   6  -1  -1   26.71    1.02
   6  -1  -1   24.91    0.99
   6  -1  -1   27.84    1.02
   6  -1  -1   26.76    1.02
   5  -1  -1   50.79    1.83
   5  -1  -1   53.41    1.84
   5  -1  -1   54.38    1.83
   5  -1  -1   51.75    1.82
   5  -1  -1   51.75    1.84
   5  -1  -1   52.84    1.84
  -5   1   1   56.00    1.81
   4  -1  -1   18.10    0.63
   4  -1  -1   16.99    0.66
  -4   1   1   17.73    0.64
   3  -1  -1    0.60    0.07
   3  -1  -1    0.56    0.08
  -3   1   1    0.76    0.14
  -3   1   1    0.60    0.08
   2  -1  -1    5.29    0.19
   2  -1  -1    4.80    0.20
   2  -1  -1    4.76    0.22
  -2   1   1    4.96    0.19
  -2   1   1    5.13    0.20
   1  -1  -1  165.02    5.24
   1  -1  -1  167.49    5.20
   1  -1  -1  154.84    5.15
  -1   1   1  154.24    5.17
  -1   1   1  174.62    5.25
  -1   1   1  150.21    5.15
   0  -1  -1  117.91    3.79
   0  -1  -1  124.82    3.81
   0  -1  -1  113.74    3.80
   0   1   1  118.30    3.81
   0   1   1  113.77    3.77
  -1  -1  -1    9.37    0.32
  -1  -1  -1    9.45    0.34
  -1  -1  -1    9.33    0.34
   1   1   1    9.61    0.34
   1   1   1   10.18    0.32
  -2  -1  -1    6.54    0.21
  -2  -1  -1    5.92    0.21
   2   1   1    5.86    0.24
   3   1   1  249.26    7.88
   3   1   1  242.22    7.89
   4   1   1   61.56    2.05
   5   1   1    0.98    0.21
   5   1   1    1.05    0.32
   5   1   1    0.84    0.28
   5   1   1    0.61    0.21
   5   1   1    0.80    0.21
   5   1   1    1.16    0.31
   6   1   1    3.18    0.32
   6   1   1    2.74    0.30
   6   1   1    3.45    0.39
   6   1   1    3.71    0.34
   6   1   1    3.20    0.32
   7   1   1    0.62    0.18
   7   1   1    0.51    0.16
   7   1   1    0.31    0.13
   7   1   1    0.33    0.14
   7   1   1    0.85    0.25
   8   1   1   -0.15    0.18
   8   1   1    0.04    0.11
   8   1   1   -0.07    0.10
   8   1   1    0.01    0.09
   8   1   1    0.03    0.11
   9   1   1    0.59    0.15
   9   1   1    0.88    0.13
   9   1   1    0.78    0.14
   9  -2  -1    0.29    0.09
   9  -2  -1    0.17    0.09
   9  -2  -1    0.30    0.09
  -9   2   1    0.76    0.19
   8  -2  -1    0.71    0.20
   8  -2  -1    0.89    0.20
   8  -2  -1    0.43    0.13
   7  -2  -1    1.80    0.28
   7  -2  -1    1.97    0.27
   7  -2  -1    1.78    0.28
   7  -2  -1    1.86    0.26
   6  -2  -1    0.15    0.15
   6  -2  -1   -0.13    0.14
   6  -2  -1    0.07    0.15
   6  -2  -1    0.02    0.14
   6  -2  -1   -0.02    0.14
   5  -2  -1    0.28    0.18
   5  -2  -1    0.30    0.15
   5  -2  -1   -0.01    0.16
   5  -2  -1    0.41    0.17
   5  -2  -1    0.87    0.27
   5  -2  -1    0.36    0.15
  -5   2   1    0.39    0.16
   4  -2  -1   41.63    1.47
   4  -2  -1   43.30    1.43
  -4   2   1   43.34    1.46
   3  -2  -1   12.61    0.51
   3  -2  -1   14.41    0.49
  -3   2   1   13.90    0.51
   2  -2  -1   16.42    0.56
  -2   2   1   15.10    0.56
  -2   2   1   15.56    0.55
   1  -2  -1   48.91    1.54
   1  -2  -1   44.36    1.56
  -1   2   1   46.10    1.55
  -1   2   1   49.88    1.55
   0  -2  -1    0.75    0.07
   0  -2  -1    0.72    0.09
   0  -2  -1    0.71    0.08
   0   2   1    0.70    0.08
   0   2   1    0.83    0.07
  -1  -2  -1    5.35    0.22
  -1  -2  -1    5.43    0.22
   1   2   1    5.77    0.21
   1   2   1    5.64    0.22
  -2  -2  -1   10.79    0.39
   2   2   1    9.95    0.40
   2   2   1   11.57    0.38
  -3  -2  -1    0.34    0.11
  -3  -2  -1    0.42    0.08
   3   2   1    0.47    0.09
   4   2   1    8.50    0.38
   5   2   1   37.62    1.37
   5   2   1   38.32    1.38
   5   2   1   39.43    1.37
   5   2   1   37.59    1.37
   5   2   1   38.05    1.37
   5   2   1   37.01    1.37
   6   2   1    2.71    0.34
   6   2   1    2.16    0.34
   6   2   1    3.04    0.32
   6   2   1    2.82    0.31
   7   2   1    4.61    0.35
   7   2   1    4.73    0.33
   7   2   1    4.83    0.35
   7   2   1    5.02    0.38
   7   2   1    4.29    0.33
   8   2   1    3.17    0.26
   8   2   1    3.62    0.27
   8   2   1    3.53    0.25
   8   2   1    3.30    0.25
   9   2   1    0.04    0.07
   9   2   1   -0.12    0.08
   9   2   1   -0.02    0.07
   9  -3  -1    3.76    0.21
   9  -3  -1    3.81    0.22
  -9   3   1    3.85    0.22
   8  -3  -1    0.19    0.11
   8  -3  -1    0.12    0.13
   8  -3  -1    0.30    0.11
   8  -3  -1    0.02    0.10
  -8   3   1   -0.06    0.09
   7  -3  -1   14.19    0.63
   7  -3  -1   14.92    0.62
   7  -3  -1   14.38    0.63
   7  -3  -1   13.78    0.62
   6  -3  -1    4.20    0.34
   6  -3  -1    3.30    0.33
   6  -3  -1    3.89    0.32
   6  -3  -1    3.86    0.39
   5  -3  -1    5.32    0.39
   5  -3  -1    5.18    0.35
   5  -3  -1    5.42    0.39
   5  -3  -1    5.29    0.40
   5  -3  -1    4.91    0.38
   5  -3  -1    5.12    0.46
  -5   3   1    5.21    0.42
   4  -3  -1    1.96    0.19
   4  -3  -1    2.34    0.19
  -4   3   1    1.93    0.20
   3  -3  -1    1.50    0.14
   3  -3  -1    1.45    0.15
  -3   3   1    1.57    0.15
   2  -3  -1   33.60    1.16
   2  -3  -1   35.45    1.15
  -2   3   1   33.47    1.17
   1  -3  -1   97.88    3.25
   1  -3  -1  104.26    3.27
  -1   3   1  100.19    3.27
   0  -3  -1    0.92    0.08
   0  -3  -1    1.02    0.09
   0   3   1    1.01    0.09
  -1  -3  -1    3.22    0.17
   1   3   1    3.58    0.17
  -2  -3  -1   17.57    0.64
   2   3   1   17.51    0.62
  -3  -3  -1    6.70    0.30
   3   3   1    4.85    0.36
  -4  -3  -1   68.11    2.23
   4   3   1   63.48    2.22
  -5  -3  -1    0.90    0.31
   5   3   1    1.14    0.28
   5   3   1    0.74    0.20
   5   3   1    0.80    0.20
   5   3   1    1.37    0.29
   6   3   1    0.33    0.14
   6   3   1    0.28    0.17
   6   3   1    0.84    0.26
   6   3   1    0.70    0.17
   7   3   1   24.34    0.94
   7   3   1   24.89    0.94
   7   3   1   23.75    0.93
   7   3   1   25.02    0.94
   8   3   1    0.00    0.09
   8   3   1    0.10    0.10
   8   3   1    0.00    0.11
   8  -4  -1    1.55    0.21
   8  -4  -1    1.86    0.19
  -8   4   1    1.74    0.18
   7  -4  -1    9.65    0.46
   7  -4  -1    8.86    0.45
   7  -4  -1    9.49    0.46
   6  -4  -1   28.10    1.05
   6  -4  -1   26.36    1.04
   6  -4  -1   27.86    1.04
   5  -4  -1    0.14    0.17
   5  -4  -1    0.19    0.17
   5  -4  -1    0.00    0.15
  -5   4   1    0.05    0.18
  -5   4   1   -0.10    0.32
   4  -4  -1    1.99    0.33
   4  -4  -1    1.37    0.25
   4  -4  -1    1.72    0.23
   4  -4  -1    2.68    0.41
  -4   4   1    1.58    0.31
  -4   4   1    2.15    0.28
   3  -4  -1   41.34    1.41
   3  -4  -1   41.48    1.43
  -3   4   1   40.97    1.44
   2  -4  -1   34.92    1.19
   2  -4  -1   34.79    1.20
  -2   4   1   34.82    1.22
   1  -4  -1    0.10    0.07
   1  -4  -1    0.23    0.07
  -1   4   1    0.30    0.09
   0  -4  -1    0.39    0.10
   0  -4  -1    0.43    0.09
   0   4   1    0.49    0.11
  -1  -4  -1    1.20    0.13
  -1  -4  -1    1.12    0.13
   1   4   1    1.29    0.12
   1   4   1    1.28    0.21
  -2  -4  -1    2.03    0.17
   2   4   1    1.99    0.16
   2   4   1    2.10    0.23
  -3  -4  -1    2.92    0.23
   3   4   1    2.19    0.28
  -4  -4  -1    7.16    0.42
   4   4   1    6.74    0.48
   4   4   1    7.79    0.43
   4   4   1    8.04    0.46
   4   4   1    6.89    0.46
   5   4   1    0.93    0.27
   5   4   1    0.82    0.22
   5   4   1    1.33    0.33
   5   4   1    1.12    0.37
   6   4   1    1.67    0.28
   6   4   1    1.88    0.29
   6   4   1    1.38    0.29
   6   4   1    1.21    0.29
   7   4   1   14.75    0.62
   7   4   1   14.45    0.62
   7   4   1   15.89    0.64
   7   4   1   15.09    0.63
   8   4   1   11.58    0.47
   8   4   1   11.07    0.46
   8   4   1   11.85    0.47
   8  -5  -1    1.12    0.15
  -8   5   1    1.17    0.15
   7  -5  -1    0.14    0.11
   7  -5  -1    0.30    0.14
  -7   5   1    0.11    0.09
   6  -5  -1    0.15    0.12
   6  -5  -1    0.23    0.17
  -6   5   1    0.21    0.11
   5  -5  -1   -0.06    0.20
   5  -5  -1    0.39    0.19
   5  -5  -1    0.04    0.14
   5  -5  -1    0.08    0.23
  -5   5   1   -0.05    0.17
   4  -5  -1    2.53    0.45
   4  -5  -1    2.11    0.33
   4  -5  -1    2.14    0.30
   4  -5  -1    1.85    0.39
  -4   5   1    2.22    0.28
  -4   5   1    2.59    0.40
   3  -5  -1    1.02    0.26
   3  -5  -1    1.25    0.25
   3  -5  -1    1.99    0.29
  -3   5   1    1.76    0.25
  -3   5   1    1.69    0.26
  -3   5   1    1.37    0.24
   2  -5  -1    9.17    0.44
   2  -5  -1   10.80    0.45
  -2   5   1   10.49    0.48
  -2   5   1   10.15    0.52
   1  -5  -1   43.44    1.44
   1  -5  -1   38.50    1.42
  -1   5   1   41.38    1.44
  -1   5   1   42.54    1.46
   0  -5  -1   16.98    0.64
   0  -5  -1   16.01    0.63
   0   5   1   16.31    0.65
   0   5   1   16.31    0.65
  -1  -5  -1   17.49    0.65
  -1  -5  -1   15.75    0.64
   1   5   1   16.25    0.66
   1   5   1   16.19    0.65
  -2  -5  -1    2.67    0.24
  -2  -5  -1    2.59    0.24
   2   5   1    2.14    0.32
   2   5   1    2.76    0.26
   2   5   1    2.59    0.24
  -3  -5  -1   12.29    0.56
  -3  -5  -1   11.78    0.57
   3   5   1   11.20    0.65
   3   5   1   11.65    0.57
   3   5   1   11.85    0.53
   3   5   1   11.33    0.57
  -4  -5  -1   -0.09    0.27
   4   5   1    0.10    0.17
   4   5   1    0.11    0.15
   4   5   1    0.25    0.20
   4   5   1    0.20    0.14
   5   5   1    2.35    0.30
   5   5   1    2.01    0.33
   5   5   1    1.84    0.29
   6   5   1    0.07    0.15
   6   5   1    0.50    0.16
   6   5   1    0.35    0.14
   7   5   1    1.73    0.23
   7   5   1    1.86    0.21
   7   5   1    1.64    0.25
   8   5   1    6.45    0.30
   8   5   1    6.25    0.29
   7  -6  -1    0.73    0.16
  -7   6   1    0.96    0.16
   6  -6  -1    2.26    0.24
  -6   6   1    2.19    0.23
  -6   6   1    2.47    0.30
   5  -6  -1   15.58    0.68
  -5   6   1   16.11    0.66
  -5   6   1   16.25    0.67
   4  -6  -1   28.21    1.08
  -4   6   1   29.97    1.07
  -4   6   1   27.87    1.05
   3  -6  -1    0.52    0.32
   3  -6  -1    0.20    0.15
   3  -6  -1    0.26    0.31
  -3   6   1    0.23    0.14
  -3   6   1    0.41    0.16
   2  -6  -1   18.58    0.78
   2  -6  -1   17.27    0.75
  -2   6   1   17.46    0.76
  -2   6   1   18.84    0.79
  -2   6   1   18.38    0.73
  -2   6   1   17.96    0.79
  -2   6   1   18.30    0.77
   1  -6  -1   24.28    0.93
   1  -6  -1   24.26    0.94
  -1   6   1   24.51    0.93
  -1   6   1   24.13    0.97
  -1   6   1   24.67    0.95
  -1   6   1   24.52    0.96
  -1   6   1   24.72    0.93
   0  -6  -1    0.32    0.17
   0  -6  -1    0.04    0.13
   0   6   1    0.12    0.20
   0   6   1    0.02    0.15
   0   6   1    0.02    0.15
   0   6   1    0.50    0.17
   0   6   1    0.08    0.12
  -1  -6  -1   44.81    1.57
  -1  -6  -1   45.14    1.57
   1   6   1   44.54    1.56
   1   6   1   44.25    1.55
   1   6   1   42.99    1.58
   1   6   1   45.02    1.56
   1   6   1   42.31    1.57
  -2  -6  -1    0.51    0.18
  -2  -6  -1    0.55    0.26
   2   6   1    0.96    0.36
   2   6   1    0.68    0.20
   2   6   1    0.50    0.14
   2   6   1    1.09    0.22
   2   6   1    0.73    0.18
   3   6   1    9.94    0.53
   3   6   1   10.66    0.50
   3   6   1   10.47    0.52
   4   6   1   11.78    0.56
   4   6   1   11.92    0.56
   4   6   1   11.82    0.56
   5   6   1    6.87    0.41
   5   6   1    6.69    0.40
   5   6   1    7.12    0.41
   5   6   1    6.39    0.43
   6   6   1    5.62    0.35
   6   6   1    5.92    0.35
   6   6   1    6.04    0.34
   7   6   1    6.27    0.30
   7   6   1    5.50    0.30
   7   6   1    5.54    0.31
   7  -7  -1    2.07    0.17
  -7   7   1    2.05    0.16
   6  -7  -1    0.15    0.10
  -6   7   1    0.16    0.15
  -6   7   1   -0.07    0.08
   5  -7  -1    0.09    0.11
   5  -7  -1    0.34    0.17
  -5   7   1   -0.09    0.13
  -5   7   1    0.16    0.11
   4  -7  -1    2.40    0.29
  -4   7   1    3.07    0.27
  -4   7   1    3.54    0.29
   3  -7  -1   13.79    0.63
  -3   7   1   14.01    0.60
  -3   7   1   13.65    0.61
  -2   7   1    4.26    0.31
  -2   7   1    5.09    0.41
  -2   7   1    4.18    0.37
  -2   7   1    4.64    0.39
  -1   7   1    5.94    0.40
  -1   7   1    5.58    0.36
  -1   7   1    6.27    0.40
   0  -7  -1    8.70    0.68
   0   7   1   10.39    0.50
   0   7   1   10.17    0.53
   0   7   1   10.33    0.49
   0   7   1   10.76    0.54
   1   7   1    3.31    0.32
   1   7   1    3.02    0.28
   1   7   1    2.69    0.34
   1   7   1    2.35    0.28
   2   7   1   43.36    1.50
   2   7   1   40.49    1.48
   2   7   1   40.54    1.47
   2   7   1   41.26    1.49
   3   7   1    6.39    0.38
   3   7   1    5.54    0.38
   3   7   1    5.22    0.39
   4   7   1   18.17    0.73
   4   7   1   17.05    0.73
   4   7   1   17.48    0.72
   5   7   1   16.25    0.66
   5   7   1   15.82    0.68
   5   7   1   16.27    0.66
   6   7   1   10.55    0.45
   6   7   1   10.68    0.45
   6  -8  -1    0.32    0.09
  -6   8   1    0.20    0.08
   5  -8  -1    5.77    0.31
  -5   8   1    5.61    0.29
  -5   8   1    5.20    0.29
   4  -8  -1    0.25    0.12
   4  -8  -1    0.16    0.12
  -4   8   1    0.07    0.12
  -4   8   1   -0.06    0.10
   3  -8  -1    2.31    0.26
  -3   8   1    2.31    0.28
  -3   8   1    1.96    0.22
   2  -8  -1    2.91    0.28
  -2   8   1    1.92    0.23
  -2   8   1    1.99    0.40
  -2   8   1    2.24    0.27
  -1   8   1    0.31    0.17
  -1   8   1    0.26    0.15
  -1   8   1    0.34    0.11
   0   8   1   10.81    0.53
   0   8   1   11.04    0.53
   0   8   1   11.01    0.51
   1   8   1   26.35    1.00
   1   8   1   27.00    1.03
   1   8   1   26.43    1.02
   2   8   1    4.01    0.31
   2   8   1    3.19    0.32
   2   8   1    3.47    0.32
   2   8   1    3.47    0.29
   3   8   1    4.25    0.32
   3   8   1    3.88    0.30
   3   8   1    3.73    0.31
   4   8   1    7.25    0.37
   4   8   1    6.75    0.39
   4   8   1    7.19    0.38
   5   8   1    0.57    0.17
   5   8   1    0.30    0.17
   5   8   1    0.52    0.13
   6   8   1    0.78    0.18
   5  -9  -1    4.00    0.22
  -5   9   1    4.35    0.23
  -5   9   1    4.27    0.24
   4  -9  -1    0.51    0.13
   4  -9  -1    0.55    0.15
  -4   9   1    0.31    0.09
  -4   9   1    0.63    0.20
   3  -9  -1    9.39    0.43
  -3   9   1    9.10    0.41
   2  -9  -1    8.42    0.42
  -2   9   1    8.84    0.41
  -1   9   1    2.63    0.25
  -1   9   1    2.55    0.23
  -1   9   1    2.09    0.29
   0   9   1    0.93    0.23
   0   9   1    1.20    0.20
   0   9   1    1.65    0.24
   1   9   1    0.46    0.14
   1   9   1    0.85    0.19
   1   9   1    0.64    0.15
   2   9   1    0.16    0.14
   2   9   1    0.08    0.09
   2   9   1    0.18    0.12
   3   9   1    7.23    0.37
   3   9   1    7.45    0.36
   4   9   1   -0.05    0.12
   4   9   1    0.05    0.07
   3 -10  -1    0.13    0.11
   3 -10  -1    0.14    0.09
  -3  10   1    0.05    0.07
   2 -10  -1    8.59    0.36
  -2  10   1    8.30    0.35
   1 -10  -1    6.58    0.31
  -1  10   1    6.35    0.30
   0 -10  -1    9.94    0.42
   0  10   1    9.71    0.42
   0  10   1   10.21    0.45
   0  10   1    9.94    0.41
  -1 -10  -1    1.13    0.18
   1  10   1    1.38    0.16
   1  10   1    1.13    0.20
   1  10   1    1.29    0.17
   2  10   1    4.51    0.24
   2  10   1    4.58    0.26
   3  10   1   27.71    0.94
   3  10   1   26.87    0.96
   3  10  -2    0.13    0.12
   2  10  -2   -0.05    0.10
   2  10  -2    0.00    0.07
   1  10  -2    0.16    0.08
   1  10  -2    0.23    0.11
   0  10  -2    3.10    0.20
   0  10  -2    3.92    0.27
  -1  10  -2    2.47    0.17
  -2  10  -2    0.08    0.12
  -2  10  -2    0.11    0.08
   2 -10   2    0.16    0.07
  -3  10  -2    6.06    0.38
  -3  10  -2    5.55    0.26
   3 -10   2    5.91    0.26
   4   9  -2    1.06    0.22
   4   9  -2    0.52    0.18
   3   9  -2    0.94    0.19
   3   9  -2    0.88    0.16
   3   9  -2    1.05    0.21
   2   9  -2   -0.11    0.12
   2   9  -2   -0.01    0.10
   2   9  -2   -0.05    0.11
   1   9  -2    1.07    0.21
   1   9  -2    0.94    0.21
   0   9  -2    0.14    0.13
   0   9  -2   -0.09    0.15
   0   9  -2    0.23    0.11
   0   9  -2    0.23    0.11
  -1   9  -2    1.01    0.22
  -1   9  -2    1.17    0.19
  -1   9  -2    1.07    0.23
  -2   9  -2    0.92    0.20
  -2   9  -2    1.11    0.17
  -3   9  -2    3.34    0.23
  -3   9  -2    3.12    0.22
   3  -9   2    3.13    0.22
  -4   9  -2    1.76    0.16
  -4   9  -2    1.99    0.22
   4  -9   2    1.70    0.17
   5   8  -2    7.24    0.39
   4   8  -2    6.11    0.34
   4   8  -2    5.70    0.34
   4   8  -2    6.22    0.36
   3   8  -2    8.64    0.42
   3   8  -2    8.11    0.43
   3   8  -2    8.67    0.44
   2   8  -2    3.97    0.30
   2   8  -2    4.19    0.31
   2   8  -2    3.80    0.30
   0   8  -2    1.27    0.28
   0   8  -2    0.52    0.16
   0   8  -2    0.51    0.17
  -1   8  -2    3.38    0.31
  -1   8  -2    3.40    0.33
  -1   8  -2    4.19    0.32
  -1   8  -2    4.24    0.30
  -2   8  -2    0.05    0.13
  -2   8  -2   -0.03    0.19
  -2   8  -2   -0.01    0.12
   2  -8   2   -0.42    0.19
  -3   8  -2    2.97    0.28
  -3   8  -2    3.23    0.26
   3  -8   2    2.63    0.31
  -4   8  -2    0.25    0.10
  -4   8  -2    0.17    0.15
   4  -8   2    0.05    0.16
   4  -8   2    0.07    0.09
  -5   8  -2    4.45    0.25
   5  -8   2    4.25    0.25
   5  -8   2    4.44    0.28
  -6   8  -2    4.89    0.23
   6  -8   2    4.53    0.24
   5   7  -2    0.73    0.20
   4   7  -2   -0.14    0.14
   4   7  -2    0.16    0.16
   4   7  -2   -0.03    0.13
   3   7  -2    1.47    0.32
   3   7  -2    0.86    0.24
   3   7  -2    0.91    0.24
   2   7  -2   41.11    1.54
   2   7  -2   42.83    1.54
   2   7  -2   46.05    1.56
   1   7  -2    0.04    0.12
   1   7  -2    0.16    0.18
   1   7  -2    0.21    0.15
   1   7  -2   -0.05    0.14
   0   7  -2    0.32    0.15
   0   7  -2    0.35    0.16
   0   7  -2    0.39    0.17
   0   7  -2    0.44    0.15
  -1   7  -2   -0.03    0.12
  -1   7  -2    0.42    0.16
  -1   7  -2    0.08    0.13
  -1   7  -2   -0.01    0.13
   1  -7   2   -0.21    0.24
  -2   7  -2    1.45    0.29
  -2   7  -2    1.43    0.24
  -2   7  -2    1.22    0.26
   2  -7   2    1.25    0.38
  -3   7  -2    1.64    0.26
  -3   7  -2    1.43    0.24
   3  -7   2    1.38    0.30
  -4   7  -2    0.68    0.19
  -4   7  -2    0.39    0.13
   4  -7   2    0.85    0.22
   4  -7   2    0.64    0.19
  -5   7  -2    1.39    0.20
   5  -7   2    1.45    0.22
   5  -7   2    1.53    0.24
  -6   7  -2    0.15    0.08
   6  -7   2    0.34    0.13
   6  -7   2   -0.06    0.09
   5   6  -2   -0.10    0.19
   4   6  -2    2.96    0.31
   4   6  -2    3.06    0.31
   4   6  -2    2.67    0.40
   3   6  -2   20.45    0.80
   3   6  -2   18.69    0.82
   3   6  -2   19.90    0.80
   2   6  -2    0.91    0.26
   2   6  -2    0.67    0.19
   2   6  -2    0.82    0.23
   2   6  -2    1.06    0.23
  -2  -6   2    1.46    0.35
   1   6  -2   14.88    0.69
   1   6  -2   15.93    0.64
   1   6  -2   14.06    0.62
   1   6  -2   13.58    0.66
   1   6  -2   14.64    0.67
  -1  -6   2   14.24    0.64
   0   6  -2   -0.04    0.13
   0   6  -2    0.23    0.16
   0   6  -2    0.01    0.13
   0   6  -2   -0.03    0.12
   0   6  -2   -0.12    0.14
   0  -6   2    0.37    0.19
  -1   6  -2   11.08    0.58
  -1   6  -2   12.31    0.54
  -1   6  -2   12.00    0.54
  -1   6  -2   11.93    0.58
  -1   6  -2   11.57    0.55
   1  -6   2   11.58    0.56
  -2   6  -2    3.07    0.44
  -2   6  -2    3.60    0.31
  -2   6  -2    3.63    0.34
  -2   6  -2    4.28    0.33
   2  -6   2    3.47    0.45
   2  -6   2    3.23    0.39
  -3   6  -2   19.84    0.79
  -3   6  -2   19.72    0.77
   3  -6   2   18.89    0.80
  -4   6  -2    1.57    0.35
  -4   6  -2    1.74    0.24
   4  -6   2    1.96    0.31
   4  -6   2    1.75    0.25
  -5   6  -2   12.93    0.57
   5  -6   2   13.32    0.60
   5  -6   2   13.57    0.58
  -6   6  -2    2.61    0.23
  -6   6  -2    1.83    0.25
   6  -6   2    2.27    0.25
   6  -6   2    2.58    0.23
  -7   6  -2    3.02    0.24
  -7   6  -2    3.60    0.22
   7  -6   2    3.42    0.24
   7  -6   2    3.57    0.22
   5   5  -2    0.10    0.21
   4   5  -2    0.95    0.25
   4   5  -2    0.62    0.18
   4   5  -2    0.93    0.19
  -4  -5   2    0.93    0.32
   3   5  -2    0.02    0.24
   3   5  -2   -0.07    0.26
   3   5  -2   -0.21    0.19
   3   5  -2   -0.03    0.14
  -3  -5   2    0.10    0.19
   2   5  -2    6.16    0.39
   2   5  -2    5.98    0.37
   2   5  -2    5.93    0.34
  -2  -5   2    5.60    0.32
   1   5  -2   16.54    0.68
   1   5  -2   17.14    0.67
  -1  -5   2   16.23    0.65
   0   5  -2   22.31    0.89
   0   5  -2   24.60    0.89
   0  -5   2   23.86    0.87
  -1   5  -2   28.03    1.03
  -1   5  -2   28.84    1.04
   1  -5   2   27.50    1.02
  -2   5  -2   19.66    0.79
  -2   5  -2   20.41    0.81
  -2   5  -2   19.35    0.78
  -2   5  -2   20.11    0.80
   2  -5   2   20.63    0.79
  -3   5  -2    4.29    0.39
  -3   5  -2    4.59    0.41
  -3   5  -2    4.76    0.35
   3  -5   2    3.65    0.42
   3  -5   2    5.21    0.35
  -4   5  -2   -0.04    0.13
   4  -5   2    0.16    0.12
   4  -5   2   -0.02    0.18
  -5   5  -2   33.54    1.21
   5  -5   2   33.34    1.23
   5  -5   2   32.94    1.21
  -6   5  -2    8.52    0.42
   6  -5   2    7.51    0.41
   6  -5   2    7.92    0.42
  -7   5  -2    2.22    0.20
  -7   5  -2    2.06    0.21
   7  -5   2    1.92    0.22
   7  -5   2    2.22    0.22
  -8   5  -2    2.42    0.18
  -8   5  -2    1.98    0.21
   8  -5   2    2.59    0.19
   8   4  -2    1.13    0.20
   8   4  -2    1.21    0.23
   7   4  -2   -0.01    0.14
   7   4  -2   -0.03    0.16
   7   4  -2    0.14    0.14
   6   4  -2    3.71    0.40
   6   4  -2    4.27    0.36
   5   4  -2    3.88    0.40
   5   4  -2    4.43    0.40
   4   4  -2    0.26    0.24
   4   4  -2    0.05    0.18
   4   4  -2    0.42    0.22
  -4  -4   2    0.55    0.19
  -4  -4   2    0.27    0.21
  -4  -4   2    0.12    0.19
   3   4  -2    6.24    0.38
  -3  -4   2    7.40    0.33
  -3  -4   2    6.71    0.32
   2   4  -2   36.80    1.29
  -2  -4   2   34.77    1.25
  -2  -4   2   38.55    1.23
   1   4  -2   32.30    1.18
   1   4  -2   33.71    1.17
  -1  -4   2   35.93    1.11
  -1  -4   2   31.81    1.14
   0   4  -2   38.89    1.30
   0   4  -2   34.47    1.29
   0  -4   2   36.18    1.27
   0  -4   2   39.95    1.23
  -1   4  -2   16.31    0.64
   1  -4   2   18.10    0.59
   1  -4   2   16.60    0.63
  -2   4  -2   39.70    1.40
   2  -4   2   40.95    1.37
   2  -4   2   42.03    1.41
  -3   4  -2    9.02    0.43
  -3   4  -2    8.84    0.50
   3  -4   2    9.19    0.41
   3  -4   2    8.92    0.42
  -4   4  -2    1.90    0.28
   4  -4   2    2.57    0.30
   4  -4   2    2.36    0.29
   4  -4   2    1.70    0.34
   4  -4   2    1.64    0.35
  -5   4  -2   15.41    0.66
   5  -4   2   15.81    0.66
   5  -4   2   15.14    0.68
  -6   4  -2    9.34    0.46
   6  -4   2    9.13    0.48
   6  -4   2    9.56    0.48
  -7   4  -2    6.51    0.36
   7  -4   2    7.22    0.38
   7  -4   2    6.68    0.37
  -8   4  -2    0.54    0.14
  -8   4  -2    0.79    0.14
   8  -4   2    0.79    0.15
   9   3  -2    0.31    0.11
   9   3  -2    0.62    0.15
   8   3  -2    0.82    0.19
   8   3  -2    1.15    0.21
   8   3  -2    1.14    0.20
   7   3  -2    1.36    0.26
   7   3  -2    1.61    0.24
   7   3  -2    2.06    0.28
   5   3  -2   52.30    1.88
   5   3  -2   55.10    1.88
   5   3  -2   55.44    1.88
   5   3  -2   53.18    1.88
  -4  -3   2    5.34    0.30
  -4  -3   2    5.94    0.33
  -3  -3   2    9.21    0.37
  -2  -3   2   49.85    1.51
  -2  -3   2   45.53    1.52
  -2  -3   2   42.58    1.52
  -1  -3   2    1.15    0.10
  -1  -3   2    1.14    0.09
  -1  -3   2    1.16    0.08
   0   3  -2   13.12    0.50
   0  -3   2   13.12    0.48
   0  -3   2   13.90    0.45
  -1   3  -2   32.82    1.12
  -1   3  -2   33.66    1.09
   1  -3   2   35.82    1.09
   1  -3   2   29.79    1.11
  -2   3  -2   44.96    1.49
   2  -3   2   42.96    1.49
   2  -3   2   45.37    1.47
  -3   3  -2    9.36    0.39
   3  -3   2    8.78    0.39
   3  -3   2    9.60    0.39
  -4   3  -2    0.77    0.19
   4  -3   2    0.84    0.20
   4  -3   2    0.63    0.21
   4  -3   2    1.10    0.24
   4  -3   2    0.73    0.16
   4  -3   2    1.05    0.20
  -5   3  -2    7.18    0.43
   5  -3   2    7.17    0.52
   5  -3   2    7.52    0.41
   5  -3   2    7.25    0.49
   5  -3   2    7.59    0.43
   5  -3   2    6.85    0.53
  -6   3  -2    3.76    0.33
   6  -3   2    3.25    0.40
   6  -3   2    3.91    0.37
   6  -3   2    3.75    0.33
   6  -3   2    3.57    0.31
  -7   3  -2    2.32    0.28
   7  -3   2    2.75    0.33
   7  -3   2    2.47    0.30
   7  -3   2    2.60    0.26
   7  -3   2    2.46    0.28
  -8   3  -2    4.00    0.39
   8  -3   2    4.66    0.34
   8  -3   2    4.56    0.27
   8  -3   2    4.29    0.30
   8  -3   2    5.30    0.32
   9   2  -2    0.09    0.07
   9   2  -2    0.02    0.08
   9   2  -2    0.16    0.09
   8   2  -2    2.76    0.23
   8   2  -2    2.68    0.24
   8   2  -2    2.57    0.24
   7   2  -2    1.01    0.31
   7   2  -2    0.96    0.25
   7   2  -2    1.05    0.21
   7   2  -2    1.48    0.24
   6   2  -2    6.56    0.43
   6   2  -2    6.21    0.44
   6   2  -2    6.93    0.47
   6   2  -2    6.95    0.40
   5   2  -2    3.82    0.41
   5   2  -2    4.22    0.37
   5   2  -2    3.79    0.35
  -5  -2   2    4.23    0.36
   4   2  -2   26.21    0.95
  -4  -2   2   27.54    0.97
   3   2  -2    1.84    0.13
  -3  -2   2    1.72    0.15
  -2  -2   2  396.26   12.84
  -2  -2   2  374.94   12.84
  -2  -2   2  436.04   12.97
   1   2  -2  705.46   23.69
  -1  -2   2  730.52   23.46
  -1  -2   2  771.26   23.59
  -1  -2   2  733.66   23.47
   0   2  -2  306.19    9.79
   0   2  -2  298.20    9.65
  -1   2  -2  275.16    8.45
  -1   2  -2  268.72    8.44
   1  -2   2  250.41    8.48
   1  -2   2  237.68    8.44
   1  -2   2  287.33    8.49
  -2   2  -2   23.57    0.81
   2  -2   2   25.25    0.81
   2  -2   2   22.27    0.83
   2  -2   2   24.47    0.83
  -3   2  -2   18.21    0.62
   3  -2   2   17.53    0.64
   3  -2   2   17.23    0.65
   4  -2   2    3.81    0.25
   4  -2   2    3.83    0.25
   5  -2   2   15.54    0.66
   5  -2   2   15.39    0.68
   5  -2   2   14.77    0.67
   5  -2   2   14.57    0.71
   5  -2   2   15.31    0.65
   5  -2   2   14.61    0.67
   5  -2   2   15.34    0.65
  -6   2  -2   -0.06    0.17
   6  -2   2   -0.04    0.16
   6  -2   2   -0.27    0.14
   6  -2   2    0.28    0.14
   6  -2   2   -0.05    0.17
   6  -2   2    0.21    0.16
  -7   2  -2    0.09    0.17
   7  -2   2    0.06    0.13
   7  -2   2    0.33    0.14
   7  -2   2    0.28    0.15
   7  -2   2    0.31    0.14
   8  -2   2    0.68    0.18
   8  -2   2    1.02    0.24
   8  -2   2    0.94    0.22
   8  -2   2    0.83    0.20
  -9   2  -2    5.23    0.25
   9  -2   2    5.62    0.25
   9   1  -2    1.42    0.15
   9   1  -2    1.64    0.17
   9   1  -2    1.28    0.15
   8   1  -2    4.49    0.30
   8   1  -2    4.28    0.29
   8   1  -2    4.68    0.30
   8   1  -2    3.71    0.31
   7   1  -2    7.74    0.42
   7   1  -2    7.79    0.44
   7   1  -2    7.87    0.44
   7   1  -2    7.33    0.41
   7   1  -2    7.69    0.43
   6   1  -2    9.28    0.47
   6   1  -2    8.52    0.53
   6   1  -2    8.92    0.46
   6   1  -2    9.48    0.47
   6   1  -2    9.34    0.50
   5   1  -2   13.87    0.60
   5   1  -2   13.17    0.63
   5   1  -2   14.45    0.63
   5   1  -2   12.37    0.61
   5   1  -2   12.88    0.57
  -5  -1   2   13.00    0.58
   4   1  -2    0.69    0.13
  -4  -1   2    0.79    0.14
   3   1  -2  100.57    3.30
  -3  -1   2  102.30    3.32
  -3  -1   2  102.82    3.28
   2   1  -2  185.15    5.87
  -2  -1   2  169.94    5.87
  -2  -1   2  179.47    5.85
  -2  -1   2  199.63    5.90
  -2  -1   2  183.18    5.89
   1   1  -2  352.44   10.86
  -1  -1   2  362.16   10.87
  -1  -1   2  297.74   10.83
  -1  -1   2  344.39   10.86
   0   1  -2    1.51    0.09
   0  -1   2    1.50    0.10
   0  -1   2    1.45    0.08
  -1   1  -2  602.00   18.42
  -1   1  -2  570.13   18.36
  -1   1  -2  550.73   18.39
   1  -1   2  549.68   18.41
   1  -1   2  587.16   18.37
   1  -1   2  581.65   18.43
  -2   1  -2    2.22    0.10
   2  -1   2    2.01    0.11
   2  -1   2    2.12    0.12
   2  -1   2    2.03    0.12
   3  -1   2   37.87    1.27
   3  -1   2   37.00    1.26
   4  -1   2    0.98    0.16
   4  -1   2    0.89    0.16
   5  -1   2    8.44    0.47
   5  -1   2    8.37    0.44
   5  -1   2    7.75    0.46
   5  -1   2    7.89    0.43
   5  -1   2    7.96    0.49
   5  -1   2    7.89    0.47
   5  -1   2    7.93    0.44
   6  -1   2   26.63    1.00
   6  -1   2   25.75    1.00
   6  -1   2   27.00    1.01
   6  -1   2   26.89    1.01
   6  -1   2   24.96    1.00
   7  -1   2    0.10    0.13
   7  -1   2    0.21    0.13
   7  -1   2    0.23    0.14
   7  -1   2   -0.14    0.12
   7  -1   2    0.00    0.14
   8  -1   2    5.66    0.33
   8  -1   2    5.58    0.33
   8  -1   2    6.08    0.32
   8  -1   2    5.74    0.32
   9  -1   2    2.33    0.19
   9  -1   2    2.53    0.19
   9  -1   2    2.24    0.17
   9   0  -2    0.31    0.14
   9   0  -2    0.04    0.08
   9   0  -2    0.24    0.08
   9   0  -2    0.22    0.09
   8   0  -2    8.93    0.43
   8   0  -2    8.40    0.42
   8   0  -2    8.31    0.42
   8   0  -2    8.35    0.42
   7   0  -2   15.95    0.67
   7   0  -2   16.17    0.69
   7   0  -2   16.50    0.70
   7   0  -2   16.41    0.69
   7   0  -2   16.51    0.71
   6   0  -2    5.42    0.38
   6   0  -2    5.55    0.36
   6   0  -2    5.30    0.36
   6   0  -2    5.10    0.44
   6   0  -2    5.38    0.36
   5   0  -2    6.40    0.43
   5   0  -2    6.49    0.37
   5   0  -2    6.34    0.43
   5   0  -2    5.84    0.40
   5   0  -2    6.86    0.44
  -5   0   2    6.05    0.36
   4   0  -2   23.58    0.85
  -4   0   2   23.48    0.85
   3   0  -2   23.60    0.82
   3   0  -2   24.28    0.78
  -3   0   2   22.97    0.83
  -3   0   2   24.15    0.79
   2   0  -2   28.82    0.95
  -2   0   2   27.12    0.95
  -2   0   2   29.27    0.96
   1   0  -2    6.35    0.23
  -1   0   2    6.46    0.23
   0   0  -2   29.75    0.96
   0   0  -2   29.28    0.96
   0   0   2   28.54    0.96
   0   0   2   30.22    0.96
   0   0   2   29.77    0.97
  -1   0  -2  900.43   29.29
  -1   0  -2  871.53   29.30
   1   0   2 1000.00   29.34
   1   0   2  890.94   29.20
   2   0   2  147.75    4.75
   3   0   2    0.12    0.06
   3   0   2    0.04    0.06
   4   0   2    1.55    0.17
   4   0   2    1.49    0.16
   5   0   2    3.15    0.35
   5   0   2    2.67    0.35
   5   0   2    2.12    0.34
   5   0   2    3.03    0.30
   5   0   2    2.35    0.31
   5   0   2    2.51    0.29
   6   0   2    2.89    0.29
   6   0   2    2.74    0.28
   6   0   2    2.11    0.32
   6   0   2    2.57    0.31
   6   0   2    2.35    0.29
   7   0   2    1.42    0.25
   7   0   2    1.12    0.23
   7   0   2    1.22    0.24
   7   0   2    1.64    0.25
   7   0   2    1.53    0.30
   8   0   2    5.56    0.33
   8   0   2    5.30    0.32
   8   0   2    5.50    0.31
   8   0   2    5.27    0.31
   9   0   2    0.15    0.08
   9   0   2    0.07    0.08
   9  -1  -2    0.19    0.11
   9  -1  -2    0.00    0.07
   9  -1  -2   -0.08    0.07
   9  -1  -2   -0.07    0.08
  -9   1   2    0.12    0.10
   8  -1  -2   11.97    0.52
   8  -1  -2   11.08    0.52
   8  -1  -2   11.56    0.52
   8  -1  -2   11.76    0.52
   7  -1  -2   24.31    0.92
   7  -1  -2   24.54    0.94
   7  -1  -2   23.65    0.94
   7  -1  -2   24.62    0.94
   7  -1  -2   23.72    0.94
   6  -1  -2   12.27    0.57
   6  -1  -2   12.83    0.57
   6  -1  -2   10.94    0.58
   6  -1  -2   12.12    0.57
   6  -1  -2   12.44    0.55
   5  -1  -2    4.59    0.32
   5  -1  -2    5.29    0.44
   5  -1  -2    5.10    0.38
   5  -1  -2    5.30    0.36
   5  -1  -2    5.02    0.35
   5  -1  -2    5.38    0.42
  -5   1   2    5.07    0.34
   4  -1  -2   98.39    3.27
  -4   1   2  100.74    3.27
   3  -1  -2   11.06    0.43
   3  -1  -2   12.03    0.39
  -3   1   2   10.69    0.40
  -3   1   2   11.32    0.44
   2  -1  -2  141.82    4.18
   2  -1  -2  128.75    4.19
  -2   1   2  128.80    4.16
  -2   1   2  121.70    4.20
   1  -1  -2    1.62    0.07
   1  -1  -2    1.58    0.07
   1  -1  -2    1.55    0.11
   1  -1  -2    1.81    0.10
  -1   1   2    1.68    0.10
  -1   1   2    1.49    0.11
   0  -1  -2    0.72    0.06
   0  -1  -2    0.82    0.07
   0  -1  -2    0.71    0.06
   0   1   2    0.84    0.05
   0   1   2    0.76    0.06
  -1  -1  -2    0.01    0.03
  -1  -1  -2    0.25    0.08
  -1  -1  -2    0.03    0.03
   1   1   2    0.05    0.04
   1   1   2    0.04    0.02
   2   1   2   -0.02    0.04
   3   1   2   22.53    0.79
   4   1   2    0.78    0.15
   5   1   2    1.04    0.20
   5   1   2    0.70    0.24
   5   1   2    1.22    0.28
   5   1   2    1.21    0.29
   5   1   2    0.74    0.19
   5   1   2    1.26    0.31
   6   1   2    5.45    0.37
   6   1   2    5.06    0.37
   6   1   2    5.23    0.41
   6   1   2    5.24    0.36
   6   1   2    6.16    0.39
   7   1   2   10.48    0.52
   7   1   2   10.02    0.51
   7   1   2   10.64    0.51
   7   1   2   10.95    0.51
   7   1   2   11.12    0.52
   8   1   2    2.99    0.25
   8   1   2    2.69    0.28
   8   1   2    3.02    0.25
   8   1   2    2.84    0.23
  -9  -1  -2    6.97    0.31
   9   1   2    7.24    0.31
   9   1   2    7.48    0.32
   9   1   2    7.38    0.31
   9  -2  -2    3.72    0.21
   9  -2  -2    3.30    0.22
   9  -2  -2    3.42    0.20
   9  -2  -2    3.54    0.22
  -9   2   2    3.18    0.20
   8  -2  -2    6.37    0.34
   8  -2  -2    5.88    0.35
   8  -2  -2    6.46    0.35
   8  -2  -2    6.41    0.36
   7  -2  -2    0.03    0.13
   7  -2  -2    0.13    0.15
   7  -2  -2    0.03    0.13
   7  -2  -2    0.06    0.11
   6  -2  -2    1.29    0.24
   6  -2  -2    1.08    0.28
   6  -2  -2    1.30    0.27
   6  -2  -2    1.02    0.25
   5  -2  -2    0.33    0.20
   5  -2  -2    0.32    0.19
   5  -2  -2    0.61    0.21
   5  -2  -2    0.09    0.15
   5  -2  -2    0.34    0.19
   5  -2  -2    0.37    0.14
  -5   2   2    0.28    0.18
   4  -2  -2    3.70    0.23
  -4   2   2    3.82    0.25
   3  -2  -2   57.35    1.71
   3  -2  -2   52.81    1.75
  -3   2   2   52.08    1.75
  -3   2   2   47.02    1.72
   2  -2  -2  156.84    5.40
   2  -2  -2  185.03    5.40
  -2   2   2  162.28    5.41
   1  -2  -2    1.07    0.10
   1  -2  -2    0.97    0.07
   1  -2  -2    0.98    0.09
  -1   2   2    0.98    0.09
   0  -2  -2   24.26    0.88
   0  -2  -2   27.77    0.88
   0  -2  -2   25.75    0.87
  -1  -2  -2   30.35    1.09
  -1  -2  -2   31.37    1.10
   1   2   2   33.27    1.10
   1   2   2   36.61    1.09
  -2  -2  -2    4.97    0.20
  -2  -2  -2    5.00    0.23
   2   2   2    4.76    0.22
  -3  -2  -2   44.80    1.52
   3   2   2   44.86    1.51
   4   2   2   -0.04    0.09
   5   2   2    4.43    0.36
   5   2   2    4.22    0.35
   5   2   2    4.47    0.42
   5   2   2    4.34    0.35
   5   2   2    3.67    0.37
   6   2   2    0.24    0.14
   6   2   2    0.33    0.15
   6   2   2    0.34    0.15
   6   2   2    0.38    0.21
   6   2   2    0.43    0.17
   7   2   2    1.94    0.24
   7   2   2    2.04    0.29
   7   2   2    2.10    0.25
   7   2   2    2.32    0.27
   7   2   2    2.02    0.29
   8   2   2    9.05    0.42
   8   2   2    9.00    0.41
   8   2   2    9.34    0.43
   8   2   2    9.61    0.43
   9   2   2    0.46    0.12
   9   2   2    0.66    0.14
   9  -3  -2   -0.08    0.07
   9  -3  -2    0.02    0.09
  -9   3   2   -0.12    0.07
   8  -3  -2    0.17    0.11
   8  -3  -2    0.11    0.10
   8  -3  -2    0.20    0.11
   8  -3  -2    0.21    0.13
   7  -3  -2    3.79    0.31
   7  -3  -2    3.67    0.32
   7  -3  -2    3.31    0.29
   7  -3  -2    3.31    0.30
   6  -3  -2    1.64    0.30
   6  -3  -2    1.49    0.28
   6  -3  -2    1.72    0.28
   6  -3  -2    2.05    0.32
  -6   3   2    1.51    0.32
   5  -3  -2    7.50    0.44
   5  -3  -2    7.38    0.46
   5  -3  -2    7.56    0.47
   5  -3  -2    7.38    0.44
   5  -3  -2    7.65    0.41
   5  -3  -2    7.56    0.52
  -5   3   2    7.24    0.48
  -5   3   2    6.19    0.46
   3  -3  -2   20.14    0.75
   3  -3  -2   20.78    0.72
  -3   3   2   20.33    0.76
   2  -3  -2   85.69    2.89
   2  -3  -2   88.57    2.86
  -2   3   2   90.78    2.90
   1  -3  -2  219.16    7.02
   1  -3  -2  215.44    7.04
  -1   3   2  222.41    7.04
   0  -3  -2    0.27    0.08
   0  -3  -2    0.14    0.06
   0   3   2    0.24    0.07
  -1  -3  -2    1.00    0.11
   1   3   2    1.15    0.10
  -2  -3  -2    2.72    0.18
   2   3   2    2.99    0.16
  -3  -3  -2   31.98    1.13
   3   3   2   31.85    1.13
   3   3   2   31.82    1.14
  -4  -3  -2   28.66    1.05
   4   3   2   28.65    1.06
   4   3   2   26.87    1.05
   4   3   2   27.45    1.03
   4   3   2   28.44    1.07
   4   3   2   28.27    1.04
   4   3   2   27.52    1.06
   5   3   2    1.03    0.30
   5   3   2    0.85    0.28
   5   3   2    0.63    0.34
   5   3   2    0.82    0.19
   5   3   2    0.90    0.30
   6   3   2   28.06    1.06
   6   3   2   26.62    1.04
   6   3   2   27.33    1.05
   6   3   2   28.16    1.04
   7   3   2   21.94    0.83
   7   3   2   21.98    0.84
   7   3   2   20.83    0.84
   7   3   2   21.14    0.84
   8   3   2    0.19    0.10
   8   3   2    0.47    0.13
   8   3   2    0.35    0.10
   8   3   2    0.71    0.18
   8  -4  -2    6.94    0.34
   8  -4  -2    6.91    0.34
  -8   4   2    6.83    0.32
   7  -4  -2   10.82    0.50
   7  -4  -2   10.54    0.48
   7  -4  -2   10.57    0.49
   6  -4  -2   81.07    2.69
   6  -4  -2   79.44    2.70
   6  -4  -2   81.06    2.70
  -6   4   2   78.04    2.68
   5  -4  -2   31.03    1.16
   5  -4  -2   31.08    1.16
   5  -4  -2   31.63    1.17
  -5   4   2   31.70    1.14
  -5   4   2   29.59    1.29
   4  -4  -2    5.05    0.42
   4  -4  -2    4.91    0.35
   4  -4  -2    5.37    0.38
  -4   4   2    5.13    0.36
  -4   4   2    4.97    0.36
   3  -4  -2    1.21    0.19
   3  -4  -2    1.00    0.19
  -3   4   2    0.94    0.18
   2  -4  -2    1.62    0.15
   2  -4  -2    1.79    0.17
  -2   4   2    1.60    0.17
   1  -4  -2    7.17    0.31
   1  -4  -2    7.15    0.33
  -1   4   2    7.13    0.33
   0  -4  -2   76.18    2.47
   0  -4  -2   76.92    2.49
   0   4   2   76.26    2.50
   0   4   2   71.54    2.48
  -1  -4  -2   70.21    2.33
  -1  -4  -2   70.51    2.34
   1   4   2   70.99    2.35
   1   4   2   69.89    2.33
  -2  -4  -2   89.89    2.96
   2   4   2   87.03    2.96
   2   4   2   91.33    2.93
  -3  -4  -2    1.63    0.22
   3   4   2    0.98    0.20
   3   4   2    0.37    0.37
   3   4   2    1.14    0.23
   3   4   2    1.27    0.34
  -4  -4  -2    0.15    0.18
   4   4   2    0.51    0.22
   4   4   2    0.14    0.18
   4   4   2   -0.07    0.16
   4   4   2    0.01    0.15
   4   4   2    0.15    0.17
   5   4   2   14.45    0.64
   5   4   2   13.59    0.64
   5   4   2   13.62    0.63
   5   4   2   13.98    0.64
   6   4   2   17.74    0.74
   6   4   2   18.07    0.74
   6   4   2   17.35    0.73
   6   4   2   17.09    0.72
   7   4   2   -0.10    0.11
   7   4   2   -0.03    0.10
   7   4   2   -0.11    0.12
   7   4   2    0.09    0.11
   8   4   2    2.93    0.20
   8   4   2    2.84    0.20
   8   4   2    2.94    0.24
   8   4   2    2.59    0.23
   8  -5  -2    0.18    0.11
   8  -5  -2    0.10    0.09
  -8   5   2    0.16    0.07
   7  -5  -2    0.72    0.18
   7  -5  -2    0.42    0.13
  -7   5   2    0.77    0.17
   6  -5  -2   16.63    0.70
   6  -5  -2   16.63    0.69
   6  -5  -2   15.74    0.69
  -6   5   2   16.73    0.69
   5  -5  -2    5.19    0.36
   5  -5  -2    4.98    0.38
  -5   5   2    5.05    0.34
   4  -5  -2   -0.23    0.35
   4  -5  -2    0.54    0.21
   4  -5  -2    0.43    0.16
  -4   5   2    0.49    0.14
  -4   5   2    0.36    0.25
   3  -5  -2    3.15    0.33
   3  -5  -2    3.59    0.33
   3  -5  -2    3.61    0.45
  -3   5   2    2.99    0.49
  -3   5   2    3.35    0.32
  -3   5   2    3.48    0.30
   2  -5  -2   41.20    1.54
   2  -5  -2   46.91    1.57
  -2   5   2   45.38    1.58
  -2   5   2   46.00    1.56
  -2   5   2   44.76    1.57
   1  -5  -2   13.18    0.52
  -1   5   2   12.02    0.54
  -1   5   2   12.63    0.55
   0  -5  -2    2.51    0.20
   0  -5  -2    2.41    0.21
   0   5   2    2.19    0.25
   0   5   2    2.42    0.21
  -1  -5  -2    2.17    0.23
  -1  -5  -2    2.24    0.21
   1   5   2    2.40    0.21
   1   5   2    2.26    0.24
  -2  -5  -2   31.82    1.15
  -2  -5  -2   31.53    1.14
   2   5   2   31.44    1.16
   2   5   2   32.48    1.14
   2   5   2   30.31    1.13
   2   5   2   29.86    1.16
  -3  -5  -2    1.71    0.31
  -3  -5  -2    0.96    0.32
   3   5   2    1.07    0.22
   3   5   2    0.93    0.28
   3   5   2    0.90    0.27
   3   5   2    0.97    0.23
   4   5   2    0.05    0.13
   4   5   2    0.05    0.18
   4   5   2   -0.01    0.15
   4   5   2    0.90    0.26
   5   5   2    0.75    0.18
   5   5   2    0.86    0.25
   5   5   2    0.66    0.18
   6   5   2    0.23    0.13
   6   5   2   -0.03    0.17
   6   5   2    0.31    0.13
   6   5   2    0.11    0.13
   7   5   2    0.13    0.10
   7   5   2   -0.10    0.09
   7   5   2    0.11    0.10
   8   5   2    1.18    0.15
   8   5   2    0.76    0.14
   7  -6  -2    0.36    0.10
  -7   6   2    0.61    0.14
   6  -6  -2   21.52    0.81
   6  -6  -2   19.09    0.79
  -6   6   2   20.67    0.78
  -6   6   2   20.79    0.78
   5  -6  -2    7.26    0.41
   5  -6  -2    7.18    0.46
  -5   6   2    6.99    0.40
  -5   6   2    7.06    0.38
   4  -6  -2    7.74    0.43
   4  -6  -2    7.02    0.51
  -4   6   2    7.59    0.40
  -4   6   2    7.22    0.40
   3  -6  -2    2.82    0.46
  -3   6   2    3.23    0.33
  -3   6   2    3.02    0.42
  -3   6   2    3.28    0.27
   2  -6  -2    2.13    0.39
   2  -6  -2    2.52    0.48
   2  -6  -2    1.92    0.33
  -2   6   2    3.04    0.41
  -2   6   2    2.00    0.36
  -2   6   2    1.89    0.42
  -2   6   2    2.41    0.25
  -2   6   2    2.41    0.34
   1  -6  -2    0.86    0.29
   1  -6  -2    0.64    0.20
  -1   6   2    0.55    0.18
  -1   6   2    0.83    0.24
  -1   6   2    0.55    0.16
  -1   6   2    0.57    0.18
  -1   6   2    0.32    0.18
   0  -6  -2    0.49    0.21
   0  -6  -2    0.49    0.20
   0   6   2    0.62    0.21
   0   6   2    0.60    0.19
   0   6   2    0.19    0.19
   0   6   2    0.41    0.15
   0   6   2    0.42    0.18
  -1  -6  -2   23.99    1.00
  -1  -6  -2   26.27    1.02
   1   6   2   25.46    1.04
   1   6   2   26.33    0.99
   1   6   2   27.32    0.99
   1   6   2   26.36    1.00
   1   6   2   26.12    1.00
  -2  -6  -2    0.30    0.20
  -2  -6  -2    1.38    0.34
   2   6   2    1.35    0.43
   2   6   2    0.57    0.16
   2   6   2    0.58    0.17
   2   6   2    0.65    0.16
   3   6   2   11.04    0.52
   3   6   2   10.68    0.53
   3   6   2   10.10    0.53
   4   6   2    1.43    0.27
   4   6   2    1.90    0.31
   4   6   2    1.92    0.28
   4   6   2    2.06    0.27
   5   6   2    0.82    0.23
   5   6   2    1.09    0.25
   5   6   2    1.17    0.24
   5   6   2    0.81    0.20
   6   6   2    8.53    0.40
   6   6   2    8.58    0.41
   6   6   2    8.21    0.41
   7   6   2    0.40    0.11
   7   6   2    0.20    0.10
   7   6   2    0.01    0.09
   7  -7  -2    0.12    0.08
  -7   7   2   -0.03    0.07
   6  -7  -2    4.82    0.28
  -6   7   2    4.75    0.26
  -6   7   2    4.64    0.28
   5  -7  -2    3.37    0.27
  -5   7   2    3.84    0.27
  -5   7   2    3.68    0.27
   4  -7  -2   26.88    1.02
  -4   7   2   26.78    1.01
  -4   7   2   27.28    1.00
   3  -7  -2   20.32    0.82
  -3   7   2   20.48    0.80
  -3   7   2   19.64    0.80
  -2   7   2   43.06    1.53
  -2   7   2   43.00    1.54
  -2   7   2   43.42    1.55
  -1   7   2    4.33    0.38
  -1   7   2    4.14    0.30
  -1   7   2    3.97    0.33
   0   7   2   35.66    1.33
   0   7   2   36.95    1.33
   0   7   2   37.19    1.34
   0   7   2   36.22    1.32
   1   7   2   10.41    0.52
   1   7   2   10.09    0.49
   1   7   2    9.90    0.48
   1   7   2    9.37    0.51
   2   7   2   19.75    0.81
   2   7   2   19.02    0.80
   2   7   2   19.91    0.80
   3   7   2    0.97    0.23
   3   7   2    0.77    0.18
   3   7   2    1.02    0.25
   4   7   2    4.22    0.32
   4   7   2    3.62    0.30
   4   7   2    3.52    0.31
   5   7   2    4.20    0.29
   5   7   2    4.57    0.35
   5   7   2    4.53    0.29
   6   7   2    0.41    0.11
   6   7   2    0.32    0.09
   6  -8  -2    0.00    0.08
  -6   8   2    0.12    0.13
  -6   8   2    0.01    0.08
   5  -8  -2    0.12    0.09
  -5   8   2    0.12    0.09
  -5   8   2    0.19    0.10
   4  -8  -2    0.26    0.11
   4  -8  -2    0.19    0.17
  -4   8   2    0.04    0.10
  -4   8   2    0.00    0.13
   3  -8  -2    6.37    0.38
  -3   8   2    6.60    0.36
  -2   8   2   14.71    0.64
  -2   8   2   14.47    0.62
  -1   8   2    5.17    0.36
  -1   8   2    5.10    0.35
  -1   8   2    5.11    0.33
   0   8   2    0.81    0.25
   0   8   2    1.22    0.21
   0   8   2    1.12    0.25
   1   8   2   21.06    0.86
   1   8   2   21.81    0.84
   1   8   2   21.85    0.86
   1   8   2   22.09    0.86
   2   8   2    0.27    0.15
   2   8   2    0.12    0.12
   2   8   2    0.17    0.12
   2   8   2    0.01    0.19
   3   8   2    9.46    0.45
   3   8   2    8.49    0.45
   3   8   2    9.72    0.45
   4   8   2    8.91    0.44
   4   8   2    9.04    0.42
   4   8   2    8.68    0.41
   5   8   2   15.77    0.60
   5   8   2   16.42    0.65
   5   8   2   15.83    0.60
   5  -9  -2    1.81    0.15
  -5   9   2    1.49    0.15
   4  -9  -2    0.25    0.08
  -4   9   2    0.07    0.08
   3  -9  -2    0.19    0.11
  -3   9   2    0.21    0.09
   2  -9  -2    2.00    0.22
  -2   9   2    2.53    0.20
  -1   9   2   -0.01    0.09
  -1   9   2   -0.05    0.17
  -1   9   2    0.03    0.11
   0   9   2    0.23    0.11
   0   9   2    0.27    0.14
   0   9   2    0.21    0.11
   1   9   2    0.28    0.13
   1   9   2    0.65    0.14
   1   9   2    0.19    0.10
   2   9   2    4.04    0.29
   2   9   2    4.31    0.27
   3   9   2    7.50    0.37
   3   9   2    7.32    0.35
   3   9   2    7.25    0.35
   4   9   2    0.07    0.09
   4   9   2    0.12    0.08
   4   9   2    0.13    0.14
   3 -10  -2    0.17    0.08
  -3  10   2    0.33    0.10
   2 -10  -2    1.99    0.17
  -2  10   2    1.74    0.15
   1 -10  -2    1.05    0.16
  -1  10   2    1.00    0.14
   0 -10  -2    0.92    0.16
   0  10   2    1.08    0.15
   0  10   2    0.98    0.23
   0  10   2    0.97    0.15
   1  10   2    0.54    0.14
   1  10   2    0.81    0.18
   1  10   2    0.64    0.19
   2  10   2   11.62    0.46
   2  10   2   12.08    0.49
   2  10  -3    8.85    0.39
   2  10  -3    9.32    0.36
   1  10  -3    3.42    0.23
   1  10  -3    2.83    0.18
   0  10  -3    2.57    0.17
   0  10  -3    2.55    0.25
  -1  10  -3    6.54    0.33
  -1  10  -3    6.97    0.30
   1 -10   3    6.90    0.30
  -2  10  -3    0.20    0.10
  -2  10  -3    0.09    0.08
   2 -10   3    0.05    0.07
   4   9  -3   -0.03    0.12
   4   9  -3   -0.08    0.12
   3   9  -3    0.02    0.10
   3   9  -3   -0.06    0.09
   2   9  -3    0.02    0.10
   2   9  -3   -0.02    0.09
   1   9  -3    0.08    0.09
   1   9  -3    0.22    0.11
   1   9  -3    0.12    0.15
   0   9  -3    5.55    0.33
   0   9  -3    5.58    0.31
   0   9  -3    6.12    0.34
  -1   9  -3    5.86    0.35
  -1   9  -3    6.39    0.33
  -1   9  -3    6.37    0.33
  -2   9  -3   11.02    0.47
  -2   9  -3   11.72    0.47
  -3   9  -3    2.57    0.21
  -3   9  -3    2.79    0.21
   3  -9   3    2.84    0.20
  -4   9  -3   -0.01    0.07
   4  -9   3    0.04    0.07
   5   8  -3   -0.35    0.21
   4   8  -3    9.57    0.42
   4   8  -3    8.85    0.43
   3   8  -3    0.84    0.21
   3   8  -3    0.74    0.18
   3   8  -3    1.08    0.21
   2   8  -3    5.03    0.31
   2   8  -3    4.76    0.33
   2   8  -3    5.50    0.37
   1   8  -3   16.68    0.74
   1   8  -3   18.00    0.73
   1   8  -3   18.94    0.73
   1   8  -3   18.38    0.74
   0   8  -3   30.85    1.13
   0   8  -3   29.47    1.14
   0   8  -3   30.85    1.12
   0   8  -3   31.02    1.14
  -1   8  -3   20.59    0.79
  -1   8  -3   19.83    0.78
  -1   8  -3   18.96    0.80
  -2   8  -3    9.18    0.51
  -2   8  -3    9.96    0.46
  -2   8  -3    9.38    0.45
  -3   8  -3    0.63    0.18
  -3   8  -3    0.36    0.14
   3  -8   3    0.34    0.10
  -4   8  -3    5.46    0.30
   4  -8   3    5.07    0.29
  -5   8  -3   -0.01    0.08
   5  -8   3    0.01    0.08
   5   7  -3    0.11    0.15
   5   7  -3    0.23    0.16
   4   7  -3    2.03    0.26
   4   7  -3    1.88    0.25
   3   7  -3    0.28    0.14
   3   7  -3    0.11    0.18
   3   7  -3    0.54    0.17
   3   7  -3    0.20    0.15
   2   7  -3    3.68    0.35
   2   7  -3    4.03    0.31
   2   7  -3    3.36    0.34
   2   7  -3    4.19    0.32
   1   7  -3    0.89    0.28
   1   7  -3    0.34    0.17
   1   7  -3    0.32    0.16
   0   7  -3    4.31    0.33
   0   7  -3    4.50    0.36
   0   7  -3    4.91    0.38
   0   7  -3    4.95    0.35
  -1   7  -3   16.88    0.69
  -1   7  -3   16.56    0.70
  -1   7  -3   16.83    0.71
  -2   7  -3    5.54    0.41
  -2   7  -3    4.91    0.35
  -2   7  -3    4.36    0.34
  -3   7  -3    1.62    0.24
  -3   7  -3    1.76    0.28
  -4   7  -3    2.28    0.26
   4  -7   3    3.26    0.37
   4  -7   3    2.52    0.26
  -5   7  -3    1.21    0.19
   5  -7   3    1.77    0.29
   5  -7   3    1.09    0.19
  -6   7  -3    2.47    0.19
   6  -7   3    1.64    0.30
   6  -7   3    2.33    0.18
   5   6  -3    0.08    0.18
   5   6  -3   -0.20    0.17
   4   6  -3    5.38    0.38
   4   6  -3    5.81    0.37
   3   6  -3    0.60    0.16
   3   6  -3    0.44    0.16
   3   6  -3    0.61    0.17
   3   6  -3    0.44    0.20
   2   6  -3    0.56    0.20
   2   6  -3    0.53    0.17
   2   6  -3    1.22    0.32
   2   6  -3    0.53    0.15
  -2  -6   3    0.49    0.32
   1   6  -3    5.34    0.34
   1   6  -3    5.89    0.42
   1   6  -3    5.64    0.40
   1   6  -3    5.54    0.48
   1   6  -3    5.83    0.36
  -1  -6   3    5.98    0.44
   0   6  -3    1.21    0.25
   0   6  -3    1.31    0.33
   0   6  -3    0.79    0.21
   0   6  -3    1.29    0.31
   0   6  -3    1.10    0.22
   0  -6   3    1.00    0.30
  -1   6  -3    5.97    0.37
  -1   6  -3    5.70    0.38
  -1   6  -3    5.80    0.41
  -1   6  -3    5.34    0.48
  -1   6  -3    5.97    0.38
   1  -6   3    6.12    0.47
  -2   6  -3   -0.06    0.15
  -2   6  -3    0.02    0.16
  -2   6  -3    0.17    0.13
  -3   6  -3   10.02    0.53
  -3   6  -3   10.59    0.50
   3  -6   3   10.01    0.59
  -4   6  -3    0.24    0.18
  -4   6  -3    0.18    0.13
   4  -6   3    0.23    0.12
   4  -6   3    0.32    0.20
  -5   6  -3    4.92    0.32
  -5   6  -3    4.53    0.31
   5  -6   3    4.54    0.35
   5  -6   3    4.59    0.30
  -6   6  -3    0.63    0.18
  -6   6  -3    0.61    0.18
   6  -6   3    0.98    0.24
   6  -6   3    0.75    0.18
  -7   6  -3    0.62    0.16
  -7   6  -3    0.61    0.17
   7  -6   3    0.58    0.15
   7  -6   3    0.70    0.20
   4   5  -3    6.41    0.44
   4   5  -3    6.34    0.41
   4   5  -3    6.48    0.40
   3   5  -3    4.77    0.42
   3   5  -3    4.17    0.31
   3   5  -3    4.04    0.32
  -3  -5   3    4.31    0.42
   2   5  -3   56.95    2.04
   2   5  -3   60.39    2.04
   2   5  -3   61.72    2.05
  -2  -5   3   59.69    2.02
   1   5  -3    2.19    0.31
   1   5  -3    3.02    0.27
   1   5  -3    2.42    0.36
   1   5  -3    3.06    0.27
  -1  -5   3    2.93    0.25
   0   5  -3   16.34    0.68
   0   5  -3   15.93    0.68
   0   5  -3   17.06    0.66
   0   5  -3   15.78    0.68
   0  -5   3   16.58    0.65
  -1   5  -3    3.36    0.28
  -1   5  -3    2.95    0.33
  -1   5  -3    2.92    0.36
  -1   5  -3    3.54    0.30
  -1   5  -3    3.67    0.33
   1  -5   3    3.50    0.28
  -2   5  -3   19.49    0.78
  -2   5  -3   19.69    0.82
  -2   5  -3   19.57    0.81
  -2   5  -3   19.51    0.80
  -2   5  -3   20.69    0.79
   2  -5   3   19.77    0.79
  -3   5  -3    8.11    0.53
  -3   5  -3    7.37    0.41
  -3   5  -3    7.36    0.45
   3  -5   3    6.67    0.54
   3  -5   3    7.44    0.47
  -4   5  -3   13.36    0.56
  -4   5  -3   12.75    0.58
   4  -5   3   12.00    0.62
   4  -5   3   12.03    0.57
  -5   5  -3    0.84    0.23
  -5   5  -3    0.61    0.14
   5  -5   3    0.59    0.18
   5  -5   3    0.78    0.24
  -6   5  -3    2.24    0.24
  -6   5  -3    2.18    0.23
   6  -5   3    1.67    0.27
   6  -5   3    1.95    0.24
  -7   5  -3    1.63    0.19
  -7   5  -3    1.27    0.17
   7  -5   3    1.22    0.18
   7  -5   3    1.33    0.19
   8   4  -3   -0.12    0.11
   8   4  -3    0.07    0.14
   7   4  -3    1.09    0.25
   7   4  -3    1.03    0.22
   6   4  -3    0.92    0.29
   6   4  -3    0.83    0.18
   5   4  -3   27.21    1.08
   5   4  -3   27.63    1.07
   5   4  -3   29.47    1.09
   5   4  -3   29.22    1.08
   4   4  -3    0.87    0.20
   4   4  -3    0.96    0.21
   4   4  -3    1.06    0.30
   4   4  -3    1.05    0.25
  -4  -4   3    1.21    0.34
   3   4  -3   15.67    0.67
   3   4  -3   15.81    0.75
  -3  -4   3   16.11    0.63
   2   4  -3   31.15    1.12
  -2  -4   3   30.74    1.07
   1   4  -3  192.09    6.30
   1   4  -3  202.37    6.29
  -1  -4   3  188.27    6.26
   0   4  -3   -0.02    0.12
   0   4  -3   -0.04    0.08
   0  -4   3    0.01    0.08
  -1   4  -3    8.57    0.39
  -1   4  -3    8.11    0.41
   1  -4   3    8.42    0.37
  -2   4  -3   25.62    0.93
  -2   4  -3   24.26    0.91
   2  -4   3   24.34    0.90
  -3   4  -3   13.05    0.58
  -3   4  -3   13.37    0.59
   3  -4   3   12.86    0.57
  -4   4  -3   12.86    0.58
   4  -4   3   13.31    0.64
   4  -4   3   12.26    0.65
   4  -4   3   13.95    0.59
  -5   4  -3   44.52    1.60
   5  -4   3   47.31    1.63
   5  -4   3   45.80    1.61
  -6   4  -3    3.14    0.30
   6  -4   3    3.38    0.29
   6  -4   3    3.65    0.34
  -7   4  -3    1.89    0.26
   7  -4   3    1.55    0.23
   7  -4   3    1.75    0.21
  -8   4  -3    1.52    0.15
   8  -4   3    0.94    0.22
   8  -4   3    1.46    0.16
   8   3  -3    4.73    0.28
   8   3  -3    4.37    0.27
   8   3  -3    4.45    0.30
   7   3  -3    2.44    0.27
   7   3  -3    2.29    0.30
   7   3  -3    2.29    0.26
   6   3  -3   19.67    0.79
   6   3  -3   18.60    0.77
   6   3  -3   19.98    0.78
   6   3  -3   17.89    0.77
   5   3  -3   28.66    1.10
   5   3  -3   28.42    1.13
   5   3  -3   29.53    1.09
   5   3  -3   29.58    1.10
   5   3  -3   28.16    1.09
  -5  -3   3   29.44    1.19
   4   3  -3    4.54    0.41
   4   3  -3    4.86    0.42
   4   3  -3    4.62    0.41
  -4  -3   3    5.67    0.35
   3   3  -3    0.48    0.15
  -3  -3   3    0.51    0.14
  -3  -3   3    0.16    0.09
  -3  -3   3    0.25    0.09
   2   3  -3  133.32    4.37
  -2  -3   3  139.52    4.29
  -2  -3   3  129.43    4.32
  -1  -3   3   12.81    0.47
   0   3  -3    4.79    0.24
   0  -3   3    4.99    0.22
  -1   3  -3   44.81    1.47
   1  -3   3   42.31    1.46
  -2   3  -3   15.09    0.57
   2  -3   3   15.06    0.58
   2  -3   3   15.39    0.54
  -3   3  -3    8.42    0.38
   3  -3   3    8.07    0.38
   3  -3   3    8.02    0.36
  -4   3  -3    0.03    0.17
   4  -3   3    0.20    0.19
   4  -3   3    0.32    0.15
   4  -3   3    0.57    0.22
   4  -3   3    0.46    0.19
  -5   3  -3    9.67    0.50
   5  -3   3   10.05    0.50
   5  -3   3    7.94    0.47
   5  -3   3    9.26    0.54
  -6   3  -3   15.18    0.66
   6  -3   3   14.59    0.67
   6  -3   3   15.53    0.66
   6  -3   3   15.93    0.67
  -7   3  -3   -0.08    0.17
   7  -3   3    0.05    0.16
   7  -3   3    0.02    0.10
  -8   3  -3    0.15    0.08
   8  -3   3    0.17    0.09
   8  -3   3    0.28    0.11
   9   2  -3    4.98    0.26
   9   2  -3    5.31    0.25
   9   2  -3    5.05    0.25
   8   2  -3   21.51    0.82
   8   2  -3   22.31    0.82
   8   2  -3   21.51    0.82
   7   2  -3   17.55    0.71
   7   2  -3   17.75    0.73
   7   2  -3   18.23    0.74
   7   2  -3   17.26    0.72
   6   2  -3    5.22    0.35
   6   2  -3    5.35    0.36
   6   2  -3    4.87    0.41
   6   2  -3    5.17    0.38
   5   2  -3    1.67    0.30
   5   2  -3    1.21    0.28
   5   2  -3    2.04    0.37
   5   2  -3    1.49    0.24
   5   2  -3    1.04    0.32
  -5  -2   3    1.81    0.34
   4   2  -3    2.28    0.20
  -4  -2   3    2.31    0.23
   3   2  -3   44.39    1.51
  -3  -2   3   45.42    1.57
  -3  -2   3   47.36    1.49
  -2  -2   3   39.43    1.33
  -2  -2   3   38.76    1.33
  -2  -2   3   43.18    1.32
  -1  -2   3   37.16    1.22
   0  -2   3   64.09    2.09
  -1   2  -3   98.76    3.20
  -1   2  -3  100.94    3.17
   1  -2   3   97.06    3.20
  -2   2  -3   17.84    0.61
   2  -2   3   18.18    0.60
   2  -2   3   15.78    0.62
   3  -2   3    0.30    0.09
   3  -2   3    0.29    0.09
   4  -2   3    2.89    0.33
   4  -2   3    3.18    0.26
   4  -2   3    3.04    0.25
  -5   2  -3    0.52    0.22
   5  -2   3    0.64    0.15
   5  -2   3    0.64    0.27
   5  -2   3    0.66    0.19
   5  -2   3    0.67    0.19
   5  -2   3    0.93    0.25
  -6   2  -3    3.64    0.40
   6  -2   3    4.37    0.39
   6  -2   3    3.69    0.33
   6  -2   3    3.87    0.35
   6  -2   3    4.30    0.33
   7  -2   3    2.20    0.27
   7  -2   3    3.42    0.30
   7  -2   3    3.16    0.28
   8  -2   3    2.13    0.22
   8  -2   3    1.84    0.19
   8  -2   3    2.22    0.22
   8  -2   3    1.82    0.28
   9   1  -3    1.44    0.15
   9   1  -3    1.25    0.15
   9   1  -3    1.62    0.16
   8   1  -3   11.51    0.50
   8   1  -3   10.99    0.49
   8   1  -3   11.27    0.50
   8   1  -3   11.43    0.50
   7   1  -3   23.74    0.92
   7   1  -3   23.15    0.92
   7   1  -3   24.07    0.93
   7   1  -3   23.96    0.91
   6   1  -3   14.78    0.62
   6   1  -3   14.23    0.63
   6   1  -3   13.41    0.62
   6   1  -3   13.18    0.62
   5   1  -3    0.11    0.17
   5   1  -3   -0.01    0.15
   5   1  -3    0.40    0.19
   5   1  -3    0.03    0.16
   5   1  -3    0.21    0.18
   5   1  -3    0.35    0.17
  -5  -1   3    0.26    0.17
   4   1  -3   59.95    2.05
  -4  -1   3   62.83    2.08
   3   1  -3   66.13    2.13
  -3  -1   3   63.98    2.17
   2   1  -3    8.66    0.30
  -2  -1   3    7.51    0.33
  -2  -1   3    7.95    0.31
   1   1  -3   64.82    2.02
  -1  -1   3   67.25    2.03
  -1  -1   3   60.53    2.03
  -1  -1   3   60.05    2.07
   0   1  -3   33.23    1.13
   0  -1   3   32.55    1.16
   0  -1   3   37.63    1.13
  -1   1  -3  241.73    7.77
  -1   1  -3  249.12    7.83
   1  -1   3  247.95    7.86
   1  -1   3  234.77    7.79
   2  -1   3  123.56    3.83
   2  -1   3  116.80    3.83
   2  -1   3  118.07    3.86
   3  -1   3   40.19    1.37
   4  -1   3    1.66    0.22
   5  -1   3    3.40    0.37
   5  -1   3    3.90    0.35
   5  -1   3    3.89    0.32
   5  -1   3    4.06    0.33
   5  -1   3    3.43    0.35
   5  -1   3    3.25    0.39
   6  -1   3    4.68    0.37
   6  -1   3    5.62    0.36
   6  -1   3    5.10    0.38
   6  -1   3    4.95    0.35
   7  -1   3    0.04    0.12
   7  -1   3    0.04    0.12
   7  -1   3    0.29    0.15
   7  -1   3    0.18    0.15
   8  -1   3    0.75    0.18
   8  -1   3    0.84    0.17
   8  -1   3    1.02    0.19
   8  -1   3    0.83    0.21
   9   0  -3    0.13    0.08
   9   0  -3   -0.01    0.07
   9   0  -3    0.00    0.08
   8   0  -3   14.25    0.58
   8   0  -3   12.59    0.57
   8   0  -3   13.74    0.56
   8   0  -3   13.98    0.58
   7   0  -3    0.25    0.20
   7   0  -3    0.22    0.13
   7   0  -3    0.12    0.13
   7   0  -3   -0.03    0.11
   7   0  -3    0.06    0.13
   6   0  -3   26.05    1.00
   6   0  -3   24.48    0.98
   6   0  -3   24.01    1.00
   6   0  -3   27.08    0.99
   6   0  -3   26.08    0.97
   5   0  -3   -0.14    0.18
   5   0  -3   -0.01    0.15
   5   0  -3    0.09    0.15
   5   0  -3    0.00    0.16
   5   0  -3    0.27    0.19
   5   0  -3    0.03    0.16
  -5   0   3    0.20    0.16
   4   0  -3    3.61    0.23
  -4   0   3    3.67    0.24
   3   0  -3    1.71    0.13
  -3   0   3    1.60    0.14
   2   0  -3   21.47    0.69
  -2   0   3   18.92    0.71
   1   0  -3    4.31    0.17
  -1   0   3    3.82    0.19
  -1   0   3    4.12    0.18
   0   0  -3    0.10    0.05
   0   0  -3    0.09    0.04
   0   0   3    0.09    0.04
   0   0   3    0.13    0.04
  -1   0  -3   71.13    2.25
  -1   0  -3   66.76    2.25
   1   0   3   66.55    2.25
   1   0   3   68.39    2.24
   1   0   3   74.33    2.24
   2   0   3   26.51    0.91
   3   0   3   70.63    2.33
   4   0   3   13.54    0.55
   5   0   3   10.89    0.53
   5   0   3   11.06    0.53
   5   0   3   11.27    0.59
   5   0   3   11.30    0.54
   5   0   3   11.26    0.56
   5   0   3   11.20    0.55
   6   0   3   13.00    0.60
   6   0   3   13.00    0.60
   6   0   3   12.88    0.58
   6   0   3   12.98    0.58
   6   0   3   12.91    0.58
   7   0   3    0.13    0.13
   7   0   3    0.16    0.13
   7   0   3    0.11    0.12
   7   0   3   -0.02    0.12
   8   0   3    0.92    0.17
   8   0   3    0.82    0.17
   8   0   3    1.10    0.20
   8   0   3    0.63    0.20
   9  -1  -3    0.25    0.09
   9  -1  -3    0.49    0.12
   9  -1  -3    0.14    0.08
   8  -1  -3    2.19    0.22
   8  -1  -3    1.64    0.28
   8  -1  -3    1.99    0.21
   8  -1  -3    1.86    0.23
   7  -1  -3   30.04    1.13
   7  -1  -3   31.23    1.16
   7  -1  -3   31.59    1.15
   7  -1  -3   31.59    1.16
   7  -1  -3   30.96    1.16
   6  -1  -3   20.75    0.80
   6  -1  -3   21.10    0.85
   6  -1  -3   20.93    0.82
   6  -1  -3   18.30    0.82
   5  -1  -3   -0.04    0.16
   5  -1  -3    0.13    0.26
   5  -1  -3    0.11    0.18
   5  -1  -3   -0.08    0.12
   5  -1  -3    0.00    0.15
   5  -1  -3    0.07    0.17
   5  -1  -3    0.11    0.16
  -5   1   3    0.05    0.17
   4  -1  -3    1.44    0.16
  -4   1   3    1.68    0.19
   3  -1  -3    0.72    0.10
  -3   1   3    0.77    0.13
   2  -1  -3   35.00    1.18
  -2   1   3   35.77    1.20
   1  -1  -3   14.97    0.50
   1  -1  -3   13.97    0.47
   1  -1  -3   14.60    0.47
  -1   1   3   13.24    0.51
   0  -1  -3    9.87    0.41
   0  -1  -3   11.49    0.40
   0  -1  -3   10.72    0.40
   0   1   3   10.32    0.41
   0   1   3   12.25    0.39
   0   1   3   12.62    0.41
  -1  -1  -3    9.47    0.35
   1   1   3    9.34    0.35
   1   1   3    9.27    0.33
  -2  -1  -3   48.83    1.60
   2   1   3   47.65    1.60
   3   1   3   11.04    0.45
   4   1   3   13.63    0.56
   4   1   3   13.15    0.62
   5   1   3    0.05    0.14
   5   1   3    0.08    0.20
   5   1   3    0.23    0.20
   5   1   3    0.13    0.13
   5   1   3    0.34    0.16
   5   1   3    0.08    0.14
   6   1   3    3.71    0.34
   6   1   3    3.99    0.33
   6   1   3    2.94    0.30
   6   1   3    3.61    0.34
   6   1   3    4.00    0.33
   7   1   3    0.87    0.22
   7   1   3    0.96    0.25
   7   1   3    0.97    0.21
   7   1   3    0.66    0.15
   8   1   3    1.00    0.18
   8   1   3    1.70    0.21
   8   1   3    1.18    0.18
   8   1   3    1.12    0.18
   9  -2  -3    1.94    0.17
   9  -2  -3    1.70    0.15
   9  -2  -3    1.70    0.15
  -9   2   3    1.67    0.16
   8  -2  -3    5.93    0.32
   8  -2  -3    6.00    0.33
   8  -2  -3    6.31    0.35
   8  -2  -3    5.89    0.33
   7  -2  -3   10.43    0.52
   7  -2  -3   10.88    0.51
   7  -2  -3   11.14    0.51
   7  -2  -3   10.73    0.52
   7  -2  -3   11.01    0.53
   6  -2  -3    0.15    0.13
   6  -2  -3    0.44    0.13
   6  -2  -3    0.42    0.16
   6  -2  -3    0.55    0.18
   6  -2  -3    0.21    0.18
   5  -2  -3   10.81    0.56
   5  -2  -3   10.89    0.53
   5  -2  -3   10.15    0.57
   5  -2  -3   10.54    0.50
   5  -2  -3   11.01    0.56
   5  -2  -3   10.92    0.54
  -5   2   3   10.86    0.57
   4  -2  -3   47.94    1.75
  -4   2   3   53.89    1.77
   3  -2  -3    8.37    0.36
  -3   2   3    8.27    0.38
   2  -2  -3   88.89    2.91
   2  -2  -3   90.31    2.95
   2  -2  -3   95.69    2.91
  -2   2   3   87.19    2.97
   1  -2  -3    4.82    0.18
   1  -2  -3    4.18    0.20
   1  -2  -3    4.38    0.21
  -1   2   3    4.21    0.21
   0  -2  -3   16.92    0.60
   0   2   3   16.97    0.60
  -1  -2  -3   24.57    0.84
  -1  -2  -3   22.60    0.83
   1   2   3   25.62    0.84
  -2  -2  -3   23.27    0.77
  -2  -2  -3   23.44    0.83
   2   2   3   23.05    0.82
  -3  -2  -3    3.63    0.23
   3   2   3    3.46    0.22
   3   2   3    3.83    0.31
  -4  -2  -3   -0.05    0.14
   4   2   3   -0.01    0.16
   4   2   3    0.15    0.19
   4   2   3    0.13    0.16
   4   2   3   -0.02    0.17
   4   2   3   -0.09    0.19
   4   2   3   -0.12    0.11
   5   2   3    6.66    0.42
   5   2   3    7.11    0.41
   5   2   3    6.63    0.40
   5   2   3    6.89    0.42
   6   2   3   41.18    1.48
   6   2   3   40.74    1.49
   6   2   3   42.34    1.48
   6   2   3   41.39    1.49
   7   2   3    2.72    0.28
   7   2   3    2.30    0.26
   7   2   3    2.46    0.28
   7   2   3    2.44    0.26
   8   2   3    1.74    0.18
   8   2   3    1.16    0.18
   8   2   3    1.55    0.19
   8   2   3    1.66    0.19
   9  -3  -3    0.11    0.07
  -9   3   3    0.06    0.07
   8  -3  -3    0.10    0.10
   8  -3  -3    0.38    0.13
   8  -3  -3    0.13    0.12
   8  -3  -3    0.09    0.09
   7  -3  -3    1.62    0.26
   7  -3  -3    1.51    0.24
   7  -3  -3    2.16    0.28
   7  -3  -3    1.69    0.27
   6  -3  -3    3.01    0.33
   6  -3  -3    3.21    0.30
   6  -3  -3    2.91    0.30
   6  -3  -3    3.15    0.34
   6  -3  -3    2.60    0.30
  -6   3   3    2.52    0.32
   5  -3  -3    0.83    0.19
   5  -3  -3    1.28    0.31
   5  -3  -3    0.96    0.32
   5  -3  -3    0.67    0.23
   5  -3  -3    1.19    0.30
  -5   3   3    0.92    0.26
   4  -3  -3    2.81    0.33
   4  -3  -3    3.32    0.33
   4  -3  -3    3.22    0.28
   4  -3  -3    4.01    0.42
  -4   3   3    3.46    0.30
   3  -3  -3    5.72    0.30
  -3   3   3    5.30    0.31
   2  -3  -3    6.22    0.26
   2  -3  -3    6.01    0.29
  -2   3   3    6.41    0.31
   1  -3  -3    8.06    0.31
   1  -3  -3    8.02    0.35
  -1   3   3    7.99    0.35
   0  -3  -3  101.31    3.31
   0   3   3  101.44    3.30
  -1  -3  -3   10.07    0.40
   1   3   3    8.79    0.42
   1   3   3    9.66    0.37
  -2  -3  -3    2.50    0.19
   2   3   3    2.53    0.24
   2   3   3    2.78    0.20
  -3  -3  -3    2.16    0.22
   3   3   3    2.10    0.24
   3   3   3    2.00    0.22
  -4  -3  -3    3.68    0.33
   4   3   3    3.63    0.35
   4   3   3    4.25    0.34
   4   3   3    3.45    0.34
   4   3   3    3.55    0.35
   4   3   3    3.62    0.35
   4   3   3    3.34    0.39
   5   3   3    5.42    0.39
   5   3   3    5.31    0.37
   5   3   3    5.58    0.39
   5   3   3    5.79    0.39
   6   3   3   28.42    1.06
   6   3   3   27.88    1.05
   6   3   3   27.82    1.05
   6   3   3   26.67    1.05
   7   3   3    2.88    0.26
   7   3   3    2.74    0.26
   7   3   3    2.05    0.25
   7   3   3    2.65    0.26
   8   3   3    0.62    0.16
   8   3   3    0.62    0.15
   8   3   3    0.57    0.15
   8   3   3    0.56    0.15
   8  -4  -3    1.34    0.18
   8  -4  -3    1.32    0.18
  -8   4   3    1.30    0.16
   7  -4  -3    0.88    0.23
   7  -4  -3    0.42    0.13
   7  -4  -3    0.75    0.23
   7  -4  -3    0.51    0.19
   6  -4  -3   37.43    1.36
   6  -4  -3   39.18    1.38
   6  -4  -3   38.25    1.38
   6  -4  -3   36.66    1.37
  -6   4   3   38.24    1.35
   5  -4  -3    3.63    0.41
   5  -4  -3    4.06    0.36
   5  -4  -3    4.28    0.36
  -5   4   3    4.14    0.32
   4  -4  -3    0.12    0.16
   4  -4  -3    0.04    0.19
   4  -4  -3    0.11    0.18
   4  -4  -3   -0.09    0.14
  -4   4   3    0.36    0.20
  -4   4   3    0.05    0.15
   3  -4  -3    0.38    0.20
   3  -4  -3    0.66    0.19
  -3   4   3    0.58    0.19
  -3   4   3    0.51    0.17
   2  -4  -3    0.95    0.16
   2  -4  -3    0.95    0.16
  -2   4   3    1.01    0.17
  -2   4   3    1.18    0.34
   1  -4  -3   15.18    0.60
   1  -4  -3   15.71    0.57
  -1   4   3   14.71    0.61
  -1   4   3   14.73    0.60
   0  -4  -3    0.09    0.08
   0  -4  -3    0.07    0.10
   0   4   3    0.18    0.11
   0   4   3    0.09    0.07
  -1  -4  -3   -0.06    0.10
   1   4   3   -0.09    0.10
   1   4   3    0.17    0.08
  -2  -4  -3   42.26    1.52
   2   4   3   44.50    1.51
  -3  -4  -3    9.44    0.48
   3   4   3    9.21    0.51
   3   4   3    9.00    0.50
   3   4   3    8.74    0.44
   3   4   3    8.73    0.49
   4   4   3    0.15    0.16
   4   4   3    0.35    0.17
   4   4   3    0.16    0.15
   4   4   3    0.13    0.16
   4   4   3    0.35    0.21
   5   4   3    1.57    0.33
   5   4   3    1.95    0.29
   5   4   3    1.99    0.28
   5   4   3    1.19    0.27
   6   4   3    3.35    0.29
   6   4   3    3.44    0.32
   6   4   3    3.38    0.30
   6   4   3    3.67    0.31
   7   4   3    4.44    0.29
   7   4   3    4.39    0.28
   7   4   3    4.78    0.30
   7   4   3    4.39    0.28
   8   4   3    6.51    0.29
   8   4   3    6.43    0.29
   8   4   3    6.33    0.30
   8  -5  -3    0.01    0.09
   8  -5  -3    0.11    0.09
  -8   5   3    0.06    0.07
   7  -5  -3    1.40    0.20
   7  -5  -3    1.11    0.21
  -7   5   3    1.37    0.26
  -7   5   3    1.34    0.18
   6  -5  -3    1.02    0.24
   6  -5  -3    1.12    0.24
   5  -5  -3    0.90    0.25
   5  -5  -3    0.60    0.17
  -5   5   3    0.71    0.17
   4  -5  -3    0.42    0.17
   4  -5  -3    0.57    0.17
  -4   5   3    0.10    0.13
   3  -5  -3    4.68    0.37
   3  -5  -3    4.25    0.37
  -3   5   3    3.98    0.31
  -3   5   3    4.73    0.41
   2  -5  -3   10.00    0.50
   2  -5  -3   10.10    0.56
   2  -5  -3    9.93    0.48
  -2   5   3   10.38    0.51
  -2   5   3   10.58    0.48
  -2   5   3   10.22    0.54
   1  -5  -3    0.25    0.16
   1  -5  -3    0.29    0.14
  -1   5   3    0.25    0.15
  -1   5   3    0.23    0.13
  -1   5   3    0.24    0.15
  -1   5   3    0.08    0.20
   0  -5  -3    6.63    0.35
   0  -5  -3    6.83    0.38
   0   5   3    6.92    0.38
   0   5   3    7.14    0.46
   0   5   3    7.25    0.37
  -1  -5  -3   21.46    0.82
  -1  -5  -3   19.90    0.80
   1   5   3   20.57    0.85
   1   5   3   20.54    0.85
   1   5   3   20.82    0.84
   1   5   3   21.03    0.82
  -2  -5  -3   -0.02    0.21
  -2  -5  -3   -0.10    0.17
   2   5   3   -0.01    0.12
   2   5   3    0.05    0.15
   2   5   3   -0.09    0.15
   2   5   3   -0.17    0.17
  -3  -5  -3   11.11    0.70
   3   5   3   13.43    0.58
   3   5   3   12.44    0.59
   3   5   3   12.80    0.59
   3   5   3   12.83    0.59
   4   5   3   51.28    1.84
   4   5   3   53.01    1.84
   4   5   3   52.99    1.84
   4   5   3   52.92    1.85
   6   5   3    8.24    0.42
   6   5   3    8.00    0.41
   6   5   3    8.23    0.41
   7   5   3    0.62    0.14
   7   5   3    0.64    0.16
   7   5   3    0.63    0.15
   7  -6  -3    4.45    0.26
   7  -6  -3    4.12    0.27
  -7   6   3    4.77    0.24
   6  -6  -3    2.96    0.26
   6  -6  -3    2.53    0.25
  -6   6   3    2.29    0.23
  -6   6   3    2.77    0.22
   5  -6  -3    0.95    0.27
   5  -6  -3    1.02    0.23
  -5   6   3    0.79    0.16
  -5   6   3    1.05    0.20
   4  -6  -3    6.64    0.41
   4  -6  -3    7.20    0.45
  -4   6   3    7.40    0.41
  -4   6   3    6.54    0.38
   3  -6  -3   10.06    0.58
  -3   6   3   12.47    0.52
  -3   6   3   11.30    0.55
   2  -6  -3    6.60    0.46
  -2   6   3    6.32    0.36
  -2   6   3    6.57    0.42
  -2   6   3    5.52    0.48
   1  -6  -3    3.43    0.41
   1  -6  -3    2.63    0.42
   1  -6  -3    3.24    0.43
  -1   6   3    3.16    0.44
  -1   6   3    3.81    0.33
  -1   6   3    3.68    0.32
  -1   6   3    3.31    0.42
  -1   6   3    3.49    0.29
   0  -6  -3    1.27    0.37
   0  -6  -3    1.07    0.36
   0   6   3    1.78    0.36
   0   6   3    1.78    0.38
   0   6   3    1.36    0.31
   0   6   3    1.45    0.24
   0   6   3    1.56    0.29
  -1  -6  -3    9.88    0.56
  -1  -6  -3    9.57    0.60
   1   6   3   11.34    0.54
   1   6   3   10.29    0.54
   1   6   3   10.80    0.50
   1   6   3    9.56    0.63
   1   6   3   10.71    0.53
   2   6   3   26.31    1.07
   2   6   3   28.85    1.08
   2   6   3   29.37    1.07
   2   6   3   28.82    1.07
   3   6   3    8.21    0.47
   3   6   3    8.11    0.46
   3   6   3    9.38    0.46
   3   6   3    7.88    0.46
   4   6   3    0.17    0.13
   4   6   3    0.19    0.15
   4   6   3    0.07    0.15
   4   6   3    0.07    0.14
   5   6   3   37.41    1.34
   5   6   3   34.84    1.34
   5   6   3   39.75    1.34
   5   6   3   38.10    1.35
   6   6   3    4.84    0.29
   6   6   3    5.01    0.28
   6   6   3    5.08    0.29
   7   6   3    2.54    0.18
   7   6   3    2.57    0.19
   7   6   3    2.73    0.19
   7  -7  -3    2.78    0.19
  -7   7   3    2.92    0.18
   6  -7  -3    0.37    0.10
  -6   7   3    0.22    0.09
  -6   7   3    0.17    0.10
   5  -7  -3    1.45    0.20
   5  -7  -3    1.38    0.30
  -5   7   3    1.40    0.21
  -5   7   3    1.01    0.18
   4  -7  -3    9.83    0.48
   4  -7  -3    9.82    0.50
  -4   7   3    9.69    0.46
  -4   7   3    9.14    0.46
   3  -7  -3   17.50    0.73
   3  -7  -3   17.25    0.75
  -3   7   3   17.12    0.71
   2  -7  -3   14.49    0.68
  -2   7   3   15.05    0.69
  -2   7   3   16.02    0.71
  -2   7   3   15.55    0.65
   1  -7  -3    0.63    0.23
  -1   7   3    0.87    0.21
  -1   7   3    0.86    0.20
  -1   7   3    0.58    0.17
   0  -7  -3    2.48    0.40
   0   7   3    2.82    0.31
   0   7   3    3.07    0.34
   0   7   3    2.68    0.28
   0   7   3    3.05    0.30
   1   7   3   16.61    0.73
   1   7   3   16.87    0.71
   1   7   3   17.20    0.73
   1   7   3   18.39    0.74
   2   7   3    0.02    0.12
   2   7   3   -0.02    0.13
   2   7   3   -0.09    0.15
   3   7   3    2.24    0.25
   3   7   3    2.17    0.28
   3   7   3    2.27    0.27
   4   7   3    0.39    0.15
   4   7   3    0.06    0.12
   4   7   3    0.07    0.13
   4   7   3    0.15    0.11
   5   7   3   -0.06    0.11
   5   7   3   -0.06    0.09
   5   7   3    0.15    0.10
   5   7   3    0.03    0.16
   6   7   3   -0.02    0.08
   6   7   3    0.06    0.08
   6  -8  -3    2.57    0.18
  -6   8   3    2.69    0.18
   5  -8  -3    3.17    0.22
  -5   8   3    3.18    0.20
  -5   8   3    2.97    0.25
   4  -8  -3    0.10    0.10
  -4   8   3    0.07    0.09
   3  -8  -3   19.28    0.77
  -3   8   3   19.10    0.75
  -2   8   3   13.48    0.58
  -2   8   3   12.92    0.57
  -1   8   3   21.35    0.83
  -1   8   3   20.96    0.81
  -1   8   3   20.11    0.82
   0   8   3    0.91    0.17
   0   8   3    1.31    0.24
   0   8   3    1.09    0.21
   1   8   3    4.74    0.34
   1   8   3    4.39    0.33
   1   8   3    4.30    0.32
   1   8   3    4.25    0.33
   2   8   3   26.82    0.98
   2   8   3   24.12    0.98
   2   8   3   27.25    0.99
   3   8   3    0.14    0.10
   3   8   3    0.03    0.11
   3   8   3    0.16    0.12
   4   8   3    4.24    0.28
   4   8   3    3.65    0.25
   4   8   3    3.60    0.24
   5   8   3    4.56    0.24
   5   8   3    4.52    0.24
   4  -9  -3    4.51    0.24
  -4   9   3    4.37    0.23
   3  -9  -3    2.28    0.19
  -3   9   3    1.80    0.16
   2  -9  -3    0.34    0.11
  -2   9   3    0.51    0.14
  -1   9   3    4.59    0.28
  -1   9   3    4.66    0.30
  -1   9   3    4.55    0.36
   0   9   3    4.80    0.32
   0   9   3    4.82    0.28
   0   9   3    4.58    0.30
   1   9   3    0.18    0.11
   1   9   3    0.20    0.10
   1   9   3   -0.22    0.14
   2   9   3   10.26    0.47
   2   9   3   10.79    0.46
   3   9   3    0.62    0.15
   3   9   3    0.56    0.14
   3   9   3    0.74    0.18
   4   9   3    0.05    0.06
   2 -10  -3   -0.02    0.08
  -2  10   3   -0.03    0.07
   1 -10  -3    1.04    0.14
  -1  10   3    0.88    0.14
   0 -10  -3    1.17    0.15
   0  10   3    1.26    0.16
   0  10   3    1.09    0.17
   0  10   3    1.52    0.28
   1  10   3    2.74    0.23
   1  10   3    2.89    0.19
   2  10   3    0.17    0.14
   2  10   3   -0.08    0.07
   1  10  -4    0.74    0.11
   1  10  -4    0.77    0.19
   0  10  -4    4.13    0.21
   0 -10   4    4.28    0.22
  -1  10  -4    1.87    0.20
  -1  10  -4    1.49    0.13
   1 -10   4    1.88    0.15
   4   9  -4    3.80    0.21
   3   9  -4    2.14    0.21
   3   9  -4    2.13    0.17
   2   9  -4    2.21    0.25
   2   9  -4    2.53    0.23
   2   9  -4    2.53    0.19
   1   9  -4   -0.07    0.11
   1   9  -4   -0.12    0.11
   1   9  -4    0.17    0.09
   0   9  -4    0.01    0.09
   0   9  -4   -0.02    0.12
   0   9  -4    0.00    0.10
  -1   9  -4    0.26    0.15
  -1   9  -4   -0.01    0.10
  -1   9  -4   -0.07    0.10
  -2   9  -4   -0.03    0.10
  -2   9  -4    0.10    0.08
   2  -9   4    0.04    0.08
  -3   9  -4    0.47    0.13
   3  -9   4    0.57    0.13
   5   8  -4   -0.38    0.24
   4   8  -4    1.34    0.18
   4   8  -4    1.75    0.21
   3   8  -4    2.65    0.24
   3   8  -4    2.98    0.29
   3   8  -4    3.31    0.24
   2   8  -4    0.08    0.11
   2   8  -4    0.37    0.12
   2   8  -4    0.49    0.17
   1   8  -4    3.47    0.26
   1   8  -4    3.43    0.30
   1   8  -4    2.99    0.26
   0   8  -4   16.03    0.69
   0   8  -4   16.54    0.68
   0   8  -4   16.96    0.67
  -1   8  -4    1.67    0.25
  -1   8  -4    1.83    0.23
  -1   8  -4    1.08    0.21
  -2   8  -4   -0.09    0.11
  -2   8  -4    0.66    0.20
   2  -8   4    0.14    0.10
  -3   8  -4    0.05    0.14
  -3   8  -4    0.20    0.10
   3  -8   4    0.14    0.09
  -4   8  -4    3.39    0.21
   4  -8   4    3.18    0.21
  -5   8  -4    0.52    0.13
   5  -8   4    0.53    0.12
   5   7  -4    0.90    0.20
   5   7  -4    0.03    0.19
   4   7  -4   -0.09    0.12
   4   7  -4   -0.05    0.12
   4   7  -4    0.04    0.15
   3   7  -4    1.29    0.23
   3   7  -4    1.45    0.22
   3   7  -4    1.18    0.28
   2   7  -4    1.83    0.28
   2   7  -4    1.75    0.23
   2   7  -4    1.76    0.23
   1   7  -4   14.36    0.62
   1   7  -4   14.08    0.63
   1   7  -4   13.47    0.62
   1   7  -4   14.47    0.62
   0   7  -4    0.65    0.21
   0   7  -4    0.50    0.14
   0   7  -4    0.79    0.22
  -1   7  -4    3.36    0.31
  -1   7  -4    4.05    0.32
  -1   7  -4    3.86    0.33
  -2   7  -4    5.35    0.39
  -2   7  -4    4.89    0.34
  -2   7  -4    5.12    0.36
  -3   7  -4    6.16    0.41
  -3   7  -4    6.63    0.37
   3  -7   4    6.91    0.38
  -4   7  -4    1.84    0.21
   4  -7   4    1.85    0.23
  -5   7  -4    2.27    0.20
   5  -7   4    2.60    0.21
  -6   7  -4    0.25    0.08
   6  -7   4    0.06    0.07
   5   6  -4    1.78    0.25
   5   6  -4    1.40    0.30
   4   6  -4    0.04    0.13
   4   6  -4    0.04    0.13
   4   6  -4    0.17    0.15
   3   6  -4    2.66    0.30
   3   6  -4    3.44    0.30
   3   6  -4    3.66    0.30
   2   6  -4   24.07    0.93
   2   6  -4   23.81    0.94
   2   6  -4   24.32    0.93
   1   6  -4    0.07    0.12
   1   6  -4    0.07    0.13
   1   6  -4   -0.17    0.14
   1   6  -4    0.23    0.19
  -1  -6   4    0.12    0.37
   0   6  -4    2.88    0.27
   0   6  -4    3.18    0.32
   0   6  -4    3.08    0.31
  -1   6  -4   35.48    1.24
  -1   6  -4   31.90    1.21
  -1   6  -4   33.75    1.22
  -1   6  -4   32.43    1.24
  -2   6  -4    0.77    0.17
  -2   6  -4    1.18    0.29
  -2   6  -4    1.10    0.28
  -2   6  -4    1.61    0.32
  -3   6  -4    7.60    0.44
  -3   6  -4    6.90    0.48
  -3   6  -4    7.99    0.42
   3  -6   4    7.49    0.42
  -4   6  -4   30.07    1.08
  -4   6  -4   28.75    1.08
   4  -6   4   28.72    1.07
  -5   6  -4    6.58    0.37
  -5   6  -4    7.48    0.37
   5  -6   4    7.39    0.38
  -6   6  -4    0.28    0.11
  -6   6  -4    0.27    0.10
   6  -6   4    0.52    0.15
   7  -6   4    0.17    0.07
   5   5  -4    1.95    0.31
   5   5  -4    1.41    0.28
   4   5  -4    5.94    0.38
   4   5  -4    5.97    0.45
   4   5  -4    6.21    0.38
   4   5  -4    6.14    0.40
   3   5  -4   27.14    1.04
   3   5  -4   27.01    1.03
   3   5  -4   27.70    1.03
   3   5  -4   26.75    1.06
   2   5  -4   15.11    0.62
   2   5  -4   14.60    0.67
   2   5  -4   14.31    0.63
   2   5  -4   14.42    0.62
  -2  -5   4   12.83    0.78
   1   5  -4   29.68    1.09
   1   5  -4   29.71    1.12
   1   5  -4   31.33    1.09
   1   5  -4   25.92    1.15
   1   5  -4   28.67    1.07
  -1  -5   4   29.64    1.08
   0   5  -4    0.71    0.20
   0   5  -4    0.99    0.19
   0   5  -4    0.71    0.16
   0   5  -4    1.26    0.38
   0   5  -4    0.84    0.20
   0  -5   4    0.87    0.26
  -1   5  -4    0.40    0.14
  -1   5  -4    0.48    0.20
  -1   5  -4    0.51    0.21
  -1   5  -4    0.35    0.15
  -1   5  -4    1.01    0.33
   1  -5   4    0.45    0.20
  -2   5  -4    0.54    0.20
  -2   5  -4    0.81    0.25
  -2   5  -4    0.75    0.28
  -2   5  -4    0.70    0.19
  -2   5  -4    0.71    0.16
   2  -5   4    0.43    0.21
  -3   5  -4    3.49    0.33
  -3   5  -4    4.26    0.32
   3  -5   4    4.40    0.33
  -4   5  -4   -0.08    0.12
  -4   5  -4    0.04    0.13
   4  -5   4   -0.03    0.12
  -5   5  -4   13.90    0.58
  -5   5  -4   13.27    0.57
   5  -5   4   12.44    0.57
   5  -5   4   12.20    0.62
  -6   5  -4    0.13    0.12
  -6   5  -4    0.02    0.10
   6  -5   4    0.43    0.16
   6  -5   4    0.11    0.09
  -7   5  -4    0.16    0.14
  -7   5  -4    0.03    0.08
   7  -5   4    0.13    0.15
   7  -5   4    0.20    0.07
   8   4  -4    1.49    0.19
   8   4  -4    1.09    0.28
   7   4  -4    6.31    0.34
   7   4  -4    6.17    0.35
   7   4  -4    6.10    0.34
   6   4  -4    0.09    0.15
   6   4  -4   -0.08    0.14
   6   4  -4    0.41    0.18
   6   4  -4    0.18    0.14
   5   4  -4    1.74    0.30
   5   4  -4    1.04    0.27
   5   4  -4    0.98    0.30
   4   4  -4    3.27    0.30
   4   4  -4    3.57    0.36
   4   4  -4    3.34    0.34
   4   4  -4    3.36    0.33
  -4  -4   4    3.14    0.45
   3   4  -4  123.85    3.88
   3   4  -4  115.85    3.89
   3   4  -4  118.72    3.88
   3   4  -4  115.66    3.88
  -3  -4   4  113.66    3.93
   2   4  -4   54.99    1.97
   2   4  -4   59.16    1.97
   2   4  -4   57.40    1.98
  -2  -4   4   59.40    1.94
  -1  -4   4    2.63    0.21
   0   4  -4    9.65    0.44
   0  -4   4    9.38    0.42
  -1   4  -4    0.49    0.14
  -1   4  -4    0.61    0.16
   1  -4   4    0.64    0.15
  -2   4  -4   20.33    0.79
  -2   4  -4   19.46    0.79
  -2   4  -4   19.64    0.79
  -2   4  -4   20.38    0.79
   2  -4   4   19.84    0.78
  -3   4  -4    2.90    0.32
  -3   4  -4    3.28    0.30
   3  -4   4    2.90    0.32
   3  -4   4    2.89    0.33
  -4   4  -4    3.87    0.31
  -4   4  -4    3.54    0.33
   4  -4   4    4.08    0.33
   4  -4   4    4.23    0.46
  -5   4  -4    0.57    0.17
  -5   4  -4    0.57    0.15
   5  -4   4    0.17    0.21
   5  -4   4    0.39    0.13
  -6   4  -4   -0.18    0.11
  -6   4  -4    0.27    0.15
   6  -4   4   -0.21    0.10
   6  -4   4    0.28    0.17
  -7   4  -4    1.63    0.19
   7  -4   4    1.38    0.21
   7  -4   4    1.51    0.17
   8   3  -4    0.59    0.13
   8   3  -4    0.72    0.17
   8   3  -4    0.70    0.15
   7   3  -4    6.51    0.35
   7   3  -4    6.67    0.36
   7   3  -4    6.23    0.36
   5   3  -4    0.28    0.17
   5   3  -4    0.43    0.17
   5   3  -4    0.58    0.19
   5   3  -4    0.59    0.19
   4   3  -4    6.45    0.41
   4   3  -4    5.77    0.45
   4   3  -4    6.00    0.40
   4   3  -4    6.11    0.41
   4   3  -4    4.57    0.40
  -4  -3   4    5.87    0.44
   3   3  -4   64.86    2.17
  -3  -3   4   63.64    2.21
   2   3  -4   60.12    2.00
  -2  -3   4   58.24    1.94
  -1  -3   4   43.03    1.44
   0   3  -4   25.14    0.92
   0  -3   4   24.99    0.87
  -1   3  -4   10.10    0.44
   1  -3   4    8.93    0.39
  -2   3  -4   51.54    1.78
   2  -3   4   52.87    1.77
  -3   3  -4   19.21    0.81
   3  -3   4   20.81    0.79
   3  -3   4   19.85    0.79
  -4   3  -4   11.28    0.56
   4  -3   4   11.37    0.62
   4  -3   4    9.84    0.56
   4  -3   4   10.89    0.61
   4  -3   4   11.65    0.53
  -5   3  -4   -0.14    0.17
   5  -3   4    0.22    0.19
   5  -3   4    0.14    0.19
   5  -3   4    0.02    0.12
  -6   3  -4    3.98    0.41
   6  -3   4    3.79    0.30
   6  -3   4    4.45    0.38
   6  -3   4    3.05    0.33
  -7   3  -4    2.95    0.23
   7  -3   4    2.98    0.26
   7  -3   4    3.30    0.24
  -8   3  -4    0.85    0.12
   8  -3   4    1.10    0.16
   8  -3   4    1.13    0.16
   9   2  -4    7.29    0.30
   9   2  -4    6.87    0.30
   8   2  -4    4.78    0.27
   8   2  -4    4.80    0.27
   8   2  -4    4.69    0.28
   8   2  -4    4.21    0.29
   7   2  -4   15.07    0.64
   7   2  -4   14.61    0.63
   7   2  -4   14.90    0.62
   7   2  -4   15.46    0.64
   6   2  -4    0.57    0.18
   6   2  -4    0.28    0.15
   6   2  -4    0.63    0.19
   6   2  -4    0.61    0.17
   5   2  -4    8.99    0.59
   5   2  -4   10.39    0.52
   5   2  -4   10.02    0.50
   5   2  -4    9.62    0.49
   5   2  -4   10.04    0.50
  -5  -2   4    9.53    0.63
   4   2  -4    0.16    0.16
   4   2  -4   -0.07    0.19
   4   2  -4    0.27    0.21
   4   2  -4    0.01    0.16
  -4  -2   4    0.17    0.13
   3   2  -4   50.63    1.71
  -3  -2   4   49.07    1.72
   2   2  -4   12.80    0.55
  -2  -2   4   13.73    0.55
  -2  -2   4   14.12    0.47
  -1  -2   4   11.41    0.40
  -1  -2   4   11.03    0.45
   0  -2   4    1.72    0.12
   1  -2   4   71.58    2.35
   3  -2   4   34.20    1.19
   3  -2   4   33.07    1.21
   4  -2   4    0.16    0.20
   4  -2   4    0.08    0.14
   4  -2   4    0.43    0.19
   4  -2   4    0.07    0.24
   5  -2   4    1.26    0.33
   5  -2   4    0.46    0.18
   6  -2   4    2.11    0.41
   6  -2   4    1.62    0.25
   6  -2   4    1.42    0.29
   6  -2   4    1.25    0.30
   7  -2   4    3.01    0.24
   7  -2   4    2.86    0.27
   7  -2   4    3.10    0.26
  -8   2  -4   -0.08    0.08
   8  -2   4   -0.11    0.09
   8  -2   4    0.07    0.08
   9   1  -4    5.53    0.26
   9   1  -4    5.71    0.26
   9   1  -4    5.69    0.27
   8   1  -4    0.09    0.09
   8   1  -4   -0.01    0.09
   8   1  -4    0.06    0.10
   8   1  -4    0.11    0.10
   7   1  -4    2.98    0.28
   7   1  -4    4.05    0.33
   7   1  -4    3.21    0.27
   7   1  -4    3.50    0.28
   6   1  -4    4.81    0.37
   6   1  -4    5.20    0.38
   6   1  -4    5.21    0.37
   6   1  -4    6.61    0.40
   6   1  -4    5.64    0.36
   5   1  -4   34.53    1.27
   5   1  -4   33.49    1.28
   5   1  -4   36.40    1.28
   5   1  -4   34.01    1.25
   5   1  -4   36.12    1.26
  -5  -1   4   32.96    1.31
   4   1  -4   13.81    0.55
   4   1  -4   12.81    0.62
   4   1  -4   13.95    0.62
   4   1  -4   13.25    0.63
  -4  -1   4   14.30    0.60
   3   1  -4    0.00    0.08
  -3  -1   4   -0.05    0.09
   2   1  -4    9.32    0.31
  -2  -1   4    7.42    0.34
  -2  -1   4    7.72    0.36
   1   1  -4   17.67    0.62
   1   1  -4   18.75    0.61
  -1  -1   4   18.25    0.67
  -1  -1   4   19.52    0.62
   0   1  -4    3.42    0.13
   0   1  -4    3.60    0.13
   0  -1   4    3.53    0.16
   0  -1   4    3.31    0.18
  -1   1  -4    0.39    0.11
  -1   1  -4    0.39    0.07
   1  -1   4    0.43    0.08
   1  -1   4    0.39    0.09
  -2   1  -4  112.07    3.55
   2  -1   4  107.38    3.57
   3  -1   4    7.18    0.42
   3  -1   4    7.39    0.35
   4  -1   4    2.55    0.46
   4  -1   4    2.84    0.35
   4  -1   4    2.85    0.29
   4  -1   4    2.15    0.30
   5  -1   4    1.50    0.33
   5  -1   4    2.40    0.31
   5  -1   4    1.93    0.26
   5  -1   4    1.50    0.26
   6  -1   4   10.34    0.52
   6  -1   4   10.64    0.55
   6  -1   4   11.02    0.52
   6  -1   4   10.05    0.51
   7  -1   4    0.23    0.13
   7  -1   4    0.03    0.11
   7  -1   4   -0.22    0.14
   7  -1   4    0.23    0.13
  -8   1  -4    0.15    0.09
   8  -1   4   -0.02    0.08
   8  -1   4    0.08    0.10
   8  -1   4    0.10    0.09
   8  -1   4    0.08    0.13
   9   0  -4    0.05    0.08
   9   0  -4    0.15    0.07
   9   0  -4    0.38    0.11
   8   0  -4    0.13    0.11
   8   0  -4    0.21    0.11
   8   0  -4    0.14    0.09
   8   0  -4    0.55    0.15
   7   0  -4    7.63    0.41
   7   0  -4    7.59    0.42
   7   0  -4    7.54    0.40
   7   0  -4    7.78    0.42
   6   0  -4   34.07    1.24
   6   0  -4   32.58    1.22
   6   0  -4   33.15    1.23
   6   0  -4   33.84    1.24
   6   0  -4   33.24    1.21
   5   0  -4   19.75    0.79
   5   0  -4   19.55    0.82
   5   0  -4   19.40    0.78
   5   0  -4   18.98    0.79
   5   0  -4   19.13    0.77
   5   0  -4   19.93    0.80
  -5   0   4   18.05    0.83
   4   0  -4   52.70    1.81
  -4   0   4   53.96    1.85
   3   0  -4   87.20    2.84
  -3   0   4   86.44    2.88
   2   0  -4    2.87    0.15
  -2   0   4    2.41    0.17
   1   0  -4    0.23    0.06
  -1   0   4    0.18    0.04
  -1   0   4    0.08    0.05
  -1   0   4    0.28    0.09
   0   0  -4   54.16    1.89
   0   0  -4   60.92    1.88
   0   0   4   60.97    1.88
   0   0   4   55.14    1.90
  -1   0  -4   22.87    0.79
   1   0   4   25.36    0.79
   1   0   4   22.94    0.80
   1   0   4   21.90    0.80
  -2   0  -4  103.12    3.41
   2   0   4  107.21    3.42
  -3   0  -4    2.11    0.19
   3   0   4    2.35    0.33
   3   0   4    2.03    0.19
  -4   0  -4   11.09    0.53
   4   0   4   12.21    0.56
   4   0   4   10.82    0.52
   4   0   4   11.36    0.54
   4   0   4   11.38    0.61
   4   0   4   10.78    0.57
   5   0   4    2.57    0.29
   5   0   4    2.05    0.32
   5   0   4    2.51    0.33
   5   0   4    2.38    0.27
   6   0   4    9.32    0.48
   6   0   4    9.25    0.48
   6   0   4    9.85    0.50
   6   0   4    9.28    0.48
   7   0   4    3.28    0.29
   7   0   4    3.72    0.29
   7   0   4    3.50    0.29
   7   0   4    3.64    0.31
  -8   0  -4    1.48    0.17
   8   0   4    1.47    0.17
   8   0   4    1.59    0.18
   8   0   4    1.53    0.19
   8   0   4    1.40    0.18
   9  -1  -4   -0.05    0.07
   9  -1  -4    0.11    0.07
   9  -1  -4    0.13    0.07
   8  -1  -4    2.35    0.23
   8  -1  -4    2.47    0.21
   8  -1  -4    2.39    0.21
   8  -1  -4    2.30    0.21
   7  -1  -4   13.35    0.61
   7  -1  -4   13.10    0.58
   7  -1  -4   13.73    0.60
   7  -1  -4   14.01    0.60
   6  -1  -4    0.37    0.16
   6  -1  -4    0.36    0.16
   6  -1  -4    0.74    0.21
   6  -1  -4    0.82    0.26
   5  -1  -4   11.74    0.55
   5  -1  -4   11.55    0.53
   5  -1  -4   11.41    0.57
   5  -1  -4   11.08    0.59
   5  -1  -4   11.70    0.56
   5  -1  -4   10.96    0.54
  -5   1   4   11.55    0.62
   4  -1  -4   14.62    0.65
   4  -1  -4   15.64    0.61
   4  -1  -4   14.39    0.67
  -4   1   4   15.32    0.64
   3  -1  -4   31.69    1.08
  -3   1   4   30.23    1.11
   2  -1  -4    0.42    0.09
  -2   1   4    0.42    0.11
   1  -1  -4    0.02    0.05
   1  -1  -4    0.10    0.06
   1  -1  -4    0.03    0.04
  -1   1   4    0.01    0.05
   0  -1  -4   24.64    0.91
   0  -1  -4   27.47    0.91
   0   1   4   27.84    0.90
   0   1   4   27.64    0.92
  -1  -1  -4   47.57    1.59
   1   1   4   50.60    1.58
   1   1   4   45.70    1.59
  -2  -1  -4   20.45    0.72
   2   1   4   18.23    0.75
   2   1   4   20.64    0.72
  -3  -1  -4    0.48    0.14
   3   1   4    0.57    0.18
   3   1   4    0.49    0.14
  -4  -1  -4    5.94    0.37
   4   1   4    5.63    0.39
   4   1   4    5.59    0.39
   4   1   4    5.86    0.37
   4   1   4    5.49    0.44
   4   1   4    4.92    0.44
   4   1   4    6.68    0.44
   5   1   4    3.54    0.34
   5   1   4    3.39    0.31
   5   1   4    3.47    0.32
   5   1   4    3.60    0.32
   6   1   4    0.25    0.14
   6   1   4    0.35    0.14
   6   1   4    0.23    0.16
   6   1   4    0.17    0.13
   7   1   4   17.72    0.72
   7   1   4   17.44    0.72
   7   1   4   17.85    0.72
   7   1   4   18.54    0.72
  -8  -1  -4   12.89    0.53
   8   1   4   13.57    0.53
   8   1   4   13.55    0.53
   8   1   4   13.82    0.53
   8   1   4   13.66    0.53
   9  -2  -4    0.32    0.09
   9  -2  -4    0.17    0.07
   9  -2  -4    0.21    0.09
   8  -2  -4    0.71    0.16
   8  -2  -4    0.58    0.18
   7  -2  -4    7.20    0.40
   7  -2  -4    6.55    0.38
   7  -2  -4    6.73    0.39
   7  -2  -4    6.77    0.37
  -7   2   4    6.95    0.40
   6  -2  -4    0.84    0.21
   6  -2  -4    1.19    0.23
   6  -2  -4    1.00    0.25
   6  -2  -4    0.50    0.16
   6  -2  -4    1.01    0.26
   5  -2  -4   11.53    0.56
   5  -2  -4   11.60    0.64
   5  -2  -4   11.00    0.62
   5  -2  -4   11.29    0.56
   5  -2  -4   11.74    0.56
   5  -2  -4   12.04    0.54
  -5   2   4   12.07    0.66
   4  -2  -4   44.28    1.57
   4  -2  -4   44.07    1.55
   4  -2  -4   45.26    1.55
   4  -2  -4   45.42    1.57
   4  -2  -4   42.94    1.57
  -4   2   4   44.17    1.58
   3  -2  -4    0.55    0.15
  -3   2   4    0.43    0.13
   2  -2  -4   56.06    1.81
  -2   2   4   51.62    1.82
   1  -2  -4   26.94    0.85
   1  -2  -4   24.90    0.89
  -1   2   4   24.63    0.90
   0  -2  -4   67.90    2.21
   0   2   4   65.87    2.20
  -1  -2  -4   69.78    2.25
   1   2   4   70.11    2.24
   1   2   4   65.92    2.26
   1   2   4   66.55    2.23
  -2  -2  -4    2.93    0.20
   2   2   4    2.93    0.19
   2   2   4    2.59    0.25
  -3  -2  -4   38.77    1.30
   3   2   4   34.84    1.28
   3   2   4   35.28    1.28
  -4  -2  -4   24.87    0.98
   4   2   4   24.66    0.96
   4   2   4   24.27    0.95
   4   2   4   23.14    0.94
   4   2   4   24.63    0.96
   4   2   4   25.49    0.97
   4   2   4   25.47    0.96
   5   2   4    3.36    0.33
   5   2   4    3.77    0.34
   5   2   4    3.41    0.33
   5   2   4    3.25    0.32
   6   2   4    6.13    0.39
   6   2   4    6.70    0.39
   6   2   4    6.42    0.39
   6   2   4    6.52    0.40
   7   2   4    0.01    0.11
   7   2   4   -0.02    0.09
   7   2   4    0.21    0.13
   7   2   4   -0.01    0.10
   8   2   4    0.64    0.15
   8   2   4    0.73    0.15
   8   2   4    0.69    0.14
   8   2   4    0.70    0.14
   8  -3  -4    0.28    0.11
   8  -3  -4    0.20    0.09
   8  -3  -4    0.19    0.15
   8  -3  -4    0.67    0.20
   7  -3  -4    2.87    0.25
   7  -3  -4    2.99    0.26
   7  -3  -4    2.46    0.31
   7  -3  -4    2.55    0.28
  -7   3   4    2.35    0.27
   6  -3  -4   13.95    0.62
   6  -3  -4   13.83    0.64
   6  -3  -4   13.46    0.62
   6  -3  -4   14.00    0.63
   6  -3  -4   14.09    0.61
  -6   3   4   14.12    0.62
   5  -3  -4   21.80    0.87
   5  -3  -4   21.29    0.87
   5  -3  -4   19.10    0.85
   5  -3  -4   21.75    0.87
   5  -3  -4   23.07    0.85
   4  -3  -4    0.64    0.18
   4  -3  -4    0.34    0.18
   4  -3  -4    0.47    0.23
   4  -3  -4    0.62    0.17
   4  -3  -4    1.48    0.41
   4  -3  -4    0.34    0.35
  -4   3   4    0.73    0.21
   3  -3  -4   19.25    0.75
   3  -3  -4   18.20    0.78
  -3   3   4   20.44    0.78
   2  -3  -4   16.73    0.66
  -2   3   4   17.55    0.67
   1  -3  -4  109.42    3.51
   1  -3  -4  105.42    3.46
  -1   3   4  104.45    3.50
  -1   3   4  108.34    3.51
   0  -3  -4    9.28    0.40
   0   3   4    9.20    0.42
   0   3   4    9.07    0.39
  -1  -3  -4   79.02    2.64
   1   3   4   78.40    2.63
   1   3   4   80.80    2.61
  -2  -3  -4    1.55    0.20
   2   3   4    1.49    0.22
   2   3   4    1.60    0.21
  -3  -3  -4    1.63    0.25
   3   3   4    1.85    0.24
   3   3   4    1.66    0.35
   3   3   4    1.74    0.32
   3   3   4    1.98    0.27
   3   3   4    1.82    0.33
   3   3   4    1.71    0.35
  -4  -3  -4    2.58    0.43
   4   3   4    3.19    0.36
   4   3   4    2.47    0.42
   4   3   4    3.78    0.33
   4   3   4    2.97    0.32
   4   3   4    3.37    0.32
   4   3   4    3.52    0.36
   5   3   4    1.97    0.28
   5   3   4    1.29    0.29
   5   3   4    1.64    0.29
   5   3   4    1.48    0.29
   6   3   4    3.34    0.29
   6   3   4    3.72    0.32
   6   3   4    4.27    0.31
   6   3   4    3.66    0.32
   7   3   4    1.12    0.19
   7   3   4    0.84    0.19
   7   3   4    1.19    0.21
   7   3   4    1.01    0.19
   8   3   4    5.21    0.26
   8   3   4    5.54    0.27
   8   3   4    5.28    0.25
   8  -4  -4    0.98    0.22
   8  -4  -4    0.89    0.15
   7  -4  -4   -0.01    0.13
   7  -4  -4    0.25    0.17
   7  -4  -4    0.16    0.16
   7  -4  -4    0.21    0.10
  -7   4   4    0.01    0.12
   6  -4  -4    0.54    0.19
   6  -4  -4    0.44    0.17
   6  -4  -4    0.88    0.22
   6  -4  -4    0.34    0.21
  -6   4   4    0.81    0.22
   5  -4  -4   67.65    2.38
   5  -4  -4   71.15    2.36
   5  -4  -4   67.50    2.37
   5  -4  -4   71.92    2.39
  -5   4   4   69.78    2.36
   4  -4  -4   33.76    1.23
   4  -4  -4   33.16    1.20
   4  -4  -4   32.15    1.22
   3  -4  -4    3.61    0.44
   3  -4  -4    4.49    0.36
   3  -4  -4    4.31    0.34
  -3   4   4    4.78    0.35
   2  -4  -4    7.35    0.46
   2  -4  -4    7.68    0.40
  -2   4   4    6.74    0.43
  -2   4   4    7.90    0.41
   1  -4  -4    0.16    0.13
   1  -4  -4    0.14    0.12
  -1   4   4    0.20    0.14
  -1   4   4    0.20    0.10
   0  -4  -4   39.30    1.45
   0  -4  -4   42.53    1.43
   0   4   4   42.00    1.45
   0   4   4   43.08    1.45
  -1  -4  -4    0.53    0.16
   1   4   4    0.66    0.19
   1   4   4    0.46    0.14
   1   4   4    0.54    0.19
  -2  -4  -4   29.45    1.10
   2   4   4   28.87    1.10
   2   4   4   28.72    1.09
   2   4   4   28.95    1.11
   2   4   4   29.97    1.07
  -3  -4  -4   11.06    0.60
   3   4   4   10.42    0.50
   3   4   4   11.31    0.55
   3   4   4   11.19    0.55
   3   4   4   11.34    0.54
   3   4   4   10.75    0.59
   4   4   4    0.13    0.14
   4   4   4   -0.27    0.18
   4   4   4    0.10    0.13
   4   4   4    0.06    0.15
   4   4   4    0.23    0.15
   5   4   4    1.69    0.31
   5   4   4    1.65    0.27
   5   4   4    1.96    0.27
   5   4   4    2.12    0.27
   6   4   4    1.65    0.25
   6   4   4    2.15    0.28
   6   4   4    2.24    0.24
   6   4   4    1.81    0.24
   7   4   4    4.84    0.28
   7   4   4    5.06    0.28
   7   4   4    4.83    0.27
   8  -5  -4    1.51    0.16
  -8   5   4    1.66    0.14
   7  -5  -4    2.35    0.22
   7  -5  -4    1.99    0.22
  -7   5   4    2.38    0.19
  -7   5   4    2.19    0.22
   6  -5  -4    2.34    0.27
   6  -5  -4    2.19    0.25
  -6   5   4    1.84    0.22
   5  -5  -4   13.16    0.60
   5  -5  -4   12.57    0.59
  -5   5   4   12.84    0.57
   4  -5  -4   18.97    0.77
   4  -5  -4   17.76    0.77
  -4   5   4   18.03    0.74
   3  -5  -4   73.72    2.53
  -3   5   4   75.66    2.52
   2  -5  -4    4.50    0.38
   2  -5  -4    3.04    0.36
  -2   5   4    3.85    0.38
  -2   5   4    4.65    0.38
  -2   5   4    3.97    0.31
   1  -5  -4    8.53    0.47
   1  -5  -4    8.63    0.49
  -1   5   4    9.24    0.45
  -1   5   4    8.06    0.50
  -1   5   4    8.28    0.47
  -1   5   4    8.41    0.44
   0  -5  -4    8.83    0.45
   0  -5  -4    7.96    0.46
   0   5   4    8.04    0.47
   0   5   4    8.77    0.58
   0   5   4    9.03    0.49
   0   5   4    8.84    0.49
   0   5   4    8.46    0.43
  -1  -5  -4    4.06    0.37
  -1  -5  -4    4.36    0.35
   1   5   4    3.63    0.29
   1   5   4    3.62    0.41
   1   5   4    3.72    0.36
   1   5   4    3.72    0.36
  -2  -5  -4   11.75    0.64
  -2  -5  -4   12.28    0.66
   2   5   4   11.68    0.58
   2   5   4   11.68    0.55
   2   5   4   12.36    0.58
   2   5   4   12.50    0.59
   3   5   4    0.21    0.13
   3   5   4    0.15    0.13
   3   5   4    0.10    0.14
   3   5   4   -0.09    0.15
   4   5   4    3.98    0.32
   4   5   4    3.52    0.33
   4   5   4    3.74    0.33
   4   5   4    3.88    0.33
   5   5   4    6.25    0.37
   5   5   4    5.40    0.41
   5   5   4    6.36    0.38
   5   5   4    5.92    0.36
   6   5   4    1.46    0.20
   6   5   4    1.22    0.19
   6   5   4    1.18    0.19
   7   5   4    0.02    0.07
   7   5   4    0.00    0.08
   7   5   4   -0.03    0.07
   7  -6  -4    2.34    0.19
   7  -6  -4    2.16    0.20
  -7   6   4    2.32    0.18
  -7   6   4    1.61    0.20
   6  -6  -4    2.01    0.23
   6  -6  -4    2.02    0.22
  -6   6   4    2.21    0.20
  -6   6   4    2.04    0.20
   5  -6  -4   -0.11    0.12
   5  -6  -4    0.04    0.13
  -5   6   4   -0.07    0.12
  -5   6   4    0.04    0.10
   4  -6  -4    0.15    0.15
   4  -6  -4   -0.02    0.15
  -4   6   4    0.14    0.16
  -4   6   4    0.04    0.11
   3  -6  -4    3.87    0.35
   3  -6  -4    3.62    0.33
  -3   6   4    3.90    0.28
   2  -6  -4   22.36    0.91
  -2   6   4   22.78    0.92
  -2   6   4   24.08    0.89
   1  -6  -4   31.65    1.16
  -1   6   4   30.44    1.14
  -1   6   4   28.81    1.18
  -1   6   4   31.12    1.13
  -1   6   4   31.88    1.17
   0   6   4    5.89    0.40
   0   6   4    5.74    0.45
   0   6   4    5.46    0.39
   0   6   4    5.96    0.38
   1   6   4    5.80    0.43
   1   6   4    6.80    0.39
   1   6   4    6.21    0.41
   2   6   4   38.62    1.42
   2   6   4   38.30    1.42
   2   6   4   40.79    1.43
   2   6   4   39.69    1.42
   3   6   4   22.85    0.89
   3   6   4   21.05    0.87
   3   6   4   21.75    0.87
   3   6   4   21.98    0.88
   4   6   4   67.71    2.30
   4   6   4   68.22    2.30
   4   6   4   68.75    2.31
   4   6   4   64.64    2.30
   5   6   4    0.06    0.10
   5   6   4   -0.10    0.10
   5   6   4    0.03    0.17
   5   6   4    0.16    0.11
   6   6   4    0.05    0.08
   6   6   4    0.11    0.09
   6   6   4    0.48    0.15
   6  -7  -4    0.94    0.16
  -6   7   4    0.77    0.14
  -6   7   4    0.50    0.12
   5  -7  -4    1.04    0.19
   5  -7  -4    0.95    0.24
  -5   7   4    0.95    0.23
  -5   7   4    0.97    0.16
   4  -7  -4    0.46    0.16
   4  -7  -4    0.33    0.14
  -4   7   4    0.62    0.17
   3  -7  -4   30.45    1.12
   3  -7  -4   30.87    1.12
  -3   7   4   28.55    1.10
   2  -7  -4    7.03    0.44
  -2   7   4    6.83    0.46
  -2   7   4    7.14    0.39
   1  -7  -4    0.13    0.16
  -1   7   4    0.11    0.18
  -1   7   4    0.09    0.15
  -1   7   4   -0.11    0.13
   0  -7  -4   18.34    0.76
   0   7   4   18.64    0.76
   0   7   4   17.86    0.76
   0   7   4   17.53    0.73
   0   7   4   17.58    0.76
   1   7   4   19.52    0.82
   1   7   4   20.28    0.82
   1   7   4   20.54    0.82
   2   7   4    1.30    0.27
   2   7   4    2.00    0.25
   2   7   4    1.88    0.27
   3   7   4    4.92    0.33
   3   7   4    3.87    0.31
   3   7   4    4.40    0.33
   4   7   4    3.78    0.27
   4   7   4    3.86    0.28
   4   7   4    4.36    0.31
   5   7   4    0.45    0.18
   5   7   4    0.54    0.15
   6   7   4    0.01    0.07
   6   7   4   -0.02    0.07
   5  -8  -4    0.46    0.14
  -5   8   4    0.19    0.08
   4  -8  -4    0.89    0.16
  -4   8   4    1.13    0.16
   3  -8  -4    0.60    0.19
   3  -8  -4    0.51    0.18
  -3   8   4    0.78    0.15
   2  -8  -4    2.50    0.36
  -2   8   4    2.91    0.24
   1  -8  -4    0.13    0.17
  -1   8   4   -0.11    0.16
  -1   8   4    0.01    0.11
  -1   8   4    0.21    0.16
   0  -8  -4   11.33    0.56
   0   8   4   11.90    0.54
   0   8   4   11.93    0.51
   0   8   4   11.38    0.54
  -1  -8  -4    0.04    0.16
   1   8   4    0.46    0.14
   1   8   4    0.09    0.12
   1   8   4    0.23    0.12
   2   8   4    4.99    0.33
   2   8   4    5.93    0.33
   2   8   4    5.37    0.33
   3   8   4    0.01    0.11
   3   8   4    0.18    0.09
   3   8   4    0.07    0.10
   4   8   4    1.60    0.17
   4   8   4    1.42    0.21
   4   8   4    1.77    0.17
   5   8   4    3.98    0.21
   5   8   4    4.11    0.21
   4  -9  -4    1.07    0.14
  -4   9   4    0.91    0.11
   3  -9  -4    0.00    0.08
  -3   9   4    0.04    0.06
   2  -9  -4    0.21    0.10
  -2   9   4    0.37    0.12
  -1   9   4    1.50    0.32
  -1   9   4    1.14    0.17
  -1   9   4    1.63    0.24
   0   9   4    5.04    0.31
   0   9   4    5.19    0.29
   0   9   4    5.27    0.31
   1   9   4    3.21    0.23
   1   9   4    3.19    0.24
   2   9   4    0.01    0.10
   2   9   4    0.15    0.08
   3   9   4    1.86    0.16
   3   9   4    1.79    0.21
   1 -10  -4   -0.06    0.07
  -1  10   4   -0.03    0.11
   0 -10  -4    2.76    0.18
   3   9  -5    0.53    0.11
   3   9  -5    0.42    0.13
   2   9  -5    0.20    0.11
   2   9  -5    0.17    0.11
   2   9  -5    0.12    0.08
   1   9  -5    0.68    0.13
   1   9  -5    0.68    0.17
   1   9  -5    0.91    0.17
  -1  -9   5    0.63    0.14
   0   9  -5    3.86    0.23
   0   9  -5    4.07    0.23
   0   9  -5    3.95    0.27
   0  -9   5    3.89    0.25
  -1   9  -5   13.41    0.51
  -1   9  -5   13.11    0.51
   1  -9   5   13.28    0.50
  -2   9  -5    2.55    0.21
  -2   9  -5    2.41    0.18
   2  -9   5    2.71    0.18
  -3   9  -5    2.68    0.17
   3  -9   5    2.63    0.17
   5   8  -5    0.62    0.21
   4   8  -5    1.95    0.17
   4   8  -5    1.99    0.26
   4   8  -5    2.27    0.24
   3   8  -5   12.53    0.54
   3   8  -5   12.52    0.52
   3   8  -5   13.17    0.53
   2   8  -5    0.16    0.11
   2   8  -5    0.06    0.11
   2   8  -5    0.18    0.09
   1   8  -5    0.24    0.11
   1   8  -5    0.17    0.12
   1   8  -5    0.16    0.11
   0   8  -5    0.10    0.10
   0   8  -5    0.27    0.11
   0   8  -5    0.07    0.13
  -1   8  -5   -0.12    0.14
  -1   8  -5   -0.03    0.10
  -1   8  -5    0.23    0.10
   1  -8   5   -0.06    0.10
  -2   8  -5    9.91    0.42
  -2   8  -5    9.20    0.42
   2  -8   5    9.14    0.42
  -3   8  -5    2.36    0.19
   3  -8   5    2.60    0.20
  -4   8  -5    0.79    0.14
   4  -8   5    0.87    0.14
   5   7  -5    0.27    0.11
   5   7  -5    0.35    0.13
   4   7  -5    0.08    0.13
   4   7  -5    0.14    0.11
   4   7  -5    0.12    0.13
   3   7  -5    3.84    0.30
   3   7  -5    3.46    0.27
   3   7  -5    3.11    0.28
   2   7  -5    5.70    0.35
   2   7  -5    5.23    0.33
   2   7  -5    5.01    0.34
   1   7  -5    0.38    0.13
   1   7  -5    0.23    0.12
   1   7  -5    0.30    0.13
   0   7  -5    2.98    0.28
   0   7  -5    2.99    0.27
   0   7  -5    2.60    0.26
  -1   7  -5    1.03    0.26
  -1   7  -5    1.00    0.22
  -1   7  -5    1.23    0.24
  -2   7  -5    0.49    0.13
  -2   7  -5    0.05    0.18
  -2   7  -5    0.78    0.25
   2  -7   5    0.47    0.13
  -3   7  -5    5.18    0.31
   3  -7   5    5.08    0.31
  -4   7  -5    2.17    0.20
   4  -7   5    2.07    0.19
  -5   7  -5    3.86    0.28
  -5   7  -5    4.08    0.23
   5  -7   5    4.27    0.23
   6   6  -5    3.44    0.27
   6   6  -5    3.33    0.23
   5   6  -5    7.90    0.40
   5   6  -5    8.41    0.42
   4   6  -5    2.08    0.25
   4   6  -5    1.88    0.25
   4   6  -5    2.51    0.27
   3   6  -5   47.75    1.67
   3   6  -5   47.06    1.66
   3   6  -5   46.20    1.65
   2   6  -5    6.89    0.40
   2   6  -5    7.09    0.40
   2   6  -5    6.83    0.40
   1   6  -5    1.65    0.28
   1   6  -5    1.51    0.32
   1   6  -5    1.47    0.23
   1   6  -5    1.36    0.23
   0   6  -5    0.29    0.20
   0   6  -5    0.69    0.23
   0   6  -5    0.32    0.14
   0   6  -5    0.50    0.16
  -1   6  -5    9.13    0.48
  -1   6  -5    9.82    0.51
  -1   6  -5    9.15    0.48
  -1   6  -5    9.64    0.49
  -2   6  -5    6.26    0.38
  -2   6  -5    6.17    0.41
  -2   6  -5    6.14    0.39
   2  -6   5    5.83    0.38
  -3   6  -5    7.81    0.42
  -3   6  -5    7.86    0.41
   3  -6   5    7.72    0.42
  -4   6  -5    1.48    0.21
  -4   6  -5    0.89    0.23
   4  -6   5    0.81    0.21
  -5   6  -5    1.86    0.20
  -5   6  -5    2.11    0.21
   5  -6   5    2.18    0.21
  -6   6  -5    0.47    0.15
  -6   6  -5    0.72    0.19
   6  -6   5    0.56    0.12
   7   5  -5    0.09    0.12
   7   5  -5   -0.13    0.19
   6   5  -5    1.34    0.22
   6   5  -5    1.12    0.22
   6   5  -5    1.33    0.24
   5   5  -5    9.71    0.50
   5   5  -5    9.92    0.48
   5   5  -5   10.26    0.49
   4   5  -5   17.94    0.73
   4   5  -5   17.27    0.73
   4   5  -5   18.12    0.75
   4   5  -5   17.13    0.73
   3   5  -5   96.16    3.28
   3   5  -5   98.37    3.29
   3   5  -5  100.60    3.29
   3   5  -5   97.07    3.27
   2   5  -5   29.46    1.10
   2   5  -5   29.28    1.08
   2   5  -5   29.52    1.09
   2   5  -5   27.39    1.08
   1   5  -5   21.34    0.84
   1   5  -5   21.17    0.86
   1   5  -5   21.57    0.84
   0   5  -5   11.58    0.56
   0   5  -5   11.67    0.54
   0   5  -5   11.42    0.53
   0   5  -5   11.22    0.54
   0  -5   5   10.24    0.59
  -1   5  -5    4.36    0.37
  -1   5  -5    4.29    0.35
  -1   5  -5    4.07    0.32
  -1   5  -5    4.39    0.34
  -2   5  -5    4.72    0.33
  -2   5  -5    4.05    0.33
  -2   5  -5    3.37    0.43
   2  -5   5    3.64    0.34
  -3   5  -5    0.52    0.16
  -3   5  -5    0.46    0.16
   3  -5   5    0.40    0.14
  -4   5  -5   38.11    1.40
  -4   5  -5   40.84    1.39
   4  -5   5   38.40    1.39
  -5   5  -5    0.83    0.24
  -5   5  -5    0.35    0.12
   5  -5   5    0.27    0.11
  -6   5  -5    0.90    0.16
  -6   5  -5    0.74    0.15
   6  -5   5    0.95    0.16
  -7   5  -5    0.27    0.08
   7  -5   5    0.08    0.07
   8   4  -5    5.81    0.28
   7   4  -5    7.01    0.34
   7   4  -5    6.81    0.33
   6   4  -5    3.58    0.29
   6   4  -5    4.16    0.31
   6   4  -5    3.98    0.29
   5   4  -5   13.58    0.59
   5   4  -5   12.69    0.60
   5   4  -5   14.10    0.61
   4   4  -5   21.64    0.85
   4   4  -5   21.45    0.86
   4   4  -5   20.53    0.85
   4   4  -5   21.74    0.85
   3   4  -5    1.17    0.23
   3   4  -5    1.26    0.31
   3   4  -5    1.10    0.26
   3   4  -5    0.89    0.25
  -3  -4   5    1.51    0.40
   2   4  -5   48.96    1.67
   2   4  -5   49.19    1.67
   2   4  -5   45.28    1.66
   2   4  -5   48.12    1.68
  -2  -4   5   46.79    1.72
   1   4  -5    0.39    0.18
   1   4  -5    0.05    0.15
   1   4  -5    0.21    0.16
   1   4  -5    0.15    0.13
  -1  -4   5    0.42    0.17
   0   4  -5    7.13    0.44
   0   4  -5    7.03    0.44
   0   4  -5    6.93    0.38
   0   4  -5    7.42    0.43
   0  -4   5    6.97    0.37
  -1   4  -5    0.09    0.16
  -1   4  -5   -0.32    0.23
  -1   4  -5    0.04    0.15
  -1   4  -5    0.03    0.13
   1  -4   5    0.09    0.17
  -2   4  -5    0.81    0.24
  -2   4  -5    0.22    0.16
   2  -4   5    0.11    0.20
   2  -4   5    0.13    0.15
  -3   4  -5    5.66    0.41
   3  -4   5    5.99    0.38
  -4   4  -5    2.53    0.26
  -4   4  -5    2.68    0.33
   4  -4   5    2.60    0.28
  -5   4  -5    0.11    0.11
  -5   4  -5    0.25    0.17
   5  -4   5    0.19    0.11
  -6   4  -5    3.96    0.49
  -6   4  -5    4.05    0.27
   6  -4   5    4.41    0.47
   6  -4   5    3.93    0.26
  -7   4  -5    1.07    0.14
   7  -4   5    1.17    0.14
   8   3  -5    6.87    0.31
   8   3  -5    6.70    0.31
   8   3  -5    6.96    0.32
   7   3  -5    0.56    0.17
   7   3  -5    0.60    0.18
   7   3  -5    0.43    0.12
   6   3  -5    2.42    0.27
   6   3  -5    2.44    0.29
   6   3  -5    2.86    0.26
   6   3  -5    2.30    0.26
   5   3  -5   19.48    0.78
   5   3  -5   18.73    0.77
   5   3  -5   18.61    0.76
   5   3  -5   17.82    0.78
   4   3  -5    0.27    0.22
   4   3  -5    0.35    0.17
   4   3  -5    0.12    0.14
   4   3  -5    0.46    0.18
  -4  -3   5    0.52    0.28
   3   3  -5   -0.16    0.16
   3   3  -5    0.14    0.13
   3   3  -5    0.38    0.26
   3   3  -5    0.23    0.16
  -3  -3   5    0.15    0.18
   2   3  -5    0.30    0.12
   2   3  -5    0.29    0.16
   2   3  -5    0.36    0.17
   2   3  -5    0.23    0.20
  -2  -3   5    0.32    0.13
   1   3  -5    5.51    0.32
  -1  -3   5    5.53    0.33
  -1  -3   5    5.62    0.28
   0   3  -5   47.54    1.65
   0  -3   5   48.18    1.61
  -1   3  -5   49.43    1.64
  -1   3  -5   46.82    1.65
   1  -3   5   45.94    1.61
  -2   3  -5    0.08    0.14
  -2   3  -5    0.15    0.21
   2  -3   5    0.25    0.15
   2  -3   5    0.16    0.17
  -3   3  -5    1.65    0.26
  -3   3  -5    1.36    0.38
   3  -3   5    1.53    0.31
   3  -3   5    1.40    0.23
   3  -3   5    1.33    0.32
  -4   3  -5    5.88    0.47
  -4   3  -5    6.61    0.37
   4  -3   5    6.41    0.40
  -5   3  -5    1.75    0.24
  -5   3  -5    2.83    0.64
   5  -3   5    1.95    0.25
  -6   3  -5    0.01    0.10
   6  -3   5    0.20    0.10
   6  -3   5    0.29    0.16
  -7   3  -5    0.05    0.08
   7  -3   5    0.04    0.07
   7  -3   5   -0.15    0.13
   8   2  -5    0.41    0.13
   8   2  -5    0.35    0.10
   8   2  -5    0.05    0.13
   8   2  -5    0.19    0.08
   6   2  -5    0.68    0.15
   6   2  -5    0.50    0.15
   6   2  -5    0.68    0.21
   6   2  -5    0.65    0.21
   6   2  -5    0.49    0.16
   5   2  -5   10.30    0.51
   5   2  -5    9.93    0.48
   5   2  -5    8.98    0.49
   5   2  -5    9.09    0.48
   4   2  -5   10.73    0.57
   4   2  -5   10.95    0.54
   4   2  -5   11.18    0.53
   4   2  -5   11.46    0.54
  -4  -2   5   10.45    0.59
   3   2  -5   13.13    0.85
   3   2  -5   14.05    0.60
   3   2  -5   14.10    0.63
   3   2  -5   14.24    0.63
   3   2  -5   14.37    0.62
  -3  -2   5   14.39    0.63
  -2  -2   5    3.48    0.26
   1   2  -5    4.84    0.30
  -1  -2   5    5.10    0.29
  -1  -2   5    5.13    0.23
   0   2  -5    3.87    0.28
   0  -2   5    4.10    0.25
   0  -2   5    3.98    0.22
   1  -2   5   12.98    0.50
   1  -2   5   12.62    0.51
  -2   2  -5  183.51    6.12
   2  -2   5  193.52    6.11
  -3   2  -5    5.22    0.35
   3  -2   5    5.19    0.37
   3  -2   5    5.79    0.40
   3  -2   5    5.23    0.36
   4  -2   5    0.31    0.13
   4  -2   5    0.15    0.17
   5  -2   5    0.40    0.20
   5  -2   5    1.39    0.29
   5  -2   5    0.78    0.23
  -6   2  -5    1.74    0.23
   6  -2   5    1.90    0.29
   6  -2   5    1.93    0.29
   6  -2   5    1.85    0.22
  -7   2  -5    4.05    0.25
   7  -2   5    3.78    0.26
   7  -2   5    4.18    0.25
  -8   2  -5    0.71    0.12
   8  -2   5    0.59    0.13
   8  -2   5    0.36    0.18
   8   1  -5    0.03    0.08
   8   1  -5    0.15    0.11
   8   1  -5    0.10    0.08
   8   1  -5    0.48    0.15
   7   1  -5    0.48    0.13
   7   1  -5    0.39    0.13
   7   1  -5    0.41    0.12
   6   1  -5    6.52    0.40
   6   1  -5    6.46    0.38
   6   1  -5    6.48    0.40
   6   1  -5    6.63    0.43
   6   1  -5    6.27    0.39
   5   1  -5    1.78    0.25
   5   1  -5    1.79    0.30
   5   1  -5    1.78    0.28
   5   1  -5    1.87    0.36
   5   1  -5    1.90    0.28
   4   1  -5   30.97    1.14
   4   1  -5   31.24    1.15
   4   1  -5   31.61    1.13
   4   1  -5   28.43    1.19
   4   1  -5   29.67    1.15
  -4  -1   5   32.53    1.19
  -3  -1   5   15.77    0.66
  -2  -1   5   23.12    0.87
  -1  -1   5    7.30    0.35
  -1  -1   5    7.92    0.28
   0  -1   5   11.54    0.42
   0  -1   5   10.95    0.45
   1  -1   5    4.07    0.22
   1  -1   5    4.48    0.23
   2  -1   5   70.71    2.43
   2  -1   5   74.76    2.42
  -3   1  -5    7.93    0.43
   3  -1   5    6.96    0.42
   3  -1   5    7.32    0.41
   3  -1   5    7.89    0.40
   3  -1   5    6.62    0.45
   4  -1   5    1.43    0.36
   4  -1   5    1.86    0.28
   4  -1   5    2.00    0.29
   4  -1   5    2.46    0.43
   5  -1   5    0.35    0.24
   5  -1   5    0.75    0.25
   5  -1   5    0.10    0.19
   5  -1   5    0.26    0.15
   6  -1   5    4.40    0.37
   6  -1   5    3.71    0.32
   6  -1   5    3.57    0.29
   6  -1   5    3.29    0.30
  -7   1  -5    0.24    0.10
   7  -1   5    0.37    0.17
   7  -1   5    0.06    0.12
   7  -1   5    0.01    0.09
  -8   1  -5    2.34    0.17
   8  -1   5    2.23    0.19
   8  -1   5    2.46    0.17
   8   0  -5    0.96    0.16
   8   0  -5    1.18    0.16
   8   0  -5    1.14    0.15
   8   0  -5    0.61    0.18
   7   0  -5    4.03    0.30
   7   0  -5    4.38    0.31
   7   0  -5    4.09    0.30
   7   0  -5    4.33    0.29
   6   0  -5   28.18    1.08
   6   0  -5   30.07    1.09
   6   0  -5   28.89    1.10
   6   0  -5   28.89    1.10
   6   0  -5   29.72    1.11
   5   0  -5   16.04    0.69
   5   0  -5   15.83    0.67
   5   0  -5   15.53    0.70
   5   0  -5   15.33    0.67
   5   0  -5   16.20    0.70
   4   0  -5   22.47    0.85
   4   0  -5   19.58    0.83
   4   0  -5   21.71    0.90
   4   0  -5   22.45    0.88
   4   0  -5   21.46    0.87
   4   0  -5   21.71    0.87
  -4   0   5   23.17    0.90
   3   0  -5   13.60    0.53
  -3   0   5   14.14    0.59
  -3   0   5   12.66    0.62
   2   0  -5    1.63    0.15
  -2   0   5    1.23    0.26
  -2   0   5    1.25    0.17
   1   0  -5    8.40    0.31
  -1   0   5    7.63    0.38
  -1   0   5    7.52    0.35
   0   0  -5    0.90    0.11
   0   0   5    0.58    0.20
   0   0   5    0.98    0.11
   0   0   5    0.85    0.13
  -1   0  -5   16.52    0.60
   1   0   5   16.81    0.61
   1   0   5   16.66    0.60
   1   0   5   16.71    0.65
  -2   0  -5    0.47    0.15
   2   0   5    0.33    0.13
   2   0   5    0.27    0.11
  -3   0  -5    1.35    0.33
   3   0   5    0.34    0.15
   3   0   5    0.63    0.21
   3   0   5    1.16    0.30
   3   0   5    0.88    0.28
  -4   0  -5   33.75    1.35
   4   0   5   37.84    1.32
   4   0   5   36.83    1.34
   4   0   5   36.89    1.32
   4   0   5   36.12    1.35
   4   0   5   37.43    1.38
   5   0   5   18.82    0.81
   5   0   5   19.95    0.79
   5   0   5   19.83    0.79
   5   0   5   18.53    0.78
   6   0   5    2.14    0.28
   6   0   5    1.52    0.26
   6   0   5    1.96    0.26
   6   0   5    2.20    0.28
  -7   0  -5    2.99    0.24
   7   0   5    2.99    0.25
   7   0   5    3.23    0.25
   7   0   5    3.22    0.28
   7   0   5    3.14    0.25
  -8   0  -5    2.78    0.20
   8   0   5    2.16    0.25
   8   0   5    2.22    0.18
   8   0   5    2.27    0.19
   8  -1  -5    0.06    0.09
   8  -1  -5    0.23    0.09
   8  -1  -5    0.08    0.10
   8  -1  -5    0.10    0.08
   7  -1  -5    0.03    0.09
   7  -1  -5    0.08    0.11
   7  -1  -5   -0.13    0.11
   7  -1  -5    0.16    0.11
   6  -1  -5    1.33    0.27
   6  -1  -5    1.13    0.25
   6  -1  -5    1.12    0.22
   6  -1  -5    1.47    0.25
   5  -1  -5   34.13    1.32
   5  -1  -5   36.15    1.32
   5  -1  -5   36.59    1.30
   5  -1  -5   36.27    1.30
   5  -1  -5   36.40    1.32
   4  -1  -5    5.07    0.40
   4  -1  -5    5.35    0.41
   4  -1  -5    5.63    0.40
   4  -1  -5    5.70    0.36
   4  -1  -5    6.17    0.37
   4  -1  -5    5.45    0.40
  -4   1   5    6.20    0.41
   3  -1  -5    7.48    0.36
  -3   1   5    7.61    0.40
   2  -1  -5    7.46    0.33
  -2   1   5    7.22    0.41
  -2   1   5    8.13    0.38
   1  -1  -5   10.36    0.41
  -1   1   5   10.41    0.44
  -1   1   5   10.30    0.46
   0  -1  -5   -0.02    0.07
   0   1   5    0.13    0.08
   0   1   5    0.08    0.08
   0   1   5   -0.08    0.11
  -1  -1  -5   16.45    0.62
   1   1   5   17.68    0.62
   1   1   5   16.37    0.65
  -2  -1  -5    1.95    0.20
   2   1   5    1.84    0.18
   2   1   5    2.09    0.25
  -3  -1  -5   19.94    0.75
   3   1   5   17.43    0.77
   3   1   5   17.55    0.73
   3   1   5   18.55    0.76
   3   1   5   17.92    0.75
  -4  -1  -5    2.98    0.43
   4   1   5    2.54    0.39
   4   1   5    3.00    0.33
   4   1   5    3.26    0.30
   4   1   5    2.72    0.37
   4   1   5    3.88    0.34
   4   1   5    3.66    0.32
   5   1   5    5.27    0.37
   5   1   5    5.54    0.37
   5   1   5    5.78    0.40
   5   1   5    5.42    0.36
  -6  -1  -5   10.13    0.49
   6   1   5    9.61    0.49
   6   1   5   10.22    0.50
   6   1   5   10.46    0.50
   6   1   5   10.11    0.50
  -7  -1  -5    0.07    0.14
   7   1   5    0.01    0.12
   7   1   5    0.04    0.10
   7   1   5    0.11    0.09
   7   1   5    0.13    0.11
   8   1   5    1.63    0.16
   8   1   5    1.16    0.16
   8   1   5    1.55    0.17
   8  -2  -5    2.32    0.19
   8  -2  -5    2.16    0.19
   8  -2  -5    2.12    0.19
   7  -2  -5    3.76    0.27
   7  -2  -5    3.49    0.28
   7  -2  -5    3.45    0.28
   7  -2  -5    3.32    0.27
  -7   2   5    3.11    0.29
   6  -2  -5   12.09    0.56
   6  -2  -5   11.44    0.56
   6  -2  -5   11.85    0.56
   6  -2  -5   11.65    0.54
   5  -2  -5    5.25    0.35
   5  -2  -5    5.71    0.39
   5  -2  -5    6.13    0.39
   5  -2  -5    4.93    0.40
   4  -2  -5   17.28    0.74
   4  -2  -5   16.92    0.71
   4  -2  -5   17.63    0.74
   4  -2  -5   15.93    0.74
   4  -2  -5   17.72    0.71
   4  -2  -5   16.94    0.75
  -4   2   5   17.91    0.78
   3  -2  -5    0.47    0.21
   3  -2  -5    0.37    0.14
   3  -2  -5    0.46    0.15
   3  -2  -5    0.34    0.18
  -3   2   5    0.29    0.15
   2  -2  -5    1.46    0.16
  -2   2   5    1.32    0.20
  -2   2   5    1.06    0.29
   1  -2  -5    9.98    0.42
  -1   2   5    9.55    0.47
  -1   2   5   10.39    0.44
   0  -2  -5   21.04    0.76
   0   2   5   20.29    0.78
   0   2   5   21.08    0.76
  -1  -2  -5   18.44    0.69
   1   2   5   17.82    0.70
   1   2   5   18.08    0.68
  -2  -2  -5    7.03    0.38
   2   2   5    7.16    0.38
   2   2   5    7.29    0.36
  -3  -2  -5   23.06    0.90
   3   2   5   22.65    0.86
   3   2   5   22.68    0.88
   3   2   5   22.76    0.89
   3   2   5   22.01    0.89
   3   2   5   22.38    0.92
   3   2   5   22.28    0.88
   4   2   5    5.31    0.41
   4   2   5    5.03    0.38
   4   2   5    5.31    0.37
   4   2   5    5.09    0.37
   4   2   5    5.26    0.37
   5   2   5    0.05    0.16
   5   2   5   -0.09    0.12
   5   2   5    0.43    0.15
   5   2   5    0.09    0.12
   6   2   5    0.32    0.13
   6   2   5    0.28    0.13
   6   2   5    0.50    0.15
   7   2   5    0.17    0.11
   7   2   5    0.18    0.10
   7   2   5    0.21    0.09
   8   2   5    0.07    0.07
   8   2   5    0.03    0.08
   8   2   5   -0.04    0.07
   8  -3  -5    6.41    0.30
   8  -3  -5    6.49    0.31
   8  -3  -5    6.12    0.30
   7  -3  -5    0.07    0.10
   7  -3  -5    0.16    0.12
   7  -3  -5    0.10    0.13
  -7   3   5    0.30    0.12
   6  -3  -5    1.48    0.28
   6  -3  -5    1.63    0.25
   6  -3  -5    1.46    0.24
   6  -3  -5    1.46    0.27
   5  -3  -5    9.48    0.47
   5  -3  -5    9.50    0.52
   5  -3  -5    9.18    0.50
   5  -3  -5    9.05    0.49
   4  -3  -5    2.98    0.35
   4  -3  -5    2.31    0.32
   4  -3  -5    2.67    0.32
   4  -3  -5    1.82    0.39
   3  -3  -5    1.87    0.29
   3  -3  -5    1.42    0.36
   3  -3  -5    1.57    0.44
   3  -3  -5    1.54    0.31
  -3   3   5    1.91    0.30
   2  -3  -5    3.26    0.36
   2  -3  -5    3.27    0.27
  -2   3   5    2.72    0.27
  -2   3   5    3.15    0.28
   1  -3  -5    0.63    0.17
  -1   3   5    0.70    0.17
  -1   3   5    0.97    0.20
   0  -3  -5    1.77    0.20
   0  -3  -5    1.62    0.20
   0   3   5    1.70    0.21
   0   3   5    1.63    0.20
  -1  -3  -5    0.64    0.17
   1   3   5    0.63    0.20
   1   3   5    0.59    0.20
  -2  -3  -5   40.75    1.42
   2   3   5   39.19    1.43
   2   3   5   38.77    1.42
   2   3   5   39.14    1.40
   2   3   5   39.52    1.41
  -3  -3  -5   22.98    0.98
   3   3   5   24.34    0.91
   3   3   5   23.41    0.92
   3   3   5   22.87    0.92
   3   3   5   24.40    0.94
   3   3   5   23.37    0.99
   4   3   5   39.94    1.45
   4   3   5   39.66    1.43
   4   3   5   40.22    1.44
   4   3   5   40.23    1.43
   4   3   5   39.65    1.43
   5   3   5    3.91    0.33
   5   3   5    3.16    0.30
   5   3   5    3.42    0.31
   5   3   5    3.61    0.33
   6   3   5    1.80    0.24
   6   3   5    1.56    0.23
   6   3   5    1.59    0.22
   7   3   5    4.50    0.26
   7   3   5    4.28    0.25
   7   3   5    4.23    0.25
   8  -4  -5    3.22    0.20
  -8   4   5    3.42    0.19
   7  -4  -5    2.78    0.30
   7  -4  -5    2.23    0.21
  -7   4   5    2.37    0.21
   6  -4  -5    0.32    0.12
   6  -4  -5    0.69    0.19
   6  -4  -5    0.64    0.18
  -6   4   5    0.76    0.20
   5  -4  -5   13.70    0.67
   5  -4  -5   14.47    0.62
   5  -4  -5   14.08    0.65
   5  -4  -5   14.80    0.65
  -5   4   5   14.64    0.62
   4  -4  -5    4.60    0.37
   4  -4  -5    5.28    0.39
   4  -4  -5    5.31    0.43
   4  -4  -5    4.27    0.47
   3  -4  -5   24.93    0.97
   3  -4  -5   23.97    0.97
   3  -4  -5   26.09    0.95
   3  -4  -5   24.87    1.00
   3  -4  -5   24.17    1.00
  -3   4   5   22.12    1.01
   2  -4  -5    1.47    0.29
   2  -4  -5    1.16    0.30
  -2   4   5    1.19    0.28
  -2   4   5    1.33    0.27
   1  -4  -5    5.44    0.38
  -1   4   5    5.09    0.48
  -1   4   5    5.35    0.35
  -1   4   5    5.68    0.40
  -1   4   5    6.07    0.38
   0  -4  -5   20.92    0.81
   0  -4  -5   21.08    0.85
   0   4   5   20.97    0.81
   0   4   5   21.66    0.89
   0   4   5   20.89    0.84
  -1  -4  -5    3.56    0.50
  -1  -4  -5    3.08    0.32
   1   4   5    3.23    0.38
   1   4   5    3.32    0.33
   1   4   5    3.37    0.27
   1   4   5    2.85    0.47
  -2  -4  -5    0.47    0.26
   2   4   5    0.03    0.12
   2   4   5   -0.01    0.14
   2   4   5    0.16    0.18
   2   4   5    0.03    0.18
   3   4   5    8.02    0.44
   3   4   5    7.07    0.44
   3   4   5    6.54    0.44
   3   4   5    8.24    0.42
   4   4   5   51.03    1.82
   4   4   5   52.02    1.83
   4   4   5   52.71    1.83
   4   4   5   52.54    1.83
   5   4   5   12.15    0.57
   5   4   5   12.15    0.56
   5   4   5   12.80    0.56
   6   4   5    0.28    0.10
   6   4   5    0.24    0.11
   6   4   5    0.16    0.09
   7   4   5    0.88    0.14
   7   4   5    0.90    0.15
   7   4   5    1.05    0.14
   7  -5  -5   -0.01    0.08
   7  -5  -5    0.34    0.15
  -7   5   5    0.08    0.08
  -7   5   5    0.02    0.10
   6  -5  -5    6.33    0.35
   6  -5  -5    6.49    0.37
  -6   5   5    5.96    0.32
   5  -5  -5    6.77    0.40
   5  -5  -5    7.02    0.40
  -5   5   5    6.52    0.37
   4  -5  -5    0.15    0.14
   4  -5  -5    0.27    0.18
  -4   5   5    0.32    0.13
   3  -5  -5   18.46    0.78
   3  -5  -5   19.24    0.78
  -3   5   5   18.79    0.75
   2  -5  -5   10.40    0.54
  -2   5   5   10.77    0.54
  -2   5   5   11.66    0.52
  -1   5   5    4.57    0.33
  -1   5   5    4.41    0.33
  -1   5   5    3.49    0.45
  -1   5   5    4.33    0.38
   0  -5  -5   12.56    0.84
   0   5   5   13.65    0.73
   0   5   5   14.58    0.64
   0   5   5   14.71    0.66
   0   5   5   14.13    0.61
   0   5   5   14.24    0.75
  -1  -5  -5    0.95    0.33
   1   5   5    1.36    0.35
   1   5   5    1.06    0.31
   1   5   5    1.06    0.21
   2   5   5    2.89    0.28
   2   5   5    2.49    0.29
   2   5   5    2.69    0.32
   2   5   5    3.01    0.34
   3   5   5    8.62    0.45
   3   5   5    8.43    0.47
   3   5   5    8.17    0.46
   3   5   5    8.13    0.47
   4   5   5    4.40    0.34
   4   5   5    4.58    0.34
   4   5   5    4.60    0.32
   4   5   5    4.80    0.34
   5   5   5    6.60    0.36
   5   5   5    6.25    0.36
   5   5   5    6.99    0.36
   5   5   5    5.48    0.39
   6   5   5    0.30    0.10
   6   5   5    0.32    0.09
   6   5   5    0.27    0.09
   7  -6  -5    0.22    0.08
  -7   6   5    0.55    0.16
  -7   6   5    0.12    0.09
   6  -6  -5    0.68    0.18
   6  -6  -5    1.33    0.21
  -6   6   5    1.14    0.16
  -6   6   5    1.06    0.19
   5  -6  -5    1.00    0.22
   5  -6  -5    1.70    0.24
  -5   6   5    1.22    0.24
  -5   6   5    1.43    0.18
   4  -6  -5    6.23    0.40
   4  -6  -5    6.85    0.40
  -4   6   5    6.74    0.36
   3  -6  -5   29.95    1.11
   3  -6  -5   29.38    1.10
  -3   6   5   28.45    1.08
   2  -6  -5   12.92    0.60
  -2   6   5   12.31    0.56
  -2   6   5   13.12    0.61
   1  -6  -5    0.42    0.16
  -1   6   5    0.30    0.14
  -1   6   5    0.82    0.28
   0   6   5   43.49    1.53
   0   6   5   41.44    1.53
   0   6   5   42.04    1.51
   0   6   5   43.50    1.53
   1   6   5    2.06    0.34
   1   6   5    1.92    0.31
   1   6   5    1.89    0.26
   2   6   5   -0.01    0.15
   2   6   5    0.08    0.15
   2   6   5    0.34    0.15
   3   6   5    6.85    0.41
   3   6   5    7.13    0.42
   3   6   5    7.82    0.42
   3   6   5    7.39    0.40
   4   6   5   13.03    0.60
   4   6   5   14.41    0.60
   4   6   5   13.90    0.59
   5   6   5   -0.14    0.08
   5   6   5    0.11    0.09
   5   6   5   -0.06    0.18
   5   6   5    0.03    0.10
   6   6   5    6.87    0.31
   6   6   5    6.90    0.31
   6  -7  -5    1.59    0.18
   6  -7  -5    1.97    0.20
  -6   7   5    1.70    0.15
   5  -7  -5   -0.01    0.10
   5  -7  -5    0.12    0.10
  -5   7   5    0.05    0.08
   4  -7  -5    2.70    0.26
   4  -7  -5    2.08    0.26
  -4   7   5    2.00    0.20
   3  -7  -5    1.68    0.25
   3  -7  -5    1.56    0.27
  -3   7   5    1.39    0.19
   2  -7  -5    6.78    0.41
  -2   7   5    6.24    0.45
  -2   7   5    6.82    0.37
   1  -7  -5   13.34    0.59
  -1   7   5   12.72    0.59
  -1   7   5   12.75    0.57
   0  -7  -5   10.45    0.52
   0   7   5   10.47    0.51
   0   7   5   10.79    0.54
   0   7   5   10.64    0.50
   0   7   5    9.59    0.50
   1   7   5    6.36    0.38
   1   7   5    6.25    0.39
   1   7   5    5.52    0.36
   2   7   5   -0.08    0.12
   2   7   5   -0.03    0.13
   2   7   5    0.08    0.13
   3   7   5    1.97    0.24
   3   7   5    1.61    0.22
   3   7   5    1.63    0.22
   4   7   5    0.14    0.10
   4   7   5    0.26    0.14
   4   7   5    0.21    0.09
   5   7   5   -0.08    0.07
   5   7   5    0.02    0.07
   5  -8  -5    0.84    0.15
  -5   8   5    0.83    0.11
   4  -8  -5    0.38    0.11
  -4   8   5    0.50    0.12
   3  -8  -5    0.37    0.12
   3  -8  -5    0.46    0.14
  -3   8   5    0.21    0.09
   2  -8  -5    0.78    0.24
   2  -8  -5    0.36    0.12
  -2   8   5    0.59    0.17
   1  -8  -5    0.80    0.25
  -1   8   5    0.68    0.19
  -1   8   5    0.82    0.26
   0  -8  -5    6.10    0.36
   0   8   5    6.21    0.36
   0   8   5    5.62    0.37
  -1  -8  -5   -0.01    0.12
   1   8   5    0.03    0.12
   1   8   5    0.02    0.11
   1   8   5    0.01    0.10
  -2  -8  -5    1.56    0.22
   2   8   5    1.31    0.18
   2   8   5    1.30    0.21
   2   8   5    1.58    0.20
   3   8   5    0.61    0.16
   3   8   5    0.50    0.15
   3   8   5    0.28    0.12
   4   8   5    0.63    0.20
   4   8   5    0.47    0.14
   3  -9  -5    3.59    0.21
  -3   9   5    3.24    0.18
   2  -9  -5    1.06    0.15
  -2   9   5    1.00    0.14
   1  -9  -5    0.02    0.08
  -1   9   5    0.01    0.10
   0   9   5    3.69    0.27
   0   9   5    3.01    0.33
   1   9   5    0.20    0.13
   1   9   5    0.01    0.11
   2   9   5    0.07    0.10
   2   9   5    0.09    0.08
   2   9  -6    0.08    0.07
   2   9  -6    0.26    0.10
   1   9  -6    3.32    0.19
   1   9  -6    3.24    0.20
   0   9  -6    2.43    0.17
   0   9  -6    2.36    0.17
  -1   9  -6    3.91    0.21
  -1   9  -6    3.85    0.22
   1  -9   6    4.65    0.37
   4   8  -6    0.20    0.12
   4   8  -6    0.12    0.08
   3   8  -6    7.35    0.34
   3   8  -6    7.43    0.33
   2   8  -6    1.84    0.19
   2   8  -6    2.03    0.22
   2   8  -6    1.95    0.18
   1   8  -6    9.03    0.43
   1   8  -6    8.85    0.41
   1   8  -6    9.52    0.42
   0   8  -6    4.75    0.28
   0   8  -6    5.05    0.28
   0  -8   6    5.37    0.33
  -1   8  -6   -0.04    0.10
  -1   8  -6    0.29    0.10
   1  -8   6    0.10    0.11
  -2   8  -6   10.24    0.42
   2  -8   6    9.92    0.42
  -3   8  -6    8.17    0.35
   3  -8   6    8.63    0.36
   5   7  -6    0.66    0.17
   5   7  -6    0.86    0.13
   4   7  -6    0.79    0.19
   4   7  -6    1.05    0.16
   3   7  -6    5.22    0.29
   3   7  -6    4.60    0.31
   3   7  -6    5.02    0.30
   2   7  -6    8.81    0.43
   2   7  -6    9.76    0.44
   2   7  -6    8.76    0.45
   1   7  -6    0.29    0.12
   1   7  -6    0.61    0.21
   1   7  -6    0.20    0.11
   1   7  -6   -0.02    0.22
   0   7  -6    0.08    0.12
   0   7  -6    0.19    0.12
   0   7  -6    0.01    0.13
   0   7  -6   -0.19    0.16
   0  -7   6   -0.10    0.15
  -1   7  -6    0.11    0.11
  -1   7  -6    0.01    0.13
  -1   7  -6    0.15    0.17
   1  -7   6    0.39    0.13
  -2   7  -6    0.91    0.26
  -2   7  -6    1.04    0.20
  -2   7  -6    0.76    0.17
   2  -7   6    1.38    0.21
  -3   7  -6    0.71    0.17
  -3   7  -6    0.75    0.21
  -4   7  -6    8.38    0.36
  -4   7  -6    8.13    0.37
   4  -7   6    8.58    0.36
  -5   7  -6    1.79    0.19
   5  -7   6    1.81    0.14
   6   6  -6    0.04    0.10
   6   6  -6    0.09    0.10
   5   6  -6   10.34    0.45
   5   6  -6   10.16    0.44
   4   6  -6   11.51    0.51
   4   6  -6   11.46    0.51
   3   6  -6    0.12    0.17
   3   6  -6    0.05    0.12
   3   6  -6   -0.02    0.13
   3   6  -6    0.11    0.11
   2   6  -6    2.81    0.27
   2   6  -6    2.64    0.28
   2   6  -6    2.78    0.33
   2   6  -6    2.70    0.29
   1   6  -6    1.69    0.23
   1   6  -6    1.48    0.25
   1   6  -6    1.24    0.27
   1   6  -6    1.48    0.25
   0   6  -6    5.98    0.37
   0   6  -6    5.86    0.39
   0   6  -6    5.64    0.37
   0   6  -6    5.30    0.36
   0  -6   6    5.53    0.44
  -1   6  -6    2.48    0.29
  -1   6  -6    2.21    0.26
  -1   6  -6    2.50    0.30
   1  -6   6    2.14    0.31
  -2   6  -6    4.94    0.34
  -2   6  -6    4.96    0.34
   2  -6   6    5.40    0.35
  -3   6  -6    0.04    0.11
  -3   6  -6    0.09    0.14
   3  -6   6    0.11    0.11
  -4   6  -6   -0.06    0.11
  -4   6  -6   -0.08    0.11
   4  -6   6    0.09    0.09
  -5   6  -6    0.13    0.11
  -5   6  -6   -0.11    0.09
   5  -6   6   -0.07    0.07
   7   5  -6    0.15    0.10
   6   5  -6    1.53    0.19
   6   5  -6    1.28    0.19
   6   5  -6    1.14    0.17
   5   5  -6    0.13    0.12
   5   5  -6    0.10    0.14
   5   5  -6    0.46    0.14
   4   5  -6   15.24    0.65
   4   5  -6   16.00    0.68
   4   5  -6   15.13    0.65
   3   5  -6   24.91    0.97
   3   5  -6   25.01    0.96
   3   5  -6   24.65    0.96
   3   5  -6   25.14    0.97
   2   5  -6    0.95    0.24
   2   5  -6    0.78    0.23
   2   5  -6    0.84    0.22
   2   5  -6    0.51    0.16
   1   5  -6   21.29    0.83
   1   5  -6   20.90    0.83
   1   5  -6   20.44    0.84
   1   5  -6   20.64    0.84
   0   5  -6    2.66    0.29
   0   5  -6    2.60    0.31
   0   5  -6    2.81    0.28
   0   5  -6    2.74    0.30
  -1   5  -6   14.72    0.63
  -1   5  -6   14.33    0.65
  -1   5  -6   15.39    0.65
   1  -5   6   13.75    0.66
  -2   5  -6    1.14    0.25
  -2   5  -6    0.93    0.27
   2  -5   6    1.29    0.29
  -3   5  -6   -0.07    0.14
  -3   5  -6    0.15    0.13
   3  -5   6   -0.07    0.12
  -4   5  -6    1.54    0.26
  -4   5  -6    1.31    0.21
   4  -5   6    1.50    0.23
  -5   5  -6    0.12    0.09
  -5   5  -6    0.25    0.14
   5  -5   6    0.14    0.09
  -6   5  -6    0.07    0.08
   6  -5   6    0.12    0.06
   7   4  -6    1.72    0.17
   7   4  -6    1.64    0.17
   6   4  -6    3.04    0.24
   6   4  -6    2.78    0.24
   6   4  -6    3.02    0.24
   5   4  -6    1.25    0.25
   5   4  -6    0.96    0.23
   5   4  -6    1.34    0.26
   4   4  -6   -0.16    0.13
   4   4  -6    0.08    0.14
   4   4  -6    0.36    0.15
   3   4  -6    4.62    0.35
   3   4  -6    4.15    0.32
   3   4  -6    4.07    0.32
   3   4  -6    3.83    0.33
   2   4  -6    5.65    0.37
   2   4  -6    5.28    0.37
   2   4  -6    5.38    0.37
   2   4  -6    5.51    0.35
   1   4  -6    0.13    0.17
   1   4  -6    0.13    0.13
   1   4  -6    0.04    0.15
   1   4  -6    0.16    0.14
  -1  -4   6    0.04    0.27
   0   4  -6    0.46    0.16
   0   4  -6    0.78    0.21
   0   4  -6    0.90    0.27
   0   4  -6    0.65    0.18
   0  -4   6    0.61    0.27
  -1   4  -6    1.00    0.23
  -1   4  -6    1.03    0.26
   1  -4   6    1.62    0.37
   1  -4   6    1.29    0.33
  -2   4  -6    0.55    0.17
  -2   4  -6    0.19    0.15
   2  -4   6    0.24    0.17
  -3   4  -6    1.19    0.24
  -3   4  -6    1.67    0.32
   3  -4   6    1.18    0.26
  -4   4  -6    0.81    0.22
  -4   4  -6    1.16    0.32
  -5   4  -6    0.25    0.11
   5  -4   6    0.17    0.10
  -6   4  -6    0.24    0.10
   6  -4   6    0.18    0.08
  -7   4  -6    1.19    0.13
   7  -4   6    1.46    0.13
   8   3  -6    2.25    0.21
   8   3  -6    3.00    0.18
   8   3  -6    2.70    0.17
   7   3  -6    3.46    0.24
   7   3  -6    3.36    0.24
   7   3  -6    3.30    0.23
   7   3  -6    3.20    0.23
   6   3  -6    2.75    0.25
   6   3  -6    2.26    0.27
   6   3  -6    2.90    0.25
   6   3  -6    2.82    0.25
   5   3  -6   12.99    0.59
   5   3  -6   13.04    0.58
   5   3  -6   13.18    0.60
   5   3  -6   12.63    0.60
   4   3  -6   15.48    0.73
   4   3  -6   16.46    0.70
   4   3  -6   15.97    0.69
   4   3  -6   17.04    0.69
   3   3  -6    0.37    0.24
   3   3  -6    0.28    0.17
   3   3  -6    0.47    0.16
   3   3  -6    0.40    0.16
   2   3  -6    0.22    0.23
   2   3  -6    0.32    0.17
   2   3  -6   -0.02    0.15
   2   3  -6    0.19    0.18
   2   3  -6    0.28    0.14
  -2  -3   6    0.16    0.20
   1   3  -6    6.75    0.43
   1   3  -6    7.29    0.39
   1   3  -6    6.51    0.44
   1   3  -6    7.49    0.42
  -1  -3   6    7.51    0.45
   0   3  -6   10.31    0.52
   0   3  -6    9.99    0.54
   0   3  -6   10.48    0.55
   0  -3   6   10.46    0.54
  -1   3  -6    2.25    0.36
  -1   3  -6    1.84    0.27
   1  -3   6    1.42    0.32
   1  -3   6    2.14    0.29
  -2   3  -6    8.61    0.55
  -2   3  -6    9.90    0.49
   2  -3   6    8.99    0.53
   2  -3   6    9.84    0.52
  -3   3  -6    8.26    0.44
  -3   3  -6    8.00    0.53
   3  -3   6    7.81    0.47
   3  -3   6    8.23    0.46
  -4   3  -6    2.13    0.26
   4  -3   6    2.37    0.26
  -5   3  -6    0.02    0.11
   5  -3   6   -0.02    0.11
  -6   3  -6    1.62    0.19
   6  -3   6    1.94    0.19
  -7   3  -6    1.50    0.14
   7  -3   6    1.53    0.15
   8   2  -6    4.10    0.22
   8   2  -6    3.94    0.22
   8   2  -6    4.00    0.22
   7   2  -6    0.03    0.09
   7   2  -6    0.03    0.12
   7   2  -6    0.05    0.10
   7   2  -6   -0.08    0.08
   6   2  -6    1.71    0.25
   6   2  -6    1.40    0.22
   6   2  -6    1.15    0.25
   5   2  -6   65.39    2.23
   5   2  -6   65.06    2.24
   5   2  -6   64.87    2.22
   5   2  -6   63.39    2.22
   4   2  -6    4.49    0.33
   4   2  -6    4.67    0.35
   4   2  -6    4.26    0.35
   4   2  -6    4.13    0.38
   3   2  -6   -0.06    0.19
   3   2  -6    0.11    0.15
   3   2  -6    0.07    0.16
   3   2  -6    0.17    0.12
  -3  -2   6    0.09    0.20
   2   2  -6    1.40    0.29
   2   2  -6    1.05    0.24
   2   2  -6    1.01    0.29
  -2  -2   6    0.97    0.26
   1   2  -6    7.06    0.43
   1   2  -6    6.99    0.45
   1   2  -6    6.84    0.45
  -1  -2   6    6.94    0.40
   0   2  -6    0.46    0.18
   0  -2   6    0.43    0.16
   0  -2   6    0.61    0.16
  -1   2  -6    3.05    0.45
  -1   2  -6    3.04    0.30
   1  -2   6    3.34    0.28
  -2   2  -6   13.13    0.59
   2  -2   6   12.20    0.63
   2  -2   6   13.30    0.61
   2  -2   6   13.47    0.57
  -3   2  -6   82.63    2.78
   3  -2   6   81.11    2.77
   3  -2   6   84.33    2.77
  -4   2  -6   16.91    0.71
   4  -2   6   16.89    0.70
   5  -2   6    7.59    0.41
  -6   2  -6    1.31    0.19
   6  -2   6    1.22    0.19
  -7   2  -6    1.33    0.15
   7  -2   6    1.27    0.16
   8   1  -6    0.56    0.12
   8   1  -6    0.73    0.13
   8   1  -6    1.07    0.21
   8   1  -6    0.54    0.13
   7   1  -6    0.46    0.15
   7   1  -6    0.11    0.14
   7   1  -6    0.55    0.18
   6   1  -6    0.02    0.17
   6   1  -6   -0.18    0.12
   6   1  -6   -0.05    0.12
   6   1  -6    0.06    0.12
   6   1  -6    0.21    0.13
   5   1  -6    0.08    0.14
   5   1  -6   -0.27    0.18
   5   1  -6    0.20    0.16
   5   1  -6   -0.09    0.13
   5   1  -6    0.25    0.14
   4   1  -6    2.05    0.26
   4   1  -6    1.53    0.28
   4   1  -6    2.11    0.29
   4   1  -6    1.82    0.31
   3   1  -6   -0.15    0.16
   3   1  -6    0.08    0.17
   3   1  -6    0.04    0.15
   3   1  -6    0.05    0.16
  -3  -1   6    0.30    0.18
   2   1  -6   30.97    1.17
   2   1  -6   31.44    1.17
   2   1  -6   31.40    1.15
   2   1  -6   31.98    1.17
  -2  -1   6   31.26    1.17
  -1  -1   6    0.70    0.20
   0  -1   6    0.40    0.14
   0  -1   6    0.46    0.13
  -1   1  -6    7.24    0.43
   1  -1   6    7.56    0.39
   1  -1   6    7.59    0.37
  -2   1  -6    6.32    0.39
   2  -1   6    5.61    0.46
   2  -1   6    5.90    0.38
   2  -1   6    6.16    0.36
  -3   1  -6    1.46    0.26
   3  -1   6    0.98    0.20
   3  -1   6    0.81    0.19
   3  -1   6    1.61    0.37
  -4   1  -6    0.06    0.16
   4  -1   6    0.07    0.12
   4  -1   6   -0.05    0.20
  -5   1  -6    2.90    0.29
   5  -1   6    2.94    0.40
   5  -1   6    3.26    0.28
  -6   1  -6    0.42    0.13
   6  -1   6    0.13    0.17
   6  -1   6    0.47    0.12
  -7   1  -6    0.12    0.10
   7  -1   6    0.03    0.15
   7  -1   6    0.03    0.07
   8   0  -6   -0.02    0.07
   8   0  -6    0.25    0.10
   8   0  -6   -0.06    0.07
   8   0  -6    0.00    0.07
   7   0  -6   -0.19    0.10
   7   0  -6   -0.02    0.09
   7   0  -6    0.11    0.10
   7   0  -6   -0.02    0.09
   6   0  -6   -0.09    0.12
   6   0  -6   -0.03    0.14
   6   0  -6    0.15    0.12
   6   0  -6   -0.10    0.11
   6   0  -6    0.12    0.12
   5   0  -6   18.97    0.77
   5   0  -6   18.73    0.78
   5   0  -6   18.40    0.78
   5   0  -6   18.42    0.78
   5   0  -6   19.07    0.76
   4   0  -6   21.54    0.85
   4   0  -6   22.07    0.83
   4   0  -6   20.27    0.86
   4   0  -6   20.86    0.85
   4   0  -6   20.34    0.85
  -4   0   6   18.93    0.93
   3   0  -6   11.45    0.58
   3   0  -6   11.81    0.58
   3   0  -6   12.62    0.56
   3   0  -6   13.55    0.60
   3   0  -6   11.47    0.68
  -3   0   6   13.20    0.61
  -3   0   6   11.50    0.56
   2   0  -6   24.69    0.98
   2   0  -6   24.42    0.96
  -2   0   6   25.83    0.94
  -2   0   6   26.24    0.98
  -1   0   6    4.71    0.30
  -1   0   6    4.34    0.30
   0   0   6    1.26    0.16
   0   0   6    1.39    0.22
   0   0   6    0.79    0.19
   1   0   6    0.69    0.20
   1   0   6    0.83    0.21
  -2   0  -6    3.34    0.37
   2   0   6    3.24    0.31
   2   0   6    2.82    0.40
   2   0   6    3.40    0.27
  -3   0  -6    5.22    0.38
   3   0   6    4.51    0.48
   3   0   6    4.82    0.37
   3   0   6    5.94    0.49
   3   0   6    4.88    0.36
  -4   0  -6    3.28    0.31
   4   0   6    3.11    0.33
   4   0   6    1.85    0.46
   4   0   6    3.13    0.39
  -5   0  -6   25.28    0.96
   5   0   6   25.24    0.97
   5   0   6   25.20    0.98
   5   0   6   25.14    0.97
  -6   0  -6    0.20    0.12
   6   0   6   -0.03    0.10
   6   0   6    0.27    0.16
   6   0   6   -0.04    0.13
  -7   0  -6    4.78    0.28
   7   0   6    4.40    0.29
   7   0   6    4.76    0.27
   7   0   6    4.87    0.30
   8  -1  -6    0.87    0.16
   8  -1  -6    0.73    0.14
   8  -1  -6    0.92    0.14
   8  -1  -6    1.10    0.14
   7  -1  -6    2.59    0.25
   7  -1  -6    2.62    0.23
   7  -1  -6    2.63    0.22
   7  -1  -6    2.43    0.23
   6  -1  -6    0.50    0.14
   6  -1  -6    0.69    0.16
   6  -1  -6    1.01    0.23
   6  -1  -6    0.57    0.14
   5  -1  -6   17.93    0.74
   5  -1  -6   17.24    0.73
   5  -1  -6   18.31    0.76
   5  -1  -6   17.80    0.76
   5  -1  -6   17.73    0.75
   4  -1  -6    2.19    0.31
   4  -1  -6    1.74    0.32
   4  -1  -6    2.60    0.34
   4  -1  -6    2.37    0.26
   4  -1  -6    2.04    0.35
   3  -1  -6    0.23    0.20
   3  -1  -6    0.57    0.23
   3  -1  -6    0.43    0.17
   3  -1  -6    0.54    0.21
   3  -1  -6    0.82    0.24
   3  -1  -6    0.59    0.21
  -3   1   6    0.65    0.23
  -3   1   6    0.47    0.17
   2  -1  -6    0.94    0.28
   2  -1  -6    0.65    0.18
  -2   1   6    0.65    0.17
  -2   1   6    0.85    0.23
  -1   1   6   95.84    3.19
  -1   1   6   97.01    3.20
   0  -1  -6    1.34    0.21
   0   1   6    1.63    0.22
   0   1   6    1.44    0.25
   0   1   6    1.82    0.21
  -1  -1  -6    4.25    0.29
   1   1   6    5.03    0.31
   1   1   6    4.71    0.28
  -2  -1  -6   16.22    0.68
   2   1   6   15.59    0.76
   2   1   6   15.33    0.73
   2   1   6   15.89    0.67
   2   1   6   17.25    0.67
  -3  -1  -6    3.36    0.42
   3   1   6    3.51    0.37
   3   1   6    3.60    0.37
   3   1   6    3.61    0.38
   3   1   6    3.02    0.32
  -4  -1  -6   16.92    0.74
   4   1   6   17.84    0.73
   4   1   6   17.65    0.77
   4   1   6   16.65    0.73
   4   1   6   17.25    0.73
  -5  -1  -6    0.55    0.19
   5   1   6    0.69    0.20
   5   1   6    0.41    0.13
   5   1   6    0.42    0.16
  -6  -1  -6    1.36    0.27
   6   1   6    0.98    0.21
   6   1   6    1.01    0.22
   6   1   6    1.03    0.25
   7   1   6    0.21    0.08
   7   1   6    0.20    0.12
   7   1   6    0.29    0.11
   8  -2  -6    9.91    0.40
   8  -2  -6    9.65    0.40
   8  -2  -6   10.20    0.41
   7  -2  -6   -0.03    0.10
   7  -2  -6    0.05    0.10
   7  -2  -6    0.12    0.10
   7  -2  -6    0.14    0.10
  -7   2   6    0.10    0.12
   6  -2  -6    4.92    0.35
   6  -2  -6    5.38    0.33
   6  -2  -6    4.65    0.34
   6  -2  -6    5.83    0.36
   5  -2  -6    4.52    0.33
   5  -2  -6    4.13    0.35
   5  -2  -6    4.08    0.35
   5  -2  -6    3.67    0.34
   4  -2  -6   50.02    1.78
   4  -2  -6   53.67    1.79
   4  -2  -6   51.37    1.80
   4  -2  -6   51.06    1.80
   4  -2  -6   50.23    1.81
   3  -2  -6    8.43    0.53
   3  -2  -6    9.30    0.45
   3  -2  -6    8.92    0.58
   3  -2  -6    7.99    0.49
   3  -2  -6    8.89    0.48
   3  -2  -6    8.83    0.56
  -3   2   6    8.77    0.54
   2  -2  -6    0.84    0.21
   2  -2  -6    0.45    0.20
   2  -2  -6    1.06    0.23
   2  -2  -6    0.41    0.17
  -2   2   6    0.56    0.19
  -2   2   6    0.96    0.27
   1  -2  -6    3.83    0.29
   1  -2  -6    3.61    0.38
  -1   2   6    3.99    0.29
  -1   2   6    3.89    0.32
   0  -2  -6    4.37    0.42
   0  -2  -6    3.71    0.29
   0   2   6    3.73    0.31
   0   2   6    3.74    0.28
  -1  -2  -6   27.54    1.05
   1   2   6   30.34    1.06
   1   2   6   28.58    1.08
   1   2   6   27.50    1.04
  -2  -2  -6    9.96    0.56
   2   2   6    9.92    0.48
   2   2   6   10.09    0.53
   2   2   6   10.59    0.55
   2   2   6    9.70    0.59
   3   2   6    6.33    0.41
   3   2   6    5.89    0.42
   3   2   6    6.04    0.45
   3   2   6    6.09    0.36
   4   2   6    1.48    0.29
   4   2   6    1.74    0.32
   4   2   6    2.20    0.29
   4   2   6    2.02    0.29
   5   2   6    6.90    0.41
   5   2   6    6.88    0.41
   5   2   6    6.32    0.39
   6   2   6    7.06    0.38
   6   2   6    7.22    0.37
   6   2   6    7.18    0.37
   7   2   6    0.06    0.08
   7   2   6    0.00    0.09
   7   2   6    0.11    0.08
   8  -3  -6    0.05    0.12
   8  -3  -6    0.56    0.12
   7  -3  -6    0.31    0.11
   7  -3  -6    0.39    0.10
   7  -3  -6    0.41    0.15
  -7   3   6    0.33    0.10
   6  -3  -6   -0.01    0.11
   6  -3  -6    0.18    0.14
   6  -3  -6    0.01    0.16
   6  -3  -6    0.16    0.13
   5  -3  -6    3.03    0.30
   5  -3  -6    4.31    0.36
   5  -3  -6    3.76    0.39
   5  -3  -6    3.03    0.32
   4  -3  -6   62.55    2.15
   4  -3  -6   60.13    2.12
   4  -3  -6   63.27    2.15
   3  -3  -6    3.06    0.42
   3  -3  -6    1.95    0.47
   3  -3  -6    2.59    0.32
   2  -3  -6   11.24    0.59
   2  -3  -6   11.40    0.55
   2  -3  -6   11.44    0.57
  -2   3   6   11.71    0.52
  -2   3   6   11.26    0.60
   1  -3  -6   18.39    0.81
   1  -3  -6   19.43    0.79
  -1   3   6   18.48    0.81
  -1   3   6   20.04    0.76
   0  -3  -6   38.40    1.38
   0  -3  -6   37.20    1.37
   0   3   6   37.67    1.35
   0   3   6   38.32    1.37
  -1  -3  -6   11.15    0.57
  -1  -3  -6   10.52    0.57
   1   3   6   11.42    0.51
   1   3   6   10.61    0.64
   1   3   6   11.04    0.54
  -2  -3  -6    0.14    0.31
   2   3   6    0.25    0.16
   2   3   6    0.06    0.19
   2   3   6    0.04    0.11
   2   3   6    0.09    0.22
   3   3   6    9.16    0.52
   3   3   6    9.22    0.48
   3   3   6    9.90    0.49
   3   3   6    9.12    0.50
   4   3   6    8.64    0.48
   4   3   6    8.44    0.46
   4   3   6    8.79    0.45
   4   3   6    8.26    0.46
   5   3   6    1.27    0.23
   5   3   6    1.51    0.27
   5   3   6    1.00    0.23
   6   3   6    0.15    0.09
   6   3   6    0.15    0.11
   6   3   6    0.30    0.10
   7   3   6    0.72    0.13
   7   3   6    0.49    0.14
   7   3   6    0.43    0.10
   7  -4  -6    0.49    0.14
  -7   4   6    0.59    0.14
   6  -4  -6    8.66    0.45
   6  -4  -6    8.91    0.44
  -6   4   6    9.10    0.42
   5  -4  -6   18.21    0.76
   5  -4  -6   18.02    0.76
  -5   4   6   19.20    0.75
   4  -4  -6    1.03    0.19
   4  -4  -6    0.61    0.16
   4  -4  -6    1.16    0.34
   3  -4  -6   46.61    1.76
   3  -4  -6   52.29    1.75
   2  -4  -6   28.63    1.12
   2  -4  -6   28.69    1.09
  -2   4   6   28.82    1.08
   1  -4  -6   19.19    0.86
   1  -4  -6   19.40    0.88
  -1   4   6   19.73    0.86
  -1   4   6   20.59    0.79
  -1   4   6   18.27    0.88
  -1   4   6   20.30    0.79
   0  -4  -6   14.96    0.79
   0  -4  -6   16.71    0.74
   0   4   6   17.69    0.70
   0   4   6   16.64    0.75
  -1  -4  -6    1.35    0.42
   1   4   6    1.34    0.44
   1   4   6    2.34    0.38
   1   4   6    1.41    0.23
  -2  -4  -6   13.49    0.64
   2   4   6   12.93    0.60
   2   4   6   13.40    0.61
   2   4   6   13.71    0.64
   2   4   6   13.40    0.65
   3   4   6   37.09    1.37
   3   4   6   38.82    1.38
   3   4   6   38.59    1.38
   3   4   6   36.74    1.37
   4   4   6    0.13    0.14
   4   4   6    0.21    0.15
   4   4   6    0.02    0.12
   4   4   6   -0.06    0.12
   5   4   6    2.75    0.24
   5   4   6    2.62    0.25
   5   4   6    2.71    0.27
   6   4   6    0.84    0.16
   6   4   6    0.75    0.16
   6   4   6    0.86    0.16
   7  -5  -6    0.32    0.08
  -7   5   6    0.56    0.13
  -7   5   6    0.57    0.15
   6  -5  -6    0.12    0.10
  -6   5   6    0.07    0.07
   5  -5  -6    4.68    0.32
  -5   5   6    4.83    0.29
   4  -5  -6    8.67    0.52
   4  -5  -6   11.44    0.52
  -4   5   6   10.41    0.49
   3  -5  -6    1.61    0.25
   3  -5  -6    1.37    0.24
  -3   5   6    1.52    0.22
   2  -5  -6    3.44    0.34
  -2   5   6    3.69    0.29
  -2   5   6    4.09    0.36
   1  -5  -6   15.42    0.68
  -1   5   6   16.03    0.67
  -1   5   6   14.94    0.65
   0   5   6    4.58    0.32
   0   5   6    4.69    0.39
   1   5   6   19.25    0.84
   1   5   6   19.77    0.80
   1   5   6   19.85    0.82
  -2  -5  -6   38.12    1.40
   2   5   6   39.28    1.38
   2   5   6   36.44    1.37
   2   5   6   37.32    1.37
   2   5   6   37.65    1.38
  -3  -5  -6    7.72    0.49
   3   5   6    7.61    0.42
   3   5   6    7.46    0.42
   3   5   6    7.65    0.44
   3   5   6    7.82    0.43
  -4  -5  -6    2.48    0.34
   4   5   6    3.40    0.28
   4   5   6    2.73    0.27
   4   5   6    2.76    0.28
   4   5   6    2.96    0.26
  -5  -5  -6    2.50    0.30
   5   5   6    2.11    0.22
   5   5   6    2.37    0.21
   5   5   6    2.15    0.21
   5   5   6    2.54    0.32
   6   5   6    0.07    0.07
   6   5   6    0.01    0.08
   6   5   6    0.06    0.07
   6  -6  -6    1.22    0.16
  -6   6   6    1.36    0.14
   5  -6  -6    1.19    0.24
   5  -6  -6    0.74    0.18
  -5   6   6    0.77    0.14
   4  -6  -6    0.16    0.14
   4  -6  -6    0.41    0.13
  -4   6   6    0.24    0.10
   3  -6  -6    2.97    0.32
   3  -6  -6    3.21    0.30
  -3   6   6    3.22    0.26
   2  -6  -6   15.68    0.68
  -2   6   6   15.92    0.66
  -2   6   6   16.15    0.71
   1  -6  -6    1.97    0.29
  -1   6   6    2.29    0.26
  -1   6   6    2.42    0.31
   0   6   6   10.90    0.52
   0   6   6   10.56    0.53
   1   6   6    0.90    0.26
   1   6   6    0.62    0.16
   1   6   6    0.78    0.20
   2   6   6    5.12    0.35
   2   6   6    4.70    0.37
   2   6   6    3.88    0.32
   3   6   6    9.66    0.47
   3   6   6    9.69    0.46
   3   6   6    9.04    0.46
   4   6   6   10.45    0.46
   4   6   6   10.26    0.48
   4   6   6   10.44    0.46
   5   6   6    5.01    0.27
   5   6   6    5.33    0.27
   5  -7  -6   13.38    0.53
   5  -7  -6   13.97    0.53
  -5   7   6   13.73    0.52
   4  -7  -6    2.96    0.24
   4  -7  -6    2.59    0.23
  -4   7   6    2.25    0.20
   3  -7  -6    2.38    0.25
   3  -7  -6    2.49    0.25
  -3   7   6    2.58    0.22
   2  -7  -6    0.63    0.20
  -2   7   6    0.37    0.12
   1  -7  -6   15.71    0.64
  -1   7   6   15.14    0.62
  -1   7   6   14.24    0.64
   0  -7  -6    0.38    0.14
   0   7   6    0.25    0.14
   1   7   6    0.11    0.13
   1   7   6    0.05    0.13
   1   7   6    0.17    0.16
   2   7   6    5.52    0.34
   2   7   6    6.15    0.34
   2   7   6    5.45    0.34
   3   7   6    3.71    0.25
   3   7   6    3.86    0.27
   3   7   6    3.55    0.26
   4   7   6    0.43    0.14
   4   7   6    0.13    0.08
   4   7   6    0.35    0.09
   4  -8  -6   -0.02    0.11
   4  -8  -6    0.03    0.10
  -4   8   6    0.21    0.07
   3  -8  -6    0.97    0.17
   3  -8  -6    1.00    0.19
  -3   8   6    0.71    0.14
   2  -8  -6    2.62    0.24
   2  -8  -6    2.49    0.22
  -2   8   6    2.48    0.19
   1  -8  -6    1.02    0.19
  -1   8   6    0.60    0.18
  -1   8   6    0.70    0.19
   0  -8  -6    0.35    0.11
   0   8   6    0.72    0.20
  -1  -8  -6    0.00    0.10
   1   8   6   -0.11    0.14
   1   8   6    0.09    0.11
  -2  -8  -6    5.93    0.30
   2   8   6    5.61    0.31
   2   8   6    5.81    0.31
  -3  -8  -6    0.04    0.09
   3   8   6    0.15    0.09
   3   8   6    0.28    0.12
   3   8   6    0.42    0.12
   2  -9  -6    0.44    0.15
  -2   9   6    0.20    0.10
   1  -9  -6    3.70    0.21
   0  -9  -6    3.92    0.22
   3   8  -7    4.77    0.24
   3   8  -7    4.55    0.22
   2   8  -7    5.59    0.27
   2   8  -7    5.87    0.27
   1   8  -7    5.59    0.27
   1   8  -7    4.91    0.26
   0   8  -7    1.62    0.17
   0   8  -7    1.39    0.17
  -1   8  -7    0.52    0.15
  -1   8  -7    0.58    0.14
   1  -8   7    1.07    0.25
  -2   8  -7    1.13    0.14
   2  -8   7    1.09    0.23
   5   7  -7    2.43    0.15
   5   7  -7    2.61    0.20
   4   7  -7    6.36    0.30
   4   7  -7    6.67    0.30
   3   7  -7   13.02    0.52
   3   7  -7   12.65    0.51
   2   7  -7    0.04    0.09
   2   7  -7   -0.09    0.08
   2   7  -7    0.21    0.16
   1   7  -7    0.61    0.18
   1   7  -7    0.65    0.17
   0   7  -7    0.35    0.12
   0   7  -7    0.27    0.10
   0   7  -7    0.68    0.22
  -1   7  -7    1.14    0.22
  -1   7  -7    1.26    0.19
  -1   7  -7    1.22    0.21
   1  -7   7    1.03    0.27
  -2   7  -7    7.26    0.34
  -2   7  -7    6.75    0.35
   2  -7   7    6.72    0.39
   2  -7   7    7.09    0.35
  -3   7  -7    6.55    0.31
  -3   7  -7    6.24    0.31
   3  -7   7    6.72    0.30
  -4   7  -7    4.73    0.25
   4  -7   7    4.80    0.23
   6   6  -7    2.24    0.18
   6   6  -7    1.49    0.17
   5   6  -7    2.80    0.23
   5   6  -7    2.84    0.19
   5   6  -7    2.71    0.20
   4   6  -7   26.39    0.93
   4   6  -7   25.53    0.92
   4   6  -7   24.15    0.92
   3   6  -7    0.04    0.14
   3   6  -7    0.20    0.12
   3   6  -7   -0.11    0.09
   2   6  -7    1.41    0.20
   2   6  -7    1.09    0.20
   2   6  -7    1.22    0.24
   1   6  -7   -0.02    0.13
   1   6  -7    0.09    0.12
   1   6  -7    0.04    0.12
   0   6  -7    6.76    0.37
   0   6  -7    6.45    0.39
   0   6  -7    6.48    0.38
  -1   6  -7    0.13    0.11
  -1   6  -7   -0.13    0.13
  -1   6  -7    0.22    0.16
   1  -6   7    0.17    0.17
  -2   6  -7    1.88    0.22
  -2   6  -7    2.25    0.23
   2  -6   7    2.04    0.28
   2  -6   7    1.85    0.26
  -3   6  -7    0.55    0.18
  -3   6  -7    0.51    0.12
   3  -6   7    0.45    0.12
  -4   6  -7    0.47    0.15
  -4   6  -7    0.44    0.12
   4  -6   7    0.29    0.09
  -5   6  -7    0.50    0.13
   5  -6   7    0.45    0.12
   6   5  -7    0.98    0.16
   6   5  -7    1.12    0.16
   6   5  -7    1.06    0.14
   5   5  -7    8.46    0.41
   5   5  -7    8.71    0.40
   5   5  -7    9.51    0.41
   4   5  -7   11.65    0.53
   4   5  -7   11.14    0.52
   4   5  -7   11.23    0.50
   3   5  -7   18.56    0.74
   3   5  -7   18.41    0.74
   3   5  -7   17.23    0.74
   2   5  -7    6.38    0.38
   2   5  -7    5.86    0.36
   2   5  -7    5.94    0.36
   1   5  -7    5.20    0.34
   1   5  -7    4.41    0.35
   1   5  -7    5.17    0.35
   0   5  -7   17.85    0.73
   0   5  -7   17.94    0.73
   0   5  -7   17.50    0.74
  -1   5  -7    6.49    0.39
  -1   5  -7    6.93    0.43
  -1   5  -7    7.07    0.40
   1  -5   7    6.47    0.45
  -2   5  -7   -0.09    0.13
  -2   5  -7    0.11    0.13
   2  -5   7    0.01    0.14
   2  -5   7   -0.05    0.15
  -3   5  -7    7.16    0.38
  -3   5  -7    7.39    0.39
   3  -5   7    6.72    0.38
  -4   5  -7    0.21    0.14
  -4   5  -7    0.09    0.10
   4  -5   7    0.18    0.10
  -5   5  -7    0.28    0.10
   5  -5   7    0.54    0.14
   7   4  -7    0.34    0.08
   7   4  -7    0.64    0.13
   6   4  -7    0.02    0.09
   6   4  -7   -0.11    0.08
   6   4  -7   -0.15    0.09
   5   4  -7    0.38    0.12
   5   4  -7    0.66    0.14
   5   4  -7   -0.07    0.17
   5   4  -7    0.58    0.14
   4   4  -7    8.54    0.45
   4   4  -7    8.68    0.46
   4   4  -7    9.45    0.46
   3   4  -7    8.94    0.45
   3   4  -7    7.96    0.44
   3   4  -7    9.41    0.47
   2   4  -7    0.37    0.14
   2   4  -7    0.52    0.14
   2   4  -7    0.41    0.15
   1   4  -7    1.39    0.25
   1   4  -7    1.49    0.27
   1   4  -7    0.93    0.27
   0   4  -7    5.96    0.39
   0   4  -7    6.57    0.41
   0   4  -7    6.21    0.41
  -1   4  -7   19.59    0.79
  -1   4  -7   18.43    0.77
  -2   4  -7   15.05    0.65
  -2   4  -7   14.82    0.65
   2  -4   7   16.04    0.66
   2  -4   7   14.78    0.68
  -3   4  -7    8.97    0.45
  -3   4  -7    9.18    0.48
   3  -4   7   10.03    0.47
   3  -4   7    7.62    0.48
  -4   4  -7    0.02    0.10
   4  -4   7    0.13    0.11
  -5   4  -7   -0.07    0.09
   5  -4   7    0.01    0.08
  -6   4  -7    0.35    0.09
   6  -4   7    0.57    0.13
   7   3  -7    0.69    0.13
   7   3  -7    0.69    0.17
   7   3  -7    0.43    0.12
   7   3  -7    0.86    0.14
   6   3  -7    3.81    0.27
   6   3  -7    4.01    0.26
   6   3  -7    4.33    0.28
   6   3  -7    4.38    0.29
   5   3  -7   20.27    0.79
   5   3  -7   19.99    0.80
   5   3  -7   20.10    0.80
   5   3  -7   20.37    0.82
   4   3  -7    8.96    0.45
   4   3  -7    8.94    0.46
   4   3  -7    8.54    0.49
   4   3  -7    8.20    0.46
   3   3  -7    0.74    0.24
   3   3  -7    0.34    0.21
   3   3  -7    0.80    0.24
   3   3  -7    0.32    0.15
   2   3  -7   14.05    0.64
   2   3  -7   14.69    0.70
   2   3  -7   14.59    0.65
   2   3  -7   14.89    0.65
   1   3  -7    8.71    0.56
   1   3  -7    9.20    0.50
   1   3  -7    9.13    0.48
   1   3  -7    9.29    0.49
   0   3  -7   -0.02    0.15
   0   3  -7   -0.10    0.17
   0   3  -7   -0.40    0.22
   0   3  -7    0.10    0.21
  -1   3  -7   -0.05    0.22
  -1   3  -7    0.19    0.19
  -1   3  -7    0.17    0.15
  -2   3  -7    6.00    0.36
  -2   3  -7    5.04    0.45
   2  -3   7    5.74    0.37
   2  -3   7    5.25    0.42
   3  -3   7    7.19    0.42
   3  -3   7    7.98    0.43
  -4   3  -7    0.13    0.19
  -4   3  -7    0.08    0.11
   4  -3   7    0.18    0.11
  -6   3  -7    0.27    0.09
   6  -3   7    0.17    0.07
   7   2  -7    0.98    0.14
   7   2  -7    0.89    0.16
   7   2  -7    1.06    0.15
   6   2  -7    4.46    0.29
   6   2  -7    4.05    0.30
   6   2  -7    4.41    0.30
   6   2  -7    4.10    0.28
   5   2  -7   17.15    0.73
   5   2  -7   17.64    0.71
   5   2  -7   17.57    0.73
   5   2  -7   16.54    0.71
   4   2  -7    9.55    0.50
   4   2  -7    9.87    0.48
   4   2  -7    9.71    0.50
   4   2  -7    9.62    0.51
  -4  -2   7    8.53    0.54
   3   2  -7    2.19    0.28
   3   2  -7    2.31    0.29
   3   2  -7    2.18    0.28
   3   2  -7    2.56    0.36
   2   2  -7    6.99    0.47
   2   2  -7    7.73    0.42
   2   2  -7    7.27    0.43
   2   2  -7    6.92    0.41
   1   2  -7    0.02    0.14
   1   2  -7   -0.01    0.16
   1   2  -7   -0.17    0.19
   1   2  -7    0.52    0.19
  -1  -2   7    0.13    0.25
   0   2  -7    5.59    0.38
   0   2  -7    6.18    0.47
   0   2  -7    5.09    0.45
   0   2  -7    5.71    0.44
   0  -2   7    5.83    0.55
  -1   2  -7    1.02    0.26
  -1   2  -7    1.46    0.35
  -1   2  -7    1.01    0.33
   1  -2   7    0.97    0.22
  -2   2  -7    8.42    0.44
  -2   2  -7    6.80    0.47
   2  -2   7    8.26    0.43
   2  -2   7    8.40    0.49
  -3   2  -7  106.08    3.49
   3  -2   7  103.61    3.47
   3  -2   7  103.76    3.47
  -4   2  -7    0.29    0.14
   4  -2   7    0.00    0.11
  -5   2  -7    3.06    0.25
   5  -2   7    3.24    0.26
  -6   2  -7    0.49    0.13
  -6   2  -7    0.40    0.10
   6  -2   7    0.29    0.09
  -7   2  -7    0.12    0.09
   8   1  -7    0.03    0.06
   8   1  -7    0.19    0.07
   8   1  -7    0.19    0.07
   7   1  -7    4.93    0.27
   7   1  -7    4.83    0.27
   7   1  -7    4.59    0.26
   6   1  -7    0.45    0.12
   6   1  -7    0.73    0.21
   5   1  -7    9.00    0.48
   5   1  -7    8.65    0.44
   5   1  -7    9.22    0.46
   5   1  -7    8.26    0.46
   4   1  -7    0.35    0.12
   4   1  -7    0.23    0.15
   4   1  -7    0.58    0.17
   4   1  -7    0.85    0.24
   3   1  -7   15.17    0.65
   3   1  -7   15.53    0.68
   3   1  -7   14.84    0.66
   3   1  -7   14.23    0.66
  -3  -1   7   15.24    0.65
   2   1  -7    6.18    0.39
   2   1  -7    5.51    0.37
   2   1  -7    6.58    0.43
   2   1  -7    5.79    0.41
  -2  -1   7    5.86    0.50
  -2  -1   7    5.99    0.37
   1   1  -7   34.53    1.20
   1   1  -7   31.25    1.19
   1   1  -7   32.33    1.20
   1   1  -7   31.43    1.22
  -1  -1   7   33.32    1.18
  -1  -1   7   30.55    1.23
   0   1  -7    0.44    0.18
   0   1  -7    0.18    0.17
   0  -1   7   -0.06    0.24
   0  -1   7    0.09    0.13
  -1   1  -7   -0.14    0.17
  -1   1  -7    0.22    0.18
   1  -1   7   -0.04    0.13
  -2   1  -7    2.59    0.30
   2  -1   7    2.39    0.40
   2  -1   7    2.56    0.27
  -3   1  -7    0.48    0.16
   3  -1   7    0.47    0.18
   3  -1   7    0.37    0.15
  -4   1  -7   14.72    0.63
   4  -1   7   14.50    0.64
  -5   1  -7    0.77    0.22
   5  -1   7    0.71    0.22
  -6   1  -7    2.87    0.22
   6  -1   7    3.07    0.24
  -7   1  -7    0.61    0.16
  -7   1  -7    0.39    0.11
   7  -1   7    0.49    0.12
   8   0  -7    2.41    0.16
   8   0  -7    2.38    0.16
   7   0  -7    0.11    0.12
   7   0  -7   -0.04    0.07
   7   0  -7    0.01    0.09
   7   0  -7    0.13    0.09
   6   0  -7    0.16    0.11
   6   0  -7    0.17    0.09
   6   0  -7   -0.02    0.10
   6   0  -7    0.04    0.14
   6   0  -7    0.16    0.12
   5   0  -7    8.20    0.46
   5   0  -7    8.53    0.47
   5   0  -7    8.28    0.46
   5   0  -7    8.78    0.45
   5   0  -7    8.72    0.47
   4   0  -7   -0.03    0.14
   4   0  -7    0.15    0.16
   4   0  -7   -0.01    0.15
   4   0  -7    0.20    0.20
   4   0  -7    0.17    0.13
   3   0  -7   11.16    0.65
   3   0  -7   12.94    0.58
   3   0  -7   11.29    0.57
   3   0  -7   11.04    0.53
  -3   0   7   11.83    0.57
   2   0  -7   14.62    0.66
   2   0  -7   14.83    0.71
   2   0  -7   14.99    0.64
   2   0  -7   14.83    0.66
  -2   0   7   13.79    0.72
  -2   0   7   14.53    0.63
   1   0  -7   21.60    0.88
   1   0  -7   22.53    0.89
   1   0  -7   21.88    0.89
  -1   0   7   23.80    0.86
  -1   0   7   21.50    0.92
   0   0  -7    0.57    0.20
   0   0  -7    0.93    0.29
   0   0   7    0.28    0.13
  -1   0  -7    3.69    0.36
  -1   0  -7    4.15    0.40
   1   0   7    3.96    0.29
  -2   0  -7    1.00    0.30
   2   0   7    1.42    0.25
   2   0   7    0.87    0.23
  -3   0  -7    0.41    0.17
   3   0   7    0.56    0.18
   3   0   7    0.19    0.17
  -4   0  -7    0.56    0.19
   4   0   7    0.58    0.16
   4   0   7    1.41    0.38
  -5   0  -7    5.24    0.35
   5   0   7    5.58    0.34
   5   0   7    4.85    0.40
  -6   0  -7    0.12    0.12
   6   0   7    0.08    0.09
  -7   0  -7    0.23    0.08
   7   0   7    0.41    0.13
   8  -1  -7    1.24    0.17
   8  -1  -7    0.75    0.12
   8  -1  -7    1.18    0.14
   7  -1  -7    0.31    0.10
   7  -1  -7    0.34    0.10
   7  -1  -7    0.33    0.09
   7  -1  -7    0.32    0.11
   6  -1  -7    2.49    0.27
   6  -1  -7    2.43    0.25
   6  -1  -7    2.33    0.25
   6  -1  -7    2.04    0.23
   5  -1  -7    1.06    0.28
   5  -1  -7    1.14    0.25
   5  -1  -7    1.02    0.21
   5  -1  -7    1.55    0.24
   5  -1  -7    1.24    0.25
   4  -1  -7    0.04    0.17
   4  -1  -7    0.08    0.15
   4  -1  -7    0.16    0.13
   4  -1  -7    0.15    0.17
   4  -1  -7   -0.02    0.17
   3  -1  -7    0.45    0.16
   3  -1  -7    0.19    0.21
   3  -1  -7    0.39    0.21
   3  -1  -7    0.34    0.21
   3  -1  -7    0.33    0.15
  -3   1   7    0.52    0.23
   2  -1  -7    0.28    0.16
   2  -1  -7    0.02    0.19
   2  -1  -7    0.26    0.17
   2  -1  -7   -0.15    0.23
  -2   1   7    1.29    0.39
  -2   1   7    0.29    0.16
   1  -1  -7   10.09    0.59
   1  -1  -7   10.94    0.59
   1  -1  -7   11.78    0.55
   1  -1  -7   11.41    0.56
  -1   1   7   10.50    0.58
  -1   1   7   11.28    0.52
   0  -1  -7    0.35    0.27
   0  -1  -7    0.11    0.14
   0   1   7    0.33    0.15
  -1  -1  -7    9.53    0.59
  -1  -1  -7    9.71    0.51
   1   1   7   10.13    0.48
  -2  -1  -7   13.29    0.68
   2   1   7   15.12    0.62
   2   1   7   13.86    0.69
   2   1   7   12.99    0.65
  -3  -1  -7   10.98    0.58
   3   1   7   12.28    0.55
   3   1   7   11.25    0.56
   3   1   7   11.28    0.57
  -4  -1  -7    0.36    0.20
   4   1   7   -0.01    0.17
   4   1   7   -0.15    0.15
   4   1   7   -0.05    0.13
  -5  -1  -7    0.65    0.26
   5   1   7    1.21    0.35
   5   1   7    0.79    0.25
   5   1   7    0.91    0.23
   6   1   7    0.22    0.10
   6   1   7    0.44    0.13
   6   1   7    0.38    0.16
  -7  -1  -7    0.97    0.14
   7   1   7    1.23    0.14
   7  -2  -7    1.82    0.18
   7  -2  -7    1.72    0.19
   7  -2  -7    1.78    0.18
   7  -2  -7    2.04    0.19
  -7   2   7    1.69    0.18
   6  -2  -7    0.66    0.21
   6  -2  -7    0.53    0.15
   6  -2  -7    0.75    0.22
   6  -2  -7    0.84    0.20
   5  -2  -7   55.82    1.92
   5  -2  -7   55.99    1.92
   5  -2  -7   55.52    1.94
   5  -2  -7   55.27    1.93
   4  -2  -7    2.48    0.31
   4  -2  -7    2.71    0.32
   4  -2  -7    1.93    0.30
   4  -2  -7    2.63    0.37
   3  -2  -7   15.46    0.72
   3  -2  -7   15.14    0.67
   3  -2  -7   14.89    0.64
   3  -2  -7   14.74    0.69
   3  -2  -7   15.48    0.67
  -3   2   7   14.88    0.70
   2  -2  -7    0.51    0.18
   2  -2  -7    0.46    0.18
   2  -2  -7    0.80    0.24
  -2   2   7    0.49    0.52
  -2   2   7    0.66    0.17
   1  -2  -7    0.23    0.18
   1  -2  -7   -0.23    0.16
  -1   2   7    0.23    0.15
  -1   2   7   -0.33    0.26
   0  -2  -7   -0.16    0.14
   0   2   7    0.34    0.15
  -1  -2  -7    1.15    0.31
   1   2   7    0.82    0.22
   2   2   7   39.84    1.49
   2   2   7   41.41    1.47
   2   2   7   41.35    1.47
   3   2   7   30.92    1.16
   3   2   7   31.08    1.17
   3   2   7   31.81    1.17
   4   2   7   10.98    0.53
   4   2   7   10.47    0.56
   4   2   7   11.81    0.53
   4   2   7   10.60    0.52
   5   2   7    2.11    0.25
   5   2   7    2.82    0.26
   5   2   7    2.42    0.29
   6   2   7    0.05    0.10
   6   2   7    0.05    0.08
   6   2   7   -0.17    0.13
   7  -3  -7    0.08    0.09
   7  -3  -7   -0.01    0.07
  -7   3   7    0.13    0.08
   6  -3  -7    8.73    0.43
   6  -3  -7    8.72    0.43
   6  -3  -7    9.08    0.41
  -6   3   7    8.92    0.41
   5  -3  -7   10.69    0.52
   5  -3  -7   10.21    0.50
   5  -3  -7   10.36    0.49
   4  -3  -7   53.58    1.82
   4  -3  -7   49.78    1.81
   4  -3  -7   51.45    1.79
   3  -3  -7   -0.06    0.17
   3  -3  -7    0.07    0.14
   2  -3  -7    9.35    0.49
   2  -3  -7    9.39    0.51
  -2   3   7    8.87    0.46
   1  -3  -7    5.08    0.39
   1  -3  -7    5.23    0.40
  -1   3   7    5.45    0.35
   0  -3  -7    9.18    0.49
   0   3   7    9.21    0.47
  -1  -3  -7    0.34    0.18
   1   3   7    0.06    0.12
  -2  -3  -7   24.78    0.96
   2   3   7   25.07    0.96
   2   3   7   24.64    0.95
   2   3   7   24.25    0.99
   2   3   7   23.76    1.00
   3   3   7    0.32    0.20
   3   3   7    0.21    0.16
   3   3   7    0.15    0.14
   3   3   7    0.49    0.14
   4   3   7    0.38    0.14
   4   3   7    0.34    0.17
   4   3   7    0.09    0.13
   4   3   7    0.15    0.15
   5   3   7    1.98    0.24
   5   3   7    2.45    0.24
   5   3   7    2.63    0.24
  -6  -3  -7   -0.02    0.08
   6   3   7    0.02    0.07
   6   3   7    0.20    0.11
   6   3   7    0.09    0.08
   7  -4  -7    1.07    0.14
  -7   4   7    1.23    0.13
   6  -4  -7    2.37    0.25
   6  -4  -7    2.36    0.21
  -6   4   7    2.14    0.19
   5  -4  -7    1.41    0.23
   5  -4  -7    1.53    0.27
  -5   4   7    1.90    0.20
   4  -4  -7   16.86    0.72
   4  -4  -7   17.15    0.72
  -4   4   7   16.86    0.70
   3  -4  -7    0.72    0.23
   3  -4  -7    0.78    0.24
   2  -4  -7    9.44    0.53
   2  -4  -7    9.16    0.49
  -2   4   7    9.08    0.47
  -2   4   7    9.87    0.49
   1  -4  -7   37.22    1.38
   1  -4  -7   37.05    1.38
  -1   4   7   39.83    1.38
  -1   4   7   38.24    1.36
   0  -4  -7    0.33    0.18
   0   4   7    0.23    0.30
  -1  -4  -7   12.51    0.60
   1   4   7   13.34    0.59
   1   4   7   12.52    0.65
  -2  -4  -7    9.00    0.53
   2   4   7    9.77    0.54
   2   4   7    9.54    0.48
   2   4   7    9.37    0.55
  -3  -4  -7    0.14    0.16
   3   4   7    0.15    0.15
   3   4   7    0.03    0.16
   3   4   7   -0.12    0.12
   3   4   7    0.02    0.12
  -4  -4  -7    0.44    0.13
   4   4   7    0.47    0.13
   4   4   7    0.23    0.14
   4   4   7    0.41    0.12
   4   4   7    0.47    0.15
  -5  -4  -7    2.95    0.24
   5   4   7    3.22    0.22
   5   4   7    2.91    0.24
   5   4   7    2.91    0.23
  -6  -4  -7    0.68    0.18
   6   4   7    1.08    0.18
   6   4   7    0.76    0.14
   6  -5  -7    0.80    0.15
  -6   5   7    0.62    0.12
   5  -5  -7    1.31    0.19
  -5   5   7    1.37    0.17
   4  -5  -7    3.25    0.28
  -4   5   7    2.88    0.24
   3  -5  -7    7.32    0.42
  -3   5   7    7.67    0.39
   2  -5  -7    4.21    0.33
  -2   5   7    4.45    0.37
  -2   5   7    4.72    0.31
   1  -5  -7    2.66    0.29
  -1   5   7    2.91    0.30
  -1   5   7    2.34    0.28
   0  -5  -7   16.36    0.74
   0   5   7   16.68    0.70
   0   5   7   16.42    0.72
  -1  -5  -7   -0.36    0.20
   1   5   7   -0.05    0.12
   1   5   7    0.22    0.18
  -2  -5  -7    6.78    0.43
   2   5   7    6.48    0.40
   2   5   7    6.98    0.42
   2   5   7    7.35    0.45
  -3  -5  -7   -0.07    0.14
   3   5   7   -0.02    0.14
   3   5   7    0.10    0.12
   3   5   7    0.05    0.12
  -4  -5  -7    4.15    0.30
   4   5   7    4.37    0.29
   4   5   7    4.59    0.31
   4   5   7    4.73    0.29
   5   5   7    1.36    0.17
   5   5   7    1.30    0.18
   5  -6  -7    0.81    0.16
  -5   6   7    0.77    0.13
   4  -6  -7    0.01    0.10
  -4   6   7    0.00    0.08
   3  -6  -7    1.33    0.23
  -3   6   7    0.81    0.17
   2  -6  -7   16.04    0.66
  -2   6   7   15.42    0.63
  -2   6   7   15.73    0.70
   1  -6  -7    0.00    0.12
  -1   6   7    0.10    0.14
  -1   6   7    0.10    0.16
   0  -6  -7    0.08    0.11
   0   6   7    0.21    0.14
   1   6   7    1.29    0.22
   1   6   7    1.66    0.26
   2   6   7    1.80    0.29
   2   6   7    1.76    0.23
   2   6   7    1.66    0.24
   3   6   7    0.78    0.19
   3   6   7    0.42    0.13
   3   6   7    0.41    0.14
   4   6   7    0.24    0.10
   4   6   7    0.13    0.14
   4   6   7    0.24    0.10
   5  -7  -7    0.21    0.08
  -5   7   7    0.00    0.06
   4  -7  -7    0.27    0.09
  -4   7   7    0.20    0.08
   3  -7  -7    0.25    0.13
   3  -7  -7    0.29    0.10
  -3   7   7    0.44    0.14
   2  -7  -7    8.68    0.41
   2  -7  -7    8.30    0.40
  -2   7   7    8.55    0.39
   1  -7  -7    0.06    0.10
  -1   7   7   -0.03    0.14
  -1   7   7   -0.12    0.16
   0  -7  -7    0.09    0.10
   0   7   7    0.03    0.14
  -1  -7  -7   -0.03    0.10
   1   7   7    0.02    0.12
  -2  -7  -7    0.20    0.10
   2   7   7    0.85    0.26
   2   7   7    0.14    0.11
   2   7   7    0.12    0.10
   3   7   7    3.02    0.25
   3   7   7    3.33    0.24
   3   7   7    3.11    0.21
   3  -8  -7    2.46    0.19
  -3   8   7    2.75    0.16
   2  -8  -7    0.38    0.12
   2  -8  -7    0.14    0.09
  -2   8   7    0.25    0.09
   1  -8  -7    0.86    0.17
   1  -8  -7    0.51    0.12
   0  -8  -7    0.71    0.16
   0   8   7    0.59    0.15
  -1  -8  -7    0.62    0.15
   1   8   7    0.32    0.13
  -2  -8  -7    0.15    0.09
   2   8   7    0.16    0.12
   3   7  -8    0.90    0.12
   3   7  -8    0.60    0.14
  -3  -7   8    1.11    0.21
   2   7  -8   -0.01    0.07
   2   7  -8    0.18    0.15
   2   7  -8    0.00    0.07
   1   7  -8   -0.16    0.12
   1   7  -8    0.04    0.07
   1   7  -8    0.05    0.09
   0   7  -8    5.25    0.28
   0   7  -8    5.20    0.30
   0   7  -8    5.28    0.27
   0  -7   8    5.42    0.30
  -1   7  -8    0.12    0.09
  -1   7  -8   -0.03    0.11
   1  -7   8   -0.16    0.13
  -2   7  -8    0.15    0.11
  -2   7  -8    0.02    0.09
   5   6  -8    0.68    0.11
   5   6  -8    0.75    0.13
   4   6  -8    0.94    0.13
   4   6  -8    1.16    0.18
   4   6  -8    0.92    0.15
   3   6  -8    4.45    0.28
   3   6  -8    4.92    0.27
   3   6  -8    4.76    0.27
   2   6  -8    0.17    0.09
   2   6  -8    0.16    0.10
   2   6  -8    0.21    0.12
   1   6  -8    0.30    0.11
   1   6  -8    0.15    0.11
   1   6  -8    0.28    0.10
   0   6  -8    1.19    0.19
   0   6  -8    1.37    0.21
   0   6  -8    1.69    0.21
  -1   6  -8    0.64    0.18
  -1   6  -8    0.71    0.19
   1  -6   8    0.81    0.21
  -2   6  -8    0.10    0.10
  -2   6  -8    0.13    0.10
   2  -6   8   -0.10    0.16
  -3   6  -8    2.55    0.23
  -3   6  -8    2.42    0.19
   3  -6   8    2.34    0.26
  -4   6  -8    0.12    0.09
   4  -6   8   -0.07    0.11
   6   5  -8    1.07    0.13
   6   5  -8    0.94    0.16
   6   5  -8    1.41    0.13
   5   5  -8    1.66    0.17
   5   5  -8    1.62    0.15
   5   5  -8    1.86    0.16
   4   5  -8    0.00    0.08
   4   5  -8   -0.12    0.09
   4   5  -8    0.00    0.10
  -4  -5   8    0.03    0.17
   3   5  -8    0.65    0.19
   3   5  -8    0.90    0.19
   3   5  -8    0.80    0.18
   2   5  -8    1.99    0.23
   2   5  -8    1.76    0.22
   2   5  -8    1.62    0.24
   1   5  -8    0.25    0.10
   1   5  -8    0.17    0.14
   1   5  -8    0.23    0.11
   0   5  -8    7.63    0.40
   0   5  -8    6.90    0.40
   0   5  -8    7.19    0.40
  -1   5  -8    0.05    0.12
  -1   5  -8    0.00    0.11
   1  -5   8   -0.12    0.12
  -2   5  -8   -0.07    0.13
  -2   5  -8    0.04    0.10
   2  -5   8   -0.13    0.15
   2  -5   8    0.19    0.14
  -3   5  -8    3.45    0.24
  -3   5  -8    3.70    0.31
   3  -5   8    3.05    0.25
  -4   5  -8    0.68    0.14
   4  -5   8    0.82    0.17
   6   4  -8    6.84    0.31
   6   4  -8    7.01    0.31
   6   4  -8    6.80    0.30
   5   4  -8    1.05    0.15
   5   4  -8    1.03    0.18
   5   4  -8    1.12    0.18
   4   4  -8    0.47    0.13
   4   4  -8    0.47    0.12
   4   4  -8    0.73    0.20
   3   4  -8    0.16    0.12
   3   4  -8    0.69    0.20
   3   4  -8    0.20    0.11
   2   4  -8    2.08    0.25
   2   4  -8    1.62    0.24
   2   4  -8    2.26    0.26
   1   4  -8    6.85    0.38
   1   4  -8    6.62    0.40
   1   4  -8    7.26    0.39
   0   4  -8    0.84    0.20
   0   4  -8    0.36    0.14
   0   4  -8    0.12    0.15
  -1   4  -8    2.38    0.31
  -1   4  -8    2.33    0.26
   1  -4   8    2.22    0.25
  -2   4  -8    1.35    0.31
  -2   4  -8    1.52    0.23
   2  -4   8    0.85    0.19
   2  -4   8    1.33    0.24
  -3   4  -8    0.85    0.20
   3  -4   8    0.91    0.23
   3  -4   8    0.91    0.20
  -4   4  -8   11.64    0.49
   4  -4   8   11.60    0.48
  -5   4  -8    0.03    0.08
   5  -4   8    0.03    0.08
   7   3  -8    0.12    0.06
   7   3  -8    0.11    0.07
   6   3  -8    0.21    0.10
   6   3  -8   -0.02    0.08
   6   3  -8    0.07    0.08
   5   3  -8    0.12    0.10
   5   3  -8    0.24    0.13
   5   3  -8    0.34    0.12
   5   3  -8    0.52    0.16
   4   3  -8    1.72    0.29
   4   3  -8    1.28    0.23
   4   3  -8    0.89    0.21
   4   3  -8    1.28    0.21
  -4  -3   8    0.95    0.23
   3   3  -8   24.65    0.96
   3   3  -8   24.37    0.94
   3   3  -8   24.23    0.94
   3   3  -8   24.59    0.96
  -3  -3   8   24.22    0.93
   2   3  -8    1.70    0.26
   2   3  -8    1.28    0.25
   2   3  -8    1.31    0.35
   2   3  -8    1.28    0.24
   1   3  -8    0.86    0.26
   1   3  -8    0.35    0.20
   1   3  -8    0.56    0.16
   1   3  -8    0.56    0.16
   0   3  -8    7.56    0.48
   0   3  -8    8.73    0.50
   0   3  -8    8.97    0.53
   0   3  -8    8.36    0.45
   0  -3   8    8.60    0.45
  -1   3  -8    0.44    0.15
  -1   3  -8    0.48    0.21
  -1   3  -8    0.06    0.20
   1  -3   8    0.32    0.13
  -2   3  -8    0.29    0.15
  -2   3  -8    0.13    0.19
   2  -3   8    0.39    0.15
  -3   3  -8    8.47    0.42
   3  -3   8    7.14    0.43
   3  -3   8    8.31    0.43
  -4   3  -8   -0.24    0.16
  -4   3  -8    0.22    0.12
   4  -3   8    0.03    0.11
  -5   3  -8    0.10    0.09
   5  -3   8    0.14    0.09
   7   2  -8    3.74    0.21
   7   2  -8    3.28    0.20
   7   2  -8    3.62    0.20
   6   2  -8    0.01    0.10
   6   2  -8    0.08    0.09
   6   2  -8   -0.03    0.08
   6   2  -8    0.04    0.09
   5   2  -8    1.00    0.20
   5   2  -8    0.54    0.13
   5   2  -8    0.78    0.18
   5   2  -8    0.60    0.15
   4   2  -8   29.31    1.09
   4   2  -8   29.59    1.11
   4   2  -8   28.91    1.09
   4   2  -8   29.18    1.11
  -4  -2   8   29.15    1.11
   3   2  -8    0.11    0.17
   3   2  -8    0.00    0.13
   3   2  -8    0.13    0.13
   3   2  -8   -0.05    0.12
  -3  -2   8    0.27    0.16
   2   2  -8    0.15    0.15
   2   2  -8   -0.11    0.16
   2   2  -8    0.03    0.13
  -2  -2   8    0.15    0.15
   1   2  -8    3.21    0.33
   1   2  -8    2.33    0.28
   1   2  -8    2.15    0.29
   1   2  -8    2.60    0.35
  -1  -2   8    2.84    0.29
   0   2  -8    0.12    0.32
   0   2  -8    0.14    0.17
   0   2  -8    0.38    0.21
   0   2  -8    0.08    0.14
   0  -2   8    0.05    0.13
  -1   2  -8    1.33    0.22
  -1   2  -8    1.40    0.26
   1  -2   8    1.63    0.25
  -2   2  -8   -0.02    0.14
  -2   2  -8    0.07    0.15
   2  -2   8    0.17    0.14
  -3   2  -8    5.54    0.34
  -3   2  -8    5.05    0.38
   3  -2   8    5.17    0.38
   3  -2   8    4.93    0.37
  -4   2  -8   28.24    1.03
  -4   2  -8   28.49    1.03
   4  -2   8   27.13    1.01
  -5   2  -8    2.95    0.27
  -5   2  -8    3.32    0.23
   5  -2   8    3.45    0.24
  -6   2  -8    0.08    0.09
   6  -2   8   -0.04    0.07
   7   1  -8    0.45    0.12
   7   1  -8    0.48    0.12
   7   1  -8    0.36    0.12
   6   1  -8   -0.06    0.09
   6   1  -8    0.12    0.09
   6   1  -8    0.14    0.10
   6   1  -8    0.20    0.09
   5   1  -8    8.20    0.43
   5   1  -8    7.97    0.42
   5   1  -8    8.33    0.43
   5   1  -8    7.82    0.40
   4   1  -8    0.03    0.11
   4   1  -8    0.11    0.13
   4   1  -8   -0.06    0.14
   4   1  -8   -0.17    0.13
   3   1  -8    9.10    0.49
   3   1  -8    9.28    0.47
   3   1  -8    8.93    0.49
   3   1  -8    9.61    0.51
  -3  -1   8   10.51    0.51
   2   1  -8   11.46    0.54
   2   1  -8   11.71    0.57
   2   1  -8   11.43    0.56
   2   1  -8   11.67    0.58
  -2  -1   8   12.08    0.56
   1   1  -8    8.38    0.46
   1   1  -8    8.24    0.52
   1   1  -8    9.07    0.48
   1   1  -8    8.52    0.47
  -1  -1   8    8.40    0.45
   0   1  -8    3.20    0.32
   0   1  -8    3.37    0.32
   0  -1   8    3.26    0.30
  -1   1  -8    1.53    0.28
  -1   1  -8    0.93    0.28
   1  -1   8    1.55    0.24
  -2   1  -8    1.76    0.32
  -2   1  -8    1.67    0.27
   2  -1   8    1.82    0.27
  -3   1  -8    0.31    0.16
  -3   1  -8    0.36    0.15
   3  -1   8    0.22    0.16
   3  -1   8    0.08    0.16
  -4   1  -8    3.34    0.27
  -4   1  -8    3.96    0.31
   4  -1   8    3.58    0.30
  -5   1  -8    0.93    0.20
  -5   1  -8    0.83    0.18
   5  -1   8    0.79    0.19
  -6   1  -8    1.90    0.19
  -6   1  -8    1.74    0.18
   6  -1   8    1.95    0.18
   7   0  -8    0.11    0.07
   7   0  -8    0.07    0.09
   7   0  -8    0.11    0.07
   6   0  -8    0.05    0.09
   6   0  -8   -0.06    0.15
   6   0  -8    0.05    0.10
   6   0  -8    0.04    0.09
   5   0  -8    8.53    0.44
   5   0  -8    7.90    0.43
   5   0  -8    7.90    0.42
   5   0  -8    7.90    0.41
   4   0  -8    1.31    0.27
   4   0  -8    1.61    0.30
   4   0  -8    1.87    0.27
   4   0  -8    1.25    0.23
   3   0  -8   -0.10    0.13
   3   0  -8    0.03    0.17
   3   0  -8    0.12    0.13
   3   0  -8    0.07    0.18
  -3   0   8    0.14    0.20
   2   0  -8    0.33    0.18
   2   0  -8    0.33    0.23
   2   0  -8    0.52    0.18
   2   0  -8    1.01    0.26
  -2   0   8    0.28    0.15
   1   0  -8    2.12    0.30
   1   0  -8    2.34    0.31
   1   0  -8    1.49    0.32
  -1   0   8    1.96    0.24
   0   0  -8    0.93    0.26
   0   0  -8    0.16    0.18
   0   0   8    0.20    0.13
  -1   0  -8    4.28    0.36
  -1   0  -8    4.16    0.35
   1   0   8    4.36    0.33
  -2   0  -8   26.56    1.05
  -2   0  -8   28.33    1.06
   2   0   8   28.46    1.06
  -3   0  -8    6.80    0.40
  -3   0  -8    6.31    0.40
   3   0   8    6.57    0.41
   3   0   8    6.25    0.43
  -4   0  -8   -0.07    0.12
  -4   0  -8    0.18    0.16
   4   0   8   -0.09    0.13
   4   0   8   -0.14    0.16
  -5   0  -8    0.43    0.11
  -5   0  -8    0.04    0.15
   5   0   8    0.12    0.10
  -6   0  -8    2.64    0.19
   6   0   8    2.24    0.18
   7  -1  -8    2.29    0.21
   7  -1  -8    2.17    0.17
   7  -1  -8    2.25    0.18
   7  -1  -8    1.97    0.17
   6  -1  -8    2.53    0.24
   6  -1  -8    2.36    0.21
   6  -1  -8    2.40    0.22
   6  -1  -8    2.53    0.22
   5  -1  -8   -0.08    0.12
   5  -1  -8    0.14    0.12
   5  -1  -8    0.07    0.13
   5  -1  -8   -0.09    0.11
   4  -1  -8    5.52    0.39
   4  -1  -8    5.66    0.39
   4  -1  -8    5.37    0.34
   4  -1  -8    6.26    0.41
   4  -1  -8    5.73    0.39
   3  -1  -8   -0.08    0.21
   3  -1  -8    0.45    0.20
   3  -1  -8    0.18    0.14
   3  -1  -8   -0.01    0.18
   3  -1  -8   -0.02    0.13
  -3   1   8   -0.13    0.19
   2  -1  -8    2.72    0.36
   2  -1  -8    2.40    0.35
   2  -1  -8    2.99    0.31
   2  -1  -8    3.18    0.30
  -2   1   8    2.55    0.34
   1  -1  -8    2.09    0.32
   1  -1  -8    3.39    0.41
   1  -1  -8    2.56    0.39
   1  -1  -8    3.07    0.32
  -1   1   8    3.07    0.31
   0  -1  -8   10.22    0.58
   0  -1  -8    9.24    0.58
   0  -1  -8   10.21    0.51
   0   1   8   10.33    0.51
  -1  -1  -8    4.17    0.43
  -1  -1  -8    4.22    0.34
   1   1   8    4.13    0.32
  -2  -1  -8   47.70    1.86
  -2  -1  -8   49.36    1.75
   2   1   8   51.71    1.76
  -3  -1  -8    5.47    0.36
   3   1   8    5.48    0.36
   3   1   8    5.15    0.44
  -4  -1  -8    0.68    0.21
   4   1   8    1.32    0.25
   4   1   8    0.35    0.17
  -5  -1  -8    3.02    0.24
   5   1   8    3.38    0.25
  -6  -1  -8    0.25    0.09
   6   1   8    0.53    0.15
   7  -2  -8    2.36    0.18
   7  -2  -8    2.75    0.19
  -7   2   8    2.56    0.17
   6  -2  -8    7.11    0.35
   6  -2  -8    6.90    0.35
   6  -2  -8    7.20    0.34
   6  -2  -8    6.77    0.36
   5  -2  -8    2.79    0.27
   5  -2  -8    2.52    0.26
   5  -2  -8    2.11    0.29
   5  -2  -8    2.28    0.26
   4  -2  -8    3.49    0.32
   4  -2  -8    3.51    0.32
   4  -2  -8    3.20    0.31
   4  -2  -8    2.66    0.33
   3  -2  -8   84.84    2.86
   3  -2  -8   87.31    2.86
  -3   2   8   81.83    2.84
   2  -2  -8   10.39    0.53
   2  -2  -8   10.47    0.54
  -2   2   8   10.12    0.52
   1  -2  -8    1.45    0.30
   1  -2  -8    1.46    0.28
  -1   2   8    1.43    0.26
   0  -2  -8    0.27    0.15
   0   2   8   -0.15    0.14
  -1  -2  -8    4.10    0.33
   1   2   8    4.00    0.33
  -2  -2  -8    4.18    0.36
   2   2   8    4.51    0.34
  -3  -2  -8    0.73    0.24
   3   2   8    0.46    0.15
   3   2   8    0.63    0.18
  -4  -2  -8    0.75    0.21
   4   2   8    0.26    0.13
   4   2   8    0.37    0.16
  -5  -2  -8    1.59    0.19
   5   2   8    1.34    0.20
  -6  -2  -8    0.75    0.14
   6   2   8    0.95    0.15
   7  -3  -8    0.20    0.10
   7  -3  -8    0.01    0.07
  -7   3   8   -0.07    0.06
   6  -3  -8    5.01    0.27
   6  -3  -8    4.92    0.28
  -6   3   8    4.99    0.26
   5  -3  -8    1.39    0.23
   5  -3  -8    1.25    0.24
   5  -3  -8    1.01    0.20
   4  -3  -8    7.17    0.42
   4  -3  -8    7.25    0.41
   3  -3  -8    0.05    0.14
   3  -3  -8   -0.08    0.16
   2  -3  -8    1.06    0.29
   2  -3  -8    0.61    0.15
   1  -3  -8    5.19    0.37
   1  -3  -8    6.24    0.39
  -1   3   8    5.57    0.35
   0  -3  -8    1.01    0.29
   0   3   8    1.58    0.22
  -1  -3  -8   10.05    0.50
   1   3   8   10.14    0.50
  -2  -3  -8    0.54    0.17
   2   3   8    0.61    0.21
  -3  -3  -8    0.39    0.14
   3   3   8    0.16    0.13
   3   3   8    0.26    0.17
  -4  -3  -8   10.26    0.46
   4   3   8   10.13    0.46
   4   3   8    9.64    0.47
  -5  -3  -8    1.19    0.18
   5   3   8    1.09    0.18
   6  -4  -8    0.06    0.07
  -6   4   8    0.07    0.07
   5  -4  -8    8.16    0.38
   5  -4  -8    8.00    0.39
  -5   4   8    7.44    0.36
   4  -4  -8    0.26    0.12
   4  -4  -8    0.38    0.15
  -4   4   8    0.23    0.10
   3  -4  -8   16.28    0.71
   3  -4  -8   16.78    0.70
  -3   4   8   17.29    0.68
   2  -4  -8    8.84    0.48
   2  -4  -8    8.51    0.45
  -2   4   8    8.93    0.44
  -2   4   8    8.79    0.47
   1  -4  -8   29.64    1.10
   1  -4  -8   27.82    1.09
  -1   4   8   30.12    1.10
   0  -4  -8    2.75    0.32
   0  -4  -8    2.45    0.28
   0   4   8    2.20    0.27
  -1  -4  -8    4.72    0.35
   1   4   8    4.55    0.32
  -2  -4  -8    8.66    0.43
   2   4   8    7.95    0.42
  -3  -4  -8    0.42    0.12
   3   4   8    0.91    0.30
   3   4   8    0.74    0.20
  -4  -4  -8    4.49    0.27
   4   4   8    3.47    0.31
   4   4   8    5.02    0.29
  -5  -4  -8    0.55    0.15
   5   4   8    0.28    0.10
   6  -5  -8    0.40    0.12
  -6   5   8    0.60    0.10
   5  -5  -8    0.85    0.15
  -5   5   8    0.62    0.12
   4  -5  -8   -0.06    0.09
  -4   5   8    0.08    0.08
   3  -5  -8    3.75    0.29
  -3   5   8    3.34    0.24
   2  -5  -8    0.02    0.11
  -2   5   8    0.02    0.11
  -2   5   8    0.96    0.31
   1  -5  -8   13.76    0.59
   1  -5  -8   13.40    0.62
  -1   5   8   13.19    0.60
   0  -5  -8    5.45    0.43
   0  -5  -8    6.02    0.37
   0   5   8    5.72    0.36
  -1  -5  -8    0.30    0.16
   1   5   8    0.11    0.13
  -2  -5  -8    1.97    0.29
   2   5   8    1.34    0.22
   2   5   8    1.53    0.31
  -3  -5  -8   14.14    0.58
   3   5   8   13.24    0.58
   3   5   8   13.83    0.57
   3   5   8   14.14    0.58
   4   5   8   11.96    0.50
   4   5   8   11.49    0.47
   4   5   8   11.64    0.50
   5  -6  -8    0.46    0.12
  -5   6   8    0.47    0.11
   4  -6  -8    8.74    0.38
  -4   6   8    8.30    0.36
   3  -6  -8    0.02    0.09
  -3   6   8    0.03    0.09
   2  -6  -8    1.37    0.19
  -2   6   8    1.21    0.19
   1  -6  -8    0.05    0.09
  -1   6   8   -0.02    0.16
   0  -6  -8   13.12    0.54
   0   6   8   12.26    0.56
  -1  -6  -8    0.40    0.10
   1   6   8    0.96    0.20
  -2  -6  -8    0.14    0.09
   2   6   8    0.17    0.12
   3   6   8    3.25    0.25
   3  -7  -8    2.26    0.17
  -3   7   8    2.02    0.17
   2  -7  -8    8.44    0.37
  -2   7   8    8.22    0.36
   1  -7  -8    0.08    0.08
  -1   7   8    0.10    0.20
   0   7   8    0.21    0.14
  -1  -7  -8    1.22    0.15
   1   7   8    0.82    0.19
  -2  -7  -8    0.04    0.07
   2   7   8   -0.07    0.10
   1   7  -9    1.34    0.13
  -1  -7   9    1.25    0.19
   0   7  -9    0.02    0.07
   3   6  -9    2.98    0.18
   3   6  -9    3.18    0.20
   3   6  -9    2.92    0.19
  -3  -6   9    3.30    0.26
   2   6  -9    4.68    0.25
   2   6  -9    4.75    0.24
   2   6  -9    4.82    0.25
  -2  -6   9    4.77    0.27
   1   6  -9    0.09    0.09
   1   6  -9    0.01    0.08
   1   6  -9    0.01    0.10
  -1  -6   9    0.09    0.10
   0   6  -9    4.11    0.24
   0   6  -9    4.47    0.25
   0  -6   9    4.18    0.27
  -1   6  -9    1.19    0.15
  -1   6  -9    1.38    0.18
   1  -6   9    1.09    0.21
  -2   6  -9    2.44    0.23
  -2   6  -9    2.91    0.18
   4   5  -9    4.08    0.23
   4   5  -9    3.76    0.22
   4   5  -9    3.63    0.21
   3   5  -9    8.34    0.38
   3   5  -9    8.73    0.39
   3   5  -9    9.02    0.39
  -3  -5   9    9.03    0.41
   2   5  -9    6.08    0.32
   2   5  -9    6.05    0.31
   2   5  -9    6.06    0.30
  -2  -5   9    6.23    0.34
   1   5  -9    0.94    0.18
   1   5  -9    1.20    0.18
   1   5  -9    1.52    0.19
  -1  -5   9    0.94    0.20
   0   5  -9    1.02    0.19
   0   5  -9    0.65    0.16
   0  -5   9    0.31    0.12
  -1   5  -9    0.72    0.19
  -1   5  -9    0.68    0.17
   1  -5   9    0.71    0.20
  -2   5  -9    1.36    0.17
  -2   5  -9    1.49    0.28
   2  -5   9    1.65    0.24
  -3   5  -9    2.81    0.18
   5   4  -9    1.12    0.13
   5   4  -9    0.98    0.14
   5   4  -9    1.14    0.15
   4   4  -9    0.29    0.10
   4   4  -9    0.16    0.08
   4   4  -9    0.15    0.09
   3   4  -9    5.46    0.31
   3   4  -9    5.03    0.28
   3   4  -9    5.00    0.30
  -3  -4   9    4.78    0.33
   2   4  -9    0.36    0.11
   2   4  -9    0.46    0.14
   2   4  -9    0.72    0.18
  -2  -4   9    0.47    0.14
   1   4  -9    0.01    0.10
   1   4  -9   -0.07    0.12
   1   4  -9   -0.10    0.10
  -1  -4   9   -0.01    0.11
   0   4  -9    0.11    0.12
   0   4  -9   -0.20    0.12
   0  -4   9   -0.15    0.11
  -1   4  -9    3.27    0.26
  -1   4  -9    3.32    0.30
   1  -4   9    3.91    0.28
  -2   4  -9    2.26    0.20
   2  -4   9    2.25    0.23
  -3   4  -9    5.32    0.27
   3  -4   9    4.12    0.54
  -4   4  -9   15.00    0.56
   6   3  -9    0.10    0.06
   6   3  -9    0.12    0.06
   6   3  -9    0.18    0.07
   5   3  -9    1.34    0.17
   5   3  -9    1.52    0.22
   5   3  -9    1.73    0.17
   5   3  -9    1.51    0.16
   4   3  -9    0.79    0.17
   4   3  -9    0.92    0.16
   4   3  -9    0.98    0.19
   4   3  -9    1.00    0.21
   3   3  -9    0.89    0.20
   3   3  -9    0.44    0.15
   3   3  -9    0.25    0.12
  -3  -3   9    0.70    0.23
   2   3  -9    1.32    0.22
   2   3  -9    1.13    0.22
   2   3  -9    1.00    0.20
  -2  -3   9    1.08    0.24
   1   3  -9   15.68    0.63
   1   3  -9   14.15    0.64
   1   3  -9   15.66    0.63
   1   3  -9   14.72    0.64
  -1  -3   9   14.54    0.64
   0   3  -9   12.83    0.58
   0   3  -9   13.99    0.59
   0  -3   9   13.06    0.59
  -1   3  -9    0.08    0.17
  -1   3  -9    0.89    0.20
   1  -3   9    0.50    0.15
   2  -3   9    1.17    0.23
  -3   3  -9    2.20    0.21
   3  -3   9    2.04    0.29
  -4   3  -9   12.65    0.50
   4  -3   9   12.59    0.52
  -5   3  -9    0.24    0.08
   6   2  -9    0.09    0.08
   6   2  -9   -0.03    0.06
   6   2  -9    0.05    0.06
   6   2  -9    0.02    0.07
   5   2  -9    3.76    0.24
   5   2  -9    4.01    0.25
   5   2  -9    3.89    0.25
   5   2  -9    3.53    0.24
   4   2  -9   18.23    0.75
   4   2  -9   19.58    0.75
   4   2  -9   19.36    0.77
   4   2  -9   20.40    0.76
   3   2  -9   11.83    0.53
   3   2  -9   12.81    0.54
   3   2  -9   12.32    0.56
   3   2  -9   12.31    0.57
  -3  -2   9   11.42    0.55
   2   2  -9    4.50    0.35
   2   2  -9    4.02    0.30
   2   2  -9    3.81    0.35
   2   2  -9    4.24    0.31
  -2  -2   9    3.90    0.31
   1   2  -9    2.44    0.34
   1   2  -9    2.56    0.29
   1   2  -9    2.33    0.25
   1   2  -9    1.78    0.29
  -1  -2   9    2.19    0.26
   0   2  -9    0.71    0.22
   0   2  -9    0.59    0.16
   0  -2   9    0.32    0.14
  -1   2  -9    1.82    0.29
  -1   2  -9    1.70    0.24
   1  -2   9    1.69    0.23
  -2   2  -9    1.66    0.27
  -2   2  -9    1.43    0.21
   2  -2   9    1.23    0.25
  -3   2  -9    0.41    0.14
  -3   2  -9    0.40    0.12
   3  -2   9    0.56    0.16
  -4   2  -9    8.17    0.38
  -4   2  -9    8.33    0.39
   4  -2   9    9.16    0.41
  -5   2  -9    2.37    0.32
  -5   2  -9    2.69    0.19
   5  -2   9    3.32    0.24
   6   1  -9   -0.04    0.07
   6   1  -9    0.14    0.09
   6   1  -9   -0.03    0.07
   5   1  -9    0.20    0.09
   5   1  -9    0.23    0.11
   5   1  -9    0.24    0.11
   5   1  -9    0.15    0.10
   4   1  -9    7.51    0.39
   4   1  -9    7.13    0.40
   4   1  -9    7.54    0.40
   4   1  -9    7.61    0.41
   3   1  -9   17.02    0.71
   3   1  -9   17.24    0.71
   3   1  -9   17.92    0.70
   3   1  -9   16.86    0.72
  -3  -1   9   15.87    0.70
   2   1  -9    0.95    0.25
   2   1  -9    0.84    0.24
   2   1  -9    1.37    0.34
   2   1  -9    0.36    0.15
  -2  -1   9    0.64    0.22
   1   1  -9    7.75    0.43
   1   1  -9    7.64    0.42
   1   1  -9    7.49    0.44
  -1  -1   9    7.63    0.41
   0   1  -9   -0.02    0.14
   0   1  -9    0.14    0.15
   0  -1   9    0.12    0.13
  -1   1  -9    3.00    0.29
  -1   1  -9    2.80    0.29
   1  -1   9    3.22    0.29
  -2   1  -9    1.27    0.24
  -2   1  -9    0.98    0.23
   2  -1   9    0.80    0.22
  -3   1  -9    0.13    0.12
  -3   1  -9    0.15    0.11
   3  -1   9    0.10    0.16
  -4   1  -9    0.28    0.11
  -4   1  -9    0.06    0.12
   4  -1   9    0.20    0.14
  -5   1  -9    0.13    0.12
  -5   1  -9    0.54    0.14
   5  -1   9    0.14    0.11
   6   0  -9    9.58    0.39
   6   0  -9    8.73    0.38
   6   0  -9    9.53    0.40
   5   0  -9    2.93    0.23
   5   0  -9    2.87    0.22
   5   0  -9    2.78    0.24
   4   0  -9    0.15    0.14
   4   0  -9    0.00    0.12
   4   0  -9    0.11    0.11
   4   0  -9    0.18    0.14
   3   0  -9    6.17    0.35
   3   0  -9    6.21    0.38
   3   0  -9    5.34    0.42
   3   0  -9    5.87    0.38
  -3   0   9    5.69    0.40
   2   0  -9    5.60    0.35
   2   0  -9    4.91    0.37
   2   0  -9    5.36    0.36
  -2   0   9    4.81    0.36
   1   0  -9    2.95    0.31
   1   0  -9    2.62    0.33
   1   0  -9    3.22    0.32
  -1   0   9    3.23    0.31
   0   0  -9    5.99    0.40
   0   0  -9    5.29    0.37
   0   0   9    5.55    0.37
  -1   0  -9   28.81    1.07
  -1   0  -9   29.39    1.08
   1   0   9   27.79    1.08
  -2   0  -9   10.36    0.49
  -2   0  -9   10.16    0.49
   2   0   9    9.42    0.48
  -3   0  -9    0.02    0.11
  -3   0  -9    0.12    0.14
   3   0   9    0.01    0.14
  -4   0  -9    1.19    0.18
  -4   0  -9    0.79    0.17
   4   0   9    1.07    0.29
   4   0   9    0.73    0.15
  -5   0  -9    4.32    0.23
   5   0   9    4.05    0.27
   6  -1  -9    3.48    0.21
   6  -1  -9    3.20    0.22
   6  -1  -9    3.35    0.22
   5  -1  -9   17.00    0.67
   5  -1  -9   17.44    0.69
   5  -1  -9   17.32    0.66
   4  -1  -9   13.93    0.61
   4  -1  -9   14.76    0.63
   4  -1  -9   16.55    0.65
   3  -1  -9    1.09    0.31
   3  -1  -9    0.71    0.24
  -3   1   9    1.01    0.34
   2  -1  -9    1.78    0.27
   2  -1  -9    1.94    0.35
  -2   1   9    2.18    0.28
   1  -1  -9    7.42    0.54
   1  -1  -9    9.26    0.48
  -1   1   9    9.23    0.47
   0  -1  -9    1.13    0.25
   0  -1  -9    1.37    0.36
   0   1   9    1.47    0.24
  -1  -1  -9   34.59    1.24
   1   1   9   33.16    1.25
  -2  -1  -9    0.35    0.14
   2   1   9    0.43    0.15
  -3  -1  -9    0.31    0.11
   3   1   9    0.25    0.14
  -4  -1  -9    0.17    0.10
   4   1   9   -0.18    0.15
   4   1   9    0.10    0.15
  -5  -1  -9    0.42    0.13
   5   1   9    1.04    0.21
   6  -2  -9    0.24    0.11
   6  -2  -9    0.10    0.08
  -6   2   9    0.24    0.08
   5  -2  -9    0.15    0.11
   5  -2  -9    0.27    0.10
   5  -2  -9    0.25    0.15
   4  -2  -9    4.42    0.31
   4  -2  -9    3.99    0.30
   3  -2  -9   76.89    2.60
   3  -2  -9   76.77    2.58
   2  -2  -9    1.77    0.27
   2  -2  -9    1.24    0.29
  -2   2   9    0.95    0.25
   1  -2  -9    0.18    0.14
   1  -2  -9   -0.32    0.14
  -1   2   9    0.26    0.15
   0  -2  -9    0.07    0.15
   0  -2  -9   -0.03    0.12
   0   2   9   -0.03    0.12
  -1  -2  -9    0.11    0.12
  -1  -2  -9    0.05    0.16
   1   2   9    0.08    0.12
  -2  -2  -9    2.48    0.25
   2   2   9    2.66    0.26
  -3  -2  -9    4.16    0.28
   3   2   9    3.93    0.29
  -4  -2  -9    0.72    0.15
   4   2   9    0.77    0.18
   4   2   9    0.51    0.16
  -5  -2  -9    1.90    0.16
   6  -3  -9    0.89    0.15
   6  -3  -9    0.55    0.16
  -6   3   9    0.97    0.11
   5  -3  -9    0.17    0.10
   5  -3  -9    0.06    0.09
  -5   3   9    0.18    0.08
   4  -3  -9    3.47    0.27
   4  -3  -9    3.48    0.27
  -4   3   9    3.50    0.24
   3  -3  -9    2.58    0.27
   3  -3  -9    2.50    0.26
   2  -3  -9    8.07    0.42
   2  -3  -9    8.07    0.43
  -2   3   9    7.89    0.41
  -2   3   9    6.74    0.42
   1  -3  -9    0.77    0.16
   1  -3  -9    0.62    0.15
  -1   3   9    0.98    0.23
   0  -3  -9    5.16    0.35
   0  -3  -9    5.26    0.36
   0   3   9    4.92    0.33
  -1  -3  -9    2.73    0.28
  -1  -3  -9    2.26    0.26
   1   3   9    2.15    0.24
  -2  -3  -9    1.65    0.21
   2   3   9    1.41    0.22
  -3  -3  -9    3.23    0.24
   3   3   9    3.63    0.26
  -4  -3  -9    2.60    0.19
   4   3   9    2.27    0.28
   5  -4  -9    1.02    0.15
   5  -4  -9    0.56    0.15
  -5   4   9    0.63    0.12
   4  -4  -9    1.87    0.19
   4  -4  -9    1.12    0.23
  -4   4   9    1.75    0.17
   3  -4  -9    5.84    0.32
   3  -4  -9    5.83    0.34
  -3   4   9    5.61    0.31
   2  -4  -9    0.02    0.14
   2  -4  -9    0.04    0.10
  -2   4   9    0.13    0.18
  -2   4   9    0.12    0.12
   1  -4  -9    4.17    0.29
   1  -4  -9    4.18    0.33
  -1   4   9    4.13    0.30
   0  -4  -9    0.28    0.14
   0  -4  -9    0.08    0.11
   0   4   9    0.15    0.13
  -1  -4  -9    3.51    0.26
  -1  -4  -9    3.02    0.29
   1   4   9    3.22    0.26
  -2  -4  -9    1.09    0.21
   2   4   9    1.20    0.19
  -3  -4  -9   -0.06    0.10
   3   4   9    0.01    0.11
  -4  -4  -9    0.15    0.10
   4  -5  -9    1.09    0.15
  -4   5   9    1.16    0.13
   3  -5  -9    2.81    0.21
  -3   5   9    2.58    0.19
   2  -5  -9   -0.02    0.09
  -2   5   9    0.13    0.12
   1  -5  -9    3.32    0.39
   1  -5  -9    3.24    0.25
  -1   5   9    3.40    0.28
   0  -5  -9    0.01    0.10
   0  -5  -9    0.00    0.16
   0   5   9    0.11    0.13
  -1  -5  -9    6.19    0.37
  -1  -5  -9    5.81    0.31
   1   5   9    5.87    0.32
  -2  -5  -9    0.16    0.15
  -2  -5  -9    0.03    0.08
   2   5   9    0.00    0.11
  -3  -5  -9    1.42    0.15
   3  -6  -9    0.01    0.07
  -3   6   9    0.14    0.10
   2  -6  -9    4.58    0.25
   1  -6  -9    1.25    0.16
  -1   6   9    1.28    0.29
   0  -6  -9    5.96    0.28
   0   6   9    5.39    0.33
  -1  -6  -9    0.93    0.15
   1   6   9    1.31    0.20
  -2  -6  -9    0.55    0.12
   2   6   9    0.54    0.19
   3   5 -10    0.11    0.07
   3   5 -10    0.15    0.08
   3   5 -10   -0.07    0.07
   2   5 -10    1.22    0.15
   2   5 -10    0.98    0.13
   2   5 -10    0.72    0.15
  -2  -5  10    0.94    0.19
   1   5 -10    0.80    0.13
   1   5 -10    0.81    0.18
  -1  -5  10    0.84    0.17
   0   5 -10    0.10    0.12
   0   5 -10   -0.04    0.08
   0  -5  10   -0.07    0.10
  -1   5 -10    1.54    0.14
   1  -5  10    2.02    0.23
  -2   5 -10    0.74    0.12
   4   4 -10    0.54    0.14
   4   4 -10    0.11    0.07
   4   4 -10    0.24    0.08
   3   4 -10    4.90    0.26
   3   4 -10    4.75    0.26
   3   4 -10    4.87    0.25
  -3  -4  10    5.05    0.31
   2   4 -10    2.10    0.20
   2   4 -10    2.31    0.18
   2   4 -10    1.91    0.18
  -2  -4  10    1.91    0.21
   1   4 -10    0.08    0.10
   1   4 -10    0.21    0.15
   1   4 -10    0.20    0.12
  -1  -4  10    0.17    0.11
   0   4 -10    2.42    0.20
   0   4 -10    2.10    0.31
   0  -4  10    2.15    0.20
  -1   4 -10    0.71    0.14
  -2   4 -10    3.79    0.22
   2  -4  10    3.88    0.30
  -3   4 -10    3.99    0.21
   5   3 -10   -0.10    0.06
   5   3 -10    0.11    0.06
   5   3 -10    0.00    0.07
   4   3 -10    2.00    0.24
   4   3 -10    1.91    0.16
   4   3 -10    1.87    0.17
   4   3 -10    2.11    0.18
   3   3 -10    2.59    0.20
   3   3 -10    2.21    0.25
   3   3 -10    2.11    0.19
   3   3 -10    2.00    0.21
  -3  -3  10    2.85    0.27
   2   3 -10    2.33    0.24
   2   3 -10    2.13    0.26
   2   3 -10    2.29    0.21
   2   3 -10    2.23    0.21
  -2  -3  10    2.25    0.23
   1   3 -10    4.00    0.26
   1   3 -10    4.53    0.30
   1   3 -10    3.92    0.33
  -1  -3  10    4.16    0.28
   0   3 -10    0.03    0.16
   0   3 -10    0.08    0.09
   0  -3  10    0.17    0.11
  -1   3 -10   -0.09    0.16
  -1   3 -10    0.63    0.17
   1  -3  10    0.19    0.12
  -2   3 -10    1.10    0.16
   2  -3  10    1.08    0.22
  -3   3 -10    0.05    0.08
   5   2 -10    0.23    0.09
   5   2 -10    0.25    0.07
   5   2 -10    0.35    0.11
   5   2 -10    0.20    0.07
   4   2 -10    0.02    0.08
   4   2 -10   -0.01    0.10
   4   2 -10    0.06    0.09
   4   2 -10    0.07    0.10
   3   2 -10    4.15    0.26
   3   2 -10    4.28    0.27
   3   2 -10    4.18    0.28
   3   2 -10    4.23    0.28
  -3  -2  10    4.52    0.34
   2   2 -10    1.89    0.20
   2   2 -10    1.84    0.30
   2   2 -10    1.91    0.22
   2   2 -10    2.13    0.26
  -2  -2  10    1.72    0.23
   1   2 -10    0.21    0.19
   1   2 -10   -0.08    0.10
   1   2 -10    0.09    0.12
  -1  -2  10    0.12    0.12
   0   2 -10    3.89    0.27
   0   2 -10    3.60    0.29
   0  -2  10    3.36    0.27
  -1   2 -10   13.64    0.58
  -1   2 -10   14.48    0.58
   1  -2  10   13.32    0.58
  -2   2 -10    6.14    0.32
  -2   2 -10    6.34    0.34
   2  -2  10    6.38    0.34
  -3   2 -10    0.67    0.20
   3  -2  10    0.44    0.18
  -4   2 -10    1.67    0.16
   5   1 -10    0.70    0.15
   5   1 -10    0.71    0.13
   5   1 -10    0.76    0.14
   4   1 -10    4.06    0.24
   4   1 -10    4.44    0.27
   4   1 -10    4.62    0.27
   4   1 -10    4.70    0.28
   3   1 -10    3.06    0.32
   3   1 -10    3.14    0.23
   3   1 -10    3.14    0.25
   3   1 -10    3.15    0.25
  -3  -1  10    3.35    0.34
   2   1 -10    1.26    0.22
   2   1 -10    1.57    0.23
   2   1 -10    1.28    0.22
  -2  -1  10    1.69    0.26
   1   1 -10    0.04    0.11
   1   1 -10    0.16    0.13
  -1  -1  10   -0.04    0.13
   0   1 -10   10.94    0.50
   0   1 -10   10.28    0.50
   0  -1  10   11.50    0.51
  -1   1 -10   11.55    0.51
  -1   1 -10   11.29    0.51
   1  -1  10   11.21    0.51
  -2   1 -10    5.85    0.33
  -2   1 -10    5.97    0.32
   2  -1  10    5.86    0.35
  -3   1 -10   -0.09    0.11
  -3   1 -10   -0.01    0.09
   3  -1  10    0.10    0.12
  -4   1 -10    0.06    0.09
   5   0 -10    1.07    0.14
   5   0 -10    1.42    0.20
   5   0 -10    1.01    0.16
   4   0 -10    5.53    0.33
   4   0 -10    5.70    0.31
   4   0 -10    5.93    0.32
   3   0 -10    0.40    0.12
   3   0 -10    0.20    0.13
  -3   0  10    0.01    0.21
   2   0 -10    4.78    0.33
   2   0 -10    4.74    0.30
  -2   0  10    4.90    0.33
   1   0 -10    4.69    0.34
   1   0 -10    5.23    0.33
  -1   0  10    4.90    0.33
   0   0 -10    0.06    0.15
   0   0 -10    0.14    0.11
   0   0  10   -0.08    0.13
  -1   0 -10    5.81    0.36
  -1   0 -10    6.44    0.35
   1   0  10    5.86    0.35
  -2   0 -10   -0.08    0.16
  -2   0 -10    0.16    0.10
   2   0  10    0.08    0.12
  -3   0 -10    0.02    0.08
   3   0  10    0.07    0.14
  -4   0 -10    1.43    0.15
   5  -1 -10    3.38    0.21
   4  -1 -10    1.56    0.24
   4  -1 -10    1.80    0.19
   3  -1 -10    4.47    0.35
   3  -1 -10    5.05    0.30
   2  -1 -10    0.01    0.09
  -2   1  10    0.13    0.15
   1  -1 -10    0.43    0.12
  -1   1  10    0.60    0.21
   0  -1 -10    1.74    0.24
   0   1  10    1.79    0.23
  -1  -1 -10    1.00    0.20
   1   1  10    0.92    0.20
  -2  -1 -10    0.22    0.11
   2   1  10    0.58    0.16
  -3  -1 -10    9.71    0.42
   3   1  10   10.24    0.44
  -4  -1 -10    2.89    0.18
   5  -2 -10    3.74    0.21
  -5   2  10    3.53    0.20
   4  -2 -10    0.16    0.09
   4  -2 -10    0.05    0.13
   1  -2 -10    0.71    0.19
  -1   2  10    0.78    0.19
   0  -2 -10    1.23    0.21
   0   2  10    0.88    0.18
  -1  -2 -10   -0.03    0.10
   1   2  10    0.11    0.12
  -2  -2 -10    0.24    0.10
   2   2  10    0.24    0.12
  -3  -2 -10    0.11    0.08
   3   2  10   -0.04    0.12
  -4  -2 -10    0.10    0.07
   5  -3 -10    0.08    0.09
  -5   3  10    0.04    0.07
   4  -3 -10    0.85    0.18
   4  -3 -10    1.40    0.17
  -4   3  10    1.21    0.14
   3  -3 -10    0.18    0.11
   3  -3 -10    0.02    0.10
  -3   3  10    0.04    0.10
   2  -3 -10    0.68    0.21
   2  -3 -10    0.52    0.13
  -2   3  10    0.91    0.26
   1  -3 -10    0.27    0.11
   1  -3 -10    0.06    0.12
  -1   3  10    0.14    0.14
   0  -3 -10    8.20    0.39
   0  -3 -10    7.65    0.39
   0   3  10    8.01    0.39
  -1  -3 -10   -0.02    0.09
  -1  -3 -10   -0.08    0.12
   1   3  10    0.07    0.11
  -2  -3 -10   -0.03    0.11
  -2  -3 -10    0.07    0.09
   2   3  10   -0.09    0.10
  -3  -3 -10   -0.08    0.08
   3   3  10    0.14    0.12
   4  -4 -10    1.24    0.16
  -4   4  10    1.21    0.14
   3  -4 -10    0.01    0.11
   3  -4 -10   -0.14    0.08
  -3   4  10    0.10    0.10
   2  -4 -10    0.27    0.10
   2  -4 -10    0.24    0.12
   1  -4 -10    5.69    0.32
   1  -4 -10    5.71    0.30
  -1   4  10    5.78    0.34
   0  -4 -10    5.09    0.28
   0  -4 -10    4.80    0.29
   0   4  10    5.06    0.30
  -1  -4 -10    0.04    0.09
  -1  -4 -10    0.25    0.10
   1   4  10    0.11    0.11
  -2  -4 -10    0.02    0.10
  -2  -4 -10    0.13    0.09
   2   4  10    0.09    0.10
   3  -5 -10    0.08    0.08
   2  -5 -10    0.53    0.14
   1  -5 -10   -0.07    0.09
   0  -5 -10    5.64    0.27
   0   5  10    5.91    0.33
  -1  -5 -10    7.79    0.33
   1   5  10    7.81    0.36
   1   4 -11    0.76    0.11
  -1  -4  11    0.82    0.20
   0   4 -11   -0.03    0.07
   3   3 -11    4.71    0.23
   2   3 -11    0.25    0.08
  -2  -3  11    0.29    0.14
   1   3 -11    0.40    0.13
  -1  -3  11    0.46    0.13
   0   3 -11    7.37    0.33
   0  -3  11    7.60    0.35
  -1   3 -11    0.13    0.08
   1  -3  11    0.03    0.12
   3   2 -11    9.31    0.39
   3   2 -11    9.87    0.40
   2   2 -11   -0.16    0.10
   2   2 -11    0.03    0.08
  -2  -2  11   -0.05    0.13
   1   2 -11    6.22    0.31
   1   2 -11    5.66    0.29
  -1  -2  11    5.85    0.32
   0   2 -11    7.84    0.36
   0   2 -11    8.11    0.37
   0  -2  11    8.25    0.38
  -1   2 -11    0.49    0.14
  -1   2 -11    0.15    0.11
   1  -2  11    0.07    0.13
  -2   2 -11   -0.03    0.09
   4   1 -11    1.50    0.15
   4   1 -11    1.62    0.15
   3   1 -11    0.47    0.11
   3   1 -11    0.43    0.14
   2   1 -11    8.31    0.37
   2   1 -11    8.28    0.38
  -2  -1  11    8.72    0.42
   1   1 -11    2.53    0.21
   1   1 -11    2.31    0.21
  -1  -1  11    2.29    0.23
   0   1 -11    2.04    0.20
   0   1 -11    1.79    0.20
   0  -1  11    2.18    0.22
  -1   1 -11    4.28    0.25
  -1   1 -11    4.35    0.26
   1  -1  11    4.28    0.27
  -2   1 -11    0.07    0.09
   2  -1  11    0.07    0.11
   4   0 -11    3.44    0.20
   3   0 -11    3.73    0.27
   3   0 -11    3.90    0.23
   2   0 -11   14.42    0.58
   2   0 -11   15.60    0.59
  -2   0  11   15.04    0.60
   1   0 -11    4.11    0.31
   1   0 -11    4.62    0.26
  -1   0  11    4.15    0.28
   0   0 -11    0.21    0.10
   0   0  11    0.15    0.11
  -1   0 -11    1.13    0.16
   1   0  11    1.44    0.17
  -2   0 -11   -0.10    0.08
   2   0  11    0.06    0.11
   4  -1 -11    0.17    0.07
  -4   1  11    0.13    0.09
   3  -1 -11    0.74    0.14
  -3   1  11    0.44    0.12
   2  -1 -11   12.52    0.50
  -2   1  11   11.83    0.53
   1  -1 -11    0.44    0.14
  -1   1  11    0.22    0.11
   0  -1 -11    0.98    0.17
   0   1  11    0.99    0.17
  -1  -1 -11    0.00    0.08
   1   1  11    0.04    0.11
  -2  -1 -11    5.66    0.27
   2   1  11    5.54    0.30
   3  -2 -11    1.61    0.16
   2  -2 -11    9.14    0.39
   1  -2 -11    7.65    0.35
  -1   2  11    7.85    0.38
   0  -2 -11   -0.01    0.09
   0   2  11    0.14    0.11
  -1  -2 -11    0.80    0.14
   1   2  11    0.84    0.17
  -2  -2 -11    0.66    0.13
   2   2  11    0.81    0.18
   3  -3 -11    0.18    0.09
   2  -3 -11    1.75    0.17
   1  -3 -11   -0.01    0.09
  -1   3  11   -0.17    0.16
   0  -3 -11    4.27    0.23
   0   3  11    4.12    0.27
  -1  -3 -11    0.14    0.08
   1   3  11    0.19    0.12
   0   0   0    0.00    0.00
;
_shelx_hkl_checksum              84274
_shelx_res_file
;
    SKM225_0m.res created by SHELXL-2014/7
TITL SKM225_0m_a.res in P-1
REM Old TITL SKM225_0m in P-1
REM SHELXT solution in P-1
REM R1 0.107,  Rweak 0.004,  Alpha 0.029,  Orientation as input
REM Formula found by SHELXT:  C16 N2 O3
CELL  1.54178   7.7193   8.6977   9.5907   90.457   95.070   90.627
ZERR    2.000   0.0003   0.0003   0.0004    0.002    0.002    0.002
LATT  1
SFAC C H N O
UNIT 32 24 4 6
TEMP -123
SIZE 0.052 0.066 0.138
L.S. 5
CONF
BOND $H
LIST 4
FMAP 2
PLAN 5
EQIV $1 -x+2, -y+2, -z+1
HTAB O2 O1_$1
EQIV $2 -x+1, -y+2, -z+1
HTAB N1 O3_$2
EQIV $3 -x+1, -y+1, -z+1
HTAB N2 O3_$3
MPLA N1 C1 > C8
MPLA N2 C9 > C16
ACTA 133
OMIT -5 -5 2
OMIT -5 -6 3
WGHT    0.043000    0.325200
FVAR       0.31811
O1    4    0.786287    1.055552    0.521088    11.00000    0.02728    0.03037 =
         0.03571   -0.01215    0.00432   -0.00451
O2    4    0.947721    0.942512    0.267115    11.00000    0.02652    0.02992 =
         0.03821   -0.00108    0.01108   -0.00537
AFIX 147
H2A   2    1.026520    0.958579    0.331906    11.00000   -1.50000
AFIX   0
O3    4    0.583564    0.702745    0.528768    11.00000    0.02808    0.02232 =
         0.03312   -0.00231    0.01326    0.00026
N1    3    0.561064    1.031521    0.349109    11.00000    0.02356    0.02195 =
         0.03062   -0.00387    0.00651    0.00025
H1    2    0.490969    1.104817    0.387909    11.00000    0.05235
N2    3    0.694372    0.502981    0.407627    11.00000    0.02624    0.01932 =
         0.03022   -0.00146    0.01016   -0.00269
H2B   2    0.612503    0.432675    0.423400    11.00000    0.05122
C1    1    0.518234    0.937109    0.230902    11.00000    0.02568    0.02167 =
         0.02648   -0.00034    0.00759   -0.00282
C2    1    0.364867    0.932813    0.145747    11.00000    0.02594    0.03440 =
         0.03206    0.00216    0.00574    0.00177
H2    2    0.266302    1.000288    0.162398    11.00000    0.03308
C3    1    0.352944    0.827855    0.035028    11.00000    0.02909    0.04297 =
         0.02968    0.00094   -0.00010   -0.00392
H3    2    0.245508    0.823566   -0.025257    11.00000    0.04186
C4    1    0.489871    0.731898    0.010880    11.00000    0.03908    0.03457 =
         0.02634   -0.00413    0.00210   -0.00153
H4    2    0.473643    0.655523   -0.070028    11.00000    0.03744
C5    1    0.644736    0.738670    0.097826    11.00000    0.03261    0.02580 =
         0.02646   -0.00164    0.00578    0.00169
H5    2    0.742525    0.672058    0.083657    11.00000    0.03277
C6    1    0.657774    0.842007    0.208557    11.00000    0.02346    0.02031 =
         0.02579    0.00163    0.00583   -0.00314
C7    1    0.801123    0.873793    0.322880    11.00000    0.02024    0.01955 =
         0.02831   -0.00194    0.00751   -0.00424
C8    1    0.717963    0.996489    0.412939    11.00000    0.02287    0.01872 =
         0.03105   -0.00184    0.00863   -0.00524
C9    1    0.855031    0.732742    0.413053    11.00000    0.02031    0.02138 =
         0.02626   -0.00332    0.00498   -0.00149
H9    2    0.927809    0.773602    0.502251    11.00000    0.02246
C10   1    0.695134    0.648235    0.458658    11.00000    0.02325    0.02030 =
         0.02347    0.00007    0.00432   -0.00008
C11   1    0.840865    0.476120    0.333406    11.00000    0.02466    0.02216 =
         0.02364    0.00045    0.00531    0.00176
C12   1    0.884968    0.343134    0.266638    11.00000    0.03581    0.02185 =
         0.02976   -0.00129    0.00743    0.00117
H12   2    0.811668    0.251271    0.267380    11.00000    0.03256
C13   1    1.038493    0.345628    0.200333    11.00000    0.03839    0.02812 =
         0.03272   -0.00424    0.01005    0.00703
H13   2    1.072847    0.257071    0.152609    11.00000    0.03906
C14   1    1.143224    0.476388    0.202815    11.00000    0.02957    0.03639 =
         0.03672   -0.00324    0.01269    0.00525
H14   2    1.251246    0.475706    0.159206    11.00000    0.03902
C15   1    1.096688    0.609636    0.270921    11.00000    0.02371    0.02869 =
         0.03467   -0.00191    0.00666   -0.00053
H15   2    1.169228    0.700667    0.273238    11.00000    0.03114
C16   1    0.943183    0.609411    0.335103    11.00000    0.02264    0.02129 =
         0.02501   -0.00136    0.00303    0.00097
HKLF 4
REM  SKM225_0m_a.res in P-1
REM R1 =  0.0394 for    2137 Fo > 4sig(Fo)  and  0.0469 for all    2487 data
REM    235 parameters refined using      0 restraints
END
WGHT      0.0429      0.3270
REM Highest difference peak  0.190,  deepest hole -0.281,  1-sigma level  0.053
Q1    1   0.0218  1.0361 -0.0007  11.00000  0.05    0.19
Q2    1   0.0976  0.9576  0.0117  11.00000  0.05    0.19
Q3    1   0.9098  0.6789  0.3739  11.00000  0.05    0.17
Q4    1   0.8258  0.8000  0.3749  11.00000  0.05    0.15
Q5    1   0.5965  0.8983  0.2058  11.00000  0.05    0.15
;
_shelx_res_checksum              70044
loop_
_space_group_symop_operation_xyz
'x, y, z'
'-x, -y, -z'
loop_
_atom_site_type_symbol
_atom_site_label
_atom_site_fract_x
_atom_site_fract_y
_atom_site_fract_z
_atom_site_U_iso_or_equiv
_atom_site_adp_type
_atom_site_calc_flag
_atom_site_occupancy
O O1 0.78629(14) 1.05555(13) 0.52109(12) 0.0311(3) Uani d 1
O O2 0.94772(15) 0.94251(13) 0.26711(13) 0.0311(3) Uani d 1
H H2A 1.0265 0.9586 0.3319 0.047 Uiso calc 1
O O3 0.58356(14) 0.70275(12) 0.52877(12) 0.0272(3) Uani d 1
N N1 0.56106(17) 1.03152(15) 0.34911(14) 0.0252(3) Uani d 1
H H1 0.491(3) 1.105(3) 0.388(2) 0.052(6) Uiso d 1
N N2 0.69437(18) 0.50298(15) 0.40763(14) 0.0248(3) Uani d 1
H H2B 0.613(3) 0.433(3) 0.423(2) 0.051(6) Uiso d 1
C C1 0.5182(2) 0.93711(17) 0.23090(16) 0.0243(3) Uani d 1
C C2 0.3649(2) 0.9328(2) 0.14575(18) 0.0306(4) Uani d 1
H H2 0.266(3) 1.000(2) 0.162(2) 0.033(5) Uiso d 1
C C3 0.3529(2) 0.8279(2) 0.03503(19) 0.0341(4) Uani d 1
H H3 0.246(3) 0.824(2) -0.025(2) 0.042(6) Uiso d 1
C C4 0.4899(2) 0.7319(2) 0.01088(18) 0.0334(4) Uani d 1
H H4 0.474(3) 0.656(2) -0.070(2) 0.037(5) Uiso d 1
C C5 0.6447(2) 0.73867(19) 0.09783(17) 0.0281(4) Uani d 1
H H5 0.743(3) 0.672(2) 0.084(2) 0.033(5) Uiso d 1
C C6 0.6578(2) 0.84201(17) 0.20856(16) 0.0230(3) Uani d 1
C C7 0.80112(19) 0.87379(17) 0.32288(16) 0.0224(3) Uani d 1
C C8 0.71796(19) 0.99649(17) 0.41294(17) 0.0239(3) Uani d 1
C C9 0.85503(19) 0.73274(17) 0.41305(16) 0.0225(3) Uani d 1
H H9 0.928(2) 0.7736(19) 0.5023(18) 0.022(4) Uiso d 1
C C10 0.69513(19) 0.64824(17) 0.45866(16) 0.0222(3) Uani d 1
C C11 0.8409(2) 0.47612(17) 0.33341(16) 0.0233(3) Uani d 1
C C12 0.8850(2) 0.34313(19) 0.26664(18) 0.0289(4) Uani d 1
H H12 0.812(3) 0.251(2) 0.267(2) 0.033(5) Uiso d 1
C C13 1.0385(2) 0.3456(2) 0.20033(19) 0.0326(4) Uani d 1
H H13 1.073(3) 0.257(2) 0.153(2) 0.039(5) Uiso d 1
C C14 1.1432(2) 0.4764(2) 0.20282(19) 0.0336(4) Uani d 1
H H14 1.251(3) 0.476(2) 0.159(2) 0.039(5) Uiso d 1
C C15 1.0967(2) 0.6096(2) 0.27092(18) 0.0288(4) Uani d 1
H H15 1.169(2) 0.701(2) 0.273(2) 0.031(5) Uiso d 1
C C16 0.94318(19) 0.60941(17) 0.33510(16) 0.0229(3) Uani d 1
loop_
_atom_site_aniso_label
_atom_site_aniso_U_11
_atom_site_aniso_U_22
_atom_site_aniso_U_33
_atom_site_aniso_U_12
_atom_site_aniso_U_13
_atom_site_aniso_U_23
O1 0.0273(6) 0.0304(6) 0.0357(7) -0.0045(5) 0.0043(5) -0.0121(5)
O2 0.0265(6) 0.0299(6) 0.0382(7) -0.0054(5) 0.0111(5) -0.0011(5)
O3 0.0281(6) 0.0223(5) 0.0331(6) 0.0003(4) 0.0133(5) -0.0023(4)
N1 0.0236(6) 0.0220(6) 0.0306(7) 0.0002(5) 0.0065(5) -0.0039(5)
N2 0.0262(7) 0.0193(6) 0.0302(7) -0.0027(5) 0.0102(5) -0.0015(5)
C1 0.0257(8) 0.0217(7) 0.0265(8) -0.0028(6) 0.0076(6) -0.0003(6)
C2 0.0259(8) 0.0344(9) 0.0321(9) 0.0018(7) 0.0057(7) 0.0022(7)
C3 0.0291(8) 0.0430(10) 0.0297(9) -0.0039(7) -0.0001(7) 0.0009(7)
C4 0.0391(9) 0.0346(9) 0.0263(9) -0.0015(7) 0.0021(7) -0.0041(7)
C5 0.0326(8) 0.0258(8) 0.0265(8) 0.0017(7) 0.0058(6) -0.0016(6)
C6 0.0235(7) 0.0203(7) 0.0258(8) -0.0031(6) 0.0058(6) 0.0016(6)
C7 0.0202(7) 0.0195(7) 0.0283(8) -0.0042(6) 0.0075(6) -0.0019(6)
C8 0.0229(7) 0.0187(7) 0.0310(8) -0.0052(6) 0.0086(6) -0.0018(6)
C9 0.0203(7) 0.0214(7) 0.0263(8) -0.0015(6) 0.0050(6) -0.0033(6)
C10 0.0233(7) 0.0203(7) 0.0235(7) -0.0001(6) 0.0043(6) 0.0001(6)
C11 0.0247(7) 0.0222(7) 0.0236(8) 0.0018(6) 0.0053(6) 0.0004(6)
C12 0.0358(9) 0.0218(8) 0.0298(8) 0.0012(7) 0.0074(7) -0.0013(6)
C13 0.0384(9) 0.0281(9) 0.0327(9) 0.0070(7) 0.0100(7) -0.0042(7)
C14 0.0296(9) 0.0364(9) 0.0367(9) 0.0052(7) 0.0127(7) -0.0032(7)
C15 0.0237(8) 0.0287(8) 0.0347(9) -0.0005(7) 0.0067(6) -0.0019(7)
C16 0.0226(7) 0.0213(7) 0.0250(7) 0.0010(6) 0.0030(6) -0.0014(6)
loop_
_atom_type_symbol
_atom_type_description
_atom_type_scat_dispersion_real
_atom_type_scat_dispersion_imag
_atom_type_scat_source
C C 0.0181 0.0091 'International Tables Vol C Tables 4.2.6.8 and 6.1.1.4'
H H 0.0000 0.0000 'International Tables Vol C Tables 4.2.6.8 and 6.1.1.4'
N N 0.0311 0.0180 'International Tables Vol C Tables 4.2.6.8 and 6.1.1.4'
O O 0.0492 0.0322 'International Tables Vol C Tables 4.2.6.8 and 6.1.1.4'
loop_
_geom_angle_atom_site_label_1
_geom_angle_atom_site_label_2
_geom_angle_atom_site_label_3
_geom_angle
C7 O2 H2A 109.5
C8 N1 C1 111.47(13)
C8 N1 H1 120.7(14)
C1 N1 H1 127.6(14)
C10 N2 C11 111.35(13)
C10 N2 H2B 123.3(14)
C11 N2 H2B 125.3(14)
C2 C1 C6 122.38(15)
C2 C1 N1 127.82(14)
C6 C1 N1 109.80(14)
C1 C2 C3 117.15(16)
C1 C2 H2 122.0(11)
C3 C2 H2 120.9(11)
C4 C3 C2 121.50(16)
C4 C3 H3 120.7(12)
C2 C3 H3 117.8(12)
C3 C4 C5 120.50(16)
C3 C4 H4 118.5(11)
C5 C4 H4 121.0(11)
C6 C5 C4 118.51(15)
C6 C5 H5 119.3(11)
C4 C5 H5 122.2(11)
C5 C6 C1 119.95(15)
C5 C6 C7 131.78(14)
C1 C6 C7 108.24(13)
O2 C7 C6 110.72(12)
O2 C7 C9 111.02(12)
C6 C7 C9 114.49(12)
O2 C7 C8 107.89(12)
C6 C7 C8 102.04(12)
C9 C7 C8 110.15(12)
O1 C8 N1 126.03(14)
O1 C8 C7 125.72(14)
N1 C8 C7 108.20(13)
C16 C9 C10 102.45(12)
C16 C9 C7 113.88(13)
C10 C9 C7 110.84(12)
C16 C9 H9 114.1(9)
C10 C9 H9 108.2(10)
C7 C9 H9 107.2(9)
O3 C10 N2 125.26(14)
O3 C10 C9 126.29(14)
N2 C10 C9 108.44(13)
C12 C11 C16 122.28(15)
C12 C11 N2 128.31(15)
C16 C11 N2 109.41(13)
C11 C12 C13 117.30(16)
C11 C12 H12 120.7(11)
C13 C12 H12 121.9(11)
C14 C13 C12 121.20(15)
C14 C13 H13 118.8(13)
C12 C13 H13 119.9(13)
C13 C14 C15 120.69(16)
C13 C14 H14 120.5(12)
C15 C14 H14 118.8(12)
C16 C15 C14 118.65(16)
C16 C15 H15 120.3(11)
C14 C15 H15 121.0(11)
C15 C16 C11 119.85(14)
C15 C16 C9 131.84(14)
C11 C16 C9 108.31(13)
loop_
_geom_bond_atom_site_label_1
_geom_bond_atom_site_label_2
_geom_bond_distance
O1 C8 1.2275(19)
O2 C7 1.4217(18)
O2 H2A 0.8400
O3 C10 1.2348(18)
N1 C8 1.347(2)
N1 C1 1.408(2)
N1 H1 0.94(2)
N2 C10 1.3510(19)
N2 C11 1.4091(19)
N2 H2B 0.90(3)
C1 C2 1.378(2)
C1 C6 1.396(2)
C2 C3 1.391(3)
C2 H2 0.99(2)
C3 C4 1.388(3)
C3 H3 0.97(2)
C4 C5 1.396(2)
C4 H4 1.02(2)
C5 C6 1.382(2)
C5 H5 0.97(2)
C6 C7 1.509(2)
C7 C9 1.546(2)
C7 C8 1.548(2)
C9 C16 1.505(2)
C9 C10 1.528(2)
C9 H9 1.039(17)
C11 C12 1.378(2)
C11 C16 1.395(2)
C12 C13 1.394(2)
C12 H12 0.97(2)
C13 C14 1.387(3)
C13 H13 0.95(2)
C14 C15 1.392(2)
C14 H14 0.97(2)
C15 C16 1.383(2)
C15 H15 0.96(2)
loop_
_geom_hbond_atom_site_label_D
_geom_hbond_atom_site_label_H
_geom_hbond_atom_site_label_A
_geom_hbond_site_symmetry_A
_geom_hbond_distance_DH
_geom_hbond_distance_HA
_geom_hbond_distance_DA
_geom_hbond_angle_DHA
O2 H2A O1 2_776 0.84 1.93 2.7575(17) 167
N1 H1 O3 2_676 0.94(2) 1.96(2) 2.8644(17) 161(2)
N2 H2B O3 2_666 0.90(3) 2.00(3) 2.8882(18) 173(2)
C10 O3 Cg1 1_555 1.2348(18) 2.9243(16) 3.0414(13) 72.78(9)
loop_
_geom_torsion_atom_site_label_1
_geom_torsion_atom_site_label_2
_geom_torsion_atom_site_label_3
_geom_torsion_atom_site_label_4
_geom_torsion
C8 N1 C1 C2 175.44(16)
C8 N1 C1 C6 -4.44(19)
C6 C1 C2 C3 0.4(2)
N1 C1 C2 C3 -179.48(16)
C1 C2 C3 C4 -0.3(3)
C2 C3 C4 C5 -0.2(3)
C3 C4 C5 C6 0.4(3)
C4 C5 C6 C1 -0.3(2)
C4 C5 C6 C7 177.50(16)
C2 C1 C6 C5 -0.1(2)
N1 C1 C6 C5 179.79(14)
C2 C1 C6 C7 -178.38(15)
N1 C1 C6 C7 1.50(17)
C5 C6 C7 O2 68.9(2)
C1 C6 C7 O2 -113.13(14)
C5 C6 C7 C9 -57.6(2)
C1 C6 C7 C9 120.45(14)
C5 C6 C7 C8 -176.54(17)
C1 C6 C7 C8 1.48(15)
C1 N1 C8 O1 -177.15(15)
C1 N1 C8 C7 5.31(17)
O2 C7 C8 O1 -65.0(2)
C6 C7 C8 O1 178.37(15)
C9 C7 C8 O1 56.38(19)
O2 C7 C8 N1 112.59(14)
C6 C7 C8 N1 -4.09(15)
C9 C7 C8 N1 -126.08(13)
O2 C7 C9 C16 -58.50(16)
C6 C7 C9 C16 67.76(16)
C8 C7 C9 C16 -177.95(12)
O2 C7 C9 C10 -173.39(12)
C6 C7 C9 C10 -47.12(17)
C8 C7 C9 C10 67.17(15)
C11 N2 C10 O3 -179.33(14)
C11 N2 C10 C9 1.48(17)
C16 C9 C10 O3 178.65(15)
C7 C9 C10 O3 -59.5(2)
C16 C9 C10 N2 -2.16(16)
C7 C9 C10 N2 119.69(14)
C10 N2 C11 C12 -179.90(16)
C10 N2 C11 C16 -0.08(18)
C16 C11 C12 C13 0.4(2)
N2 C11 C12 C13 -179.79(16)
C11 C12 C13 C14 0.6(3)
C12 C13 C14 C15 -0.6(3)
C13 C14 C15 C16 -0.5(3)
C14 C15 C16 C11 1.5(2)
C14 C15 C16 C9 -178.43(16)
C12 C11 C16 C15 -1.5(2)
N2 C11 C16 C15 178.67(14)
C12 C11 C16 C9 178.46(15)
N2 C11 C16 C9 -1.37(17)
C10 C9 C16 C15 -177.95(17)
C7 C9 C16 C15 62.3(2)
C10 C9 C16 C11 2.10(16)
C7 C9 C16 C11 -117.65(14)

_cod_database_fobs_code 1545486
