#------------------------------------------------------------------------------
#$Date: 2017-03-11 09:13:42 +0200 (Sat, 11 Mar 2017) $
#$Revision: 194186 $
#$URL: file:///home/coder/svn-repositories/cod/cif/1/54/55/1545554.cif $
#------------------------------------------------------------------------------
#
# This file is available in the Crystallography Open Database (COD),
# http://www.crystallography.net/. The original data for this entry
# were provided by IUCr Journals, http://journals.iucr.org/.
#
# The file may be used within the scientific community so long as
# proper attribution is given to the journal article from which the
# data were obtained.
#
data_1545554
loop_
_publ_author_name
'Begum, Farzana'
'Twamley, Brendan'
'Baker, Robert J.'
_publ_section_title
;
 (<i>E</i>)-1,1'-(Diazene-1,2-diyl)bis(cyclohexane-1-carbonitrile)
;
_journal_issue                   3
_journal_name_full               IUCrData
_journal_page_first              x170369
_journal_paper_doi               10.1107/S2414314617003698
_journal_volume                  2
_journal_year                    2017
_chemical_formula_iupac          'C14 H20 N4'
_chemical_formula_moiety         'C14 H20 N4'
_chemical_formula_sum            'C14 H20 N4'
_chemical_formula_weight         244.34
_chemical_name_common            VAZO-88
_chemical_name_systematic
;
(<i>E</i>)-1,1'-(Diazene-1,2-diyl)bis(cyclohexane-1-carbonitrile)
;
_space_group_crystal_system      monoclinic
_space_group_IT_number           14
_space_group_name_Hall           '-P 2yn'
_space_group_name_H-M_alt        'P 1 21/n 1'
_symmetry_space_group_name_Hall  '-P 2yn'
_symmetry_space_group_name_H-M   'P 1 21/n 1'
_atom_sites_solution_hydrogens   geom
_atom_sites_solution_primary     dual
_cell_angle_alpha                90
_cell_angle_beta                 110.372(13)
_cell_angle_gamma                90
_cell_formula_units_Z            2
_cell_length_a                   5.8740(19)
_cell_length_b                   21.077(7)
_cell_length_c                   5.974(2)
_cell_measurement_reflns_used    4485
_cell_measurement_temperature    100
_cell_measurement_theta_max      69.48
_cell_measurement_theta_min      4.20
_cell_volume                     693.4(4)
_computing_cell_refinement
;
SAINT (Bruker, 2015)
;
_computing_data_collection
;
APEX3 (Bruker, 2015)
;
_computing_data_reduction
;
SAINT (Bruker, 2015)
;
_computing_molecular_graphics
;
Mercury (Macrae <i>et al.</i>,  2008)
;
_computing_publication_material
;
<i>OLEX2</i> (Dolomanov <i>et al.</i>,  2009)
;
_computing_structure_refinement
;
SHELXL2014 (Sheldrick, 2015)
;
_computing_structure_solution
;
SHELXS2014 (Sheldrick, 2008)
;
_diffrn_ambient_temperature      100
_diffrn_detector_area_resol_mean 7.9
_diffrn_measured_fraction_theta_full 0.998
_diffrn_measured_fraction_theta_max 0.991
_diffrn_measurement_device       'three-circle diffractometer'
_diffrn_measurement_device_type  'Bruker APEXII CCD'
_diffrn_measurement_method       '\w and \f scans'
_diffrn_radiation_monochromator  'mirror optics'
_diffrn_radiation_type           CuK\a
_diffrn_radiation_wavelength     1.54184
_diffrn_reflns_av_R_equivalents  0.0331
_diffrn_reflns_limit_h_max       7
_diffrn_reflns_limit_h_min       -7
_diffrn_reflns_limit_k_max       25
_diffrn_reflns_limit_k_min       -25
_diffrn_reflns_limit_l_max       7
_diffrn_reflns_limit_l_min       -7
_diffrn_reflns_number            7548
_diffrn_reflns_theta_full        67.684
_diffrn_reflns_theta_max         69.678
_diffrn_reflns_theta_min         8.188
_diffrn_standards_number         0
_exptl_absorpt_coefficient_mu    0.566
_exptl_absorpt_correction_T_max  0.7532
_exptl_absorpt_correction_T_min  0.6658
_exptl_absorpt_correction_type   multi-scan
_exptl_absorpt_process_details
;
(SADABS; Bruker, 2015)
;
_exptl_crystal_colour            colourless
_exptl_crystal_density_diffrn    1.170
_exptl_crystal_description       block
_exptl_crystal_F_000             264
_exptl_crystal_size_max          0.16
_exptl_crystal_size_mid          0.13
_exptl_crystal_size_min          0.12
_refine_diff_density_max         0.465
_refine_diff_density_min         -0.160
_refine_ls_extinction_method     none
_refine_ls_goodness_of_fit_ref   1.061
_refine_ls_hydrogen_treatment    constr
_refine_ls_matrix_type           full
_refine_ls_number_parameters     82
_refine_ls_number_reflns         1299
_refine_ls_number_restraints     0
_refine_ls_restrained_S_all      1.061
_refine_ls_R_factor_all          0.0610
_refine_ls_R_factor_gt           0.0585
_refine_ls_shift/su_max          0.000
_refine_ls_shift/su_mean         0.000
_refine_ls_structure_factor_coef Fsqd
_refine_ls_weighting_details
'w=1/[\s^2^(Fo^2^)+(0.0875P)^2^+0.4078P] where P=(Fo^2^+2Fc^2^)/3'
_refine_ls_weighting_scheme      calc
_refine_ls_wR_factor_gt          0.1571
_refine_ls_wR_factor_ref         0.1595
_reflns_number_gt                1213
_reflns_number_total             1299
_reflns_threshold_expression     'I > 2\s(I)'
_cod_data_source_file            su4139sup1.cif
_cod_data_source_block           I
_cod_database_code               1545554
_shelx_space_group_comment
;
The symmetry employed for this shelxl refinement is uniquely defined
by the following loop, which should always be used as a source of
symmetry information in preference to the above space-group names.
They are only intended as comments.
;
_shelx_hkl_file
;
  -1   0   0    0.05    0.03
  -1   0   0    0.03    0.03
   1   0   0    0.02    0.03
  -1   0   0    0.05    0.02
   2   0   0  173.54    8.42
  -2   0   0  176.01    8.42
   3   0   0    0.08    0.10
  -3   0   0    0.07    0.08
  -4   0   0    0.22    0.13
   4   0   0    0.06    0.12
  -4   0   0    0.23    0.08
   5   0   0   -0.08    0.07
  -5   0   0    0.00    0.07
  -5   0   0    0.06    0.08
   5   0   0    0.08    0.12
   5   0   0   -0.02    0.08
   5   0   0    0.02    0.14
  -6   0   0    4.15    0.24
  -6   0   0    3.90    0.29
   6   0   0    4.20    0.31
   0   1   0    0.03    0.02
  -1  -1   0  799.05   38.46
   1  -1   0  790.71   38.53
   1  -1   0  805.22   38.44
  -1  -1   0  790.78   38.54
  -1   1   0  820.82   38.55
  -1   1   0  798.49   38.44
   1   1   0  828.09   38.46
   2  -1   0   62.27    2.97
  -2  -1   0   60.24    2.96
  -2   1   0   61.82    2.96
   2   1   0   56.25    2.97
   2   1   0   60.90    2.96
   3  -1   0    1.02    0.19
  -3  -1   0    0.94    0.17
  -3   1   0    1.04    0.18
   3   1   0    0.93    0.19
   4  -1   0    6.06    0.49
  -4  -1   0    7.12    0.51
  -4  -1   0    6.39    0.38
   4   1   0    6.13    0.49
  -4   1   0    6.56    0.37
  -4   1   0    6.04    0.48
  -5  -1   0    4.92    0.29
   5  -1   0    4.49    0.31
   5  -1   0    4.76    0.31
  -5  -1   0    4.82    0.32
   5  -1   0    4.36    0.37
   5  -1   0    5.00    0.38
  -5   1   0    5.13    0.32
   5   1   0    4.86    0.31
   5   1   0    4.45    0.31
   5   1   0    4.45    0.38
  -5   1   0    5.05    0.28
   5   1   0    4.74    0.37
   6  -1   0    2.96    0.23
  -6  -1   0    3.17    0.19
  -6  -1   0    3.18    0.23
   6  -1   0    3.03    0.21
  -6   1   0    3.10    0.19
  -6   1   0    3.06    0.24
   6   1   0    3.26    0.25
   1  -2   0   94.68    4.54
  -1  -2   0   91.48    4.55
   1  -2   0   95.28    4.58
  -1  -2   0   93.66    4.57
   1   2   0   97.17    4.58
   1   2   0   95.65    4.55
  -1   2   0   94.12    4.54
  -1   2   0   97.52    4.58
   2  -2   0   22.72    1.15
  -2  -2   0   23.38    1.15
   2   2   0   21.12    1.16
  -2   2   0   21.40    1.18
   2   2   0   21.83    1.14
   2   2   0   22.34    1.10
   3  -2   0    3.71    0.32
  -3  -2   0    4.07    0.32
  -3   2   0    3.92    0.31
   3   2   0    3.95    0.31
   3   2   0    3.50    0.33
  -4  -2   0   14.76    0.77
  -4  -2   0   15.56    0.80
  -4  -2   0   16.26    0.94
   4  -2   0   15.29    0.94
  -4   2   0   15.34    0.79
  -4   2   0   15.71    0.94
   4   2   0   14.28    0.92
   5  -2   0   18.03    1.10
  -5  -2   0   21.27    1.03
   5  -2   0   20.53    1.06
  -5  -2   0   21.94    1.08
   5  -2   0   20.33    1.06
   5  -2   0   20.49    1.11
   5   2   0   19.37    1.05
   5   2   0   20.28    1.10
  -5   2   0   20.92    1.03
  -5   2   0   22.11    1.07
  -6  -2   0    0.85    0.15
   6  -2   0    0.70    0.09
  -6  -2   0    0.64    0.08
   6  -2   0    0.77    0.10
   6   2   0    0.93    0.13
   6   2   0    0.64    0.12
  -6   2   0    0.71    0.08
   0   3   0    0.20    0.07
  -1  -3   0   80.22    4.04
   1  -3   0   84.43    4.09
  -1  -3   0   82.30    4.09
   1  -3   0   84.68    4.04
  -1   3   0   86.51    4.09
   1   3   0   85.07    4.04
   1   3   0   84.68    4.09
  -1   3   0   85.95    4.03
  -2  -3   0    9.68    0.54
   2  -3   0    9.59    0.55
   2  -3   0    9.58    0.56
  -2   3   0    9.29    0.60
   2   3   0    9.04    0.53
   2   3   0    9.40    0.57
   2   3   0    9.02    0.49
   3  -3   0   97.11    4.82
  -3  -3   0   99.48    4.81
   3   3   0   97.14    4.86
  -3   3   0   99.98    4.82
   3   3   0   95.30    4.80
  -4  -3   0   23.38    1.28
  -4  -3   0   20.77    1.11
   4  -3   0   22.46    1.29
  -4  -3   0   22.71    1.15
  -4   3   0   23.82    1.29
  -4   3   0   22.80    1.13
   4   3   0   21.56    1.26
   5  -3   0    3.04    0.24
  -5  -3   0    3.04    0.25
   5  -3   0    2.96    0.29
  -5  -3   0    3.14    0.22
   5  -3   0    2.81    0.24
  -5  -3   0    3.25    0.31
   5   3   0    3.31    0.33
   5   3   0    3.05    0.29
  -5   3   0    3.19    0.23
  -5   3   0    3.19    0.20
   6  -3   0    1.98    0.17
  -6  -3   0    2.20    0.19
   6  -3   0    1.97    0.16
  -6  -3   0    2.00    0.14
   6   3   0    1.64    0.18
  -6   3   0    1.93    0.14
   6   3   0    2.09    0.23
   1  -4   0  181.46    8.71
   1  -4   0  182.27    8.78
  -1  -4   0  179.48    8.72
  -1  -4   0  179.05    8.78
  -1   4   0  183.53    8.78
   1   4   0  186.82    8.72
   1   4   0  182.41    8.78
   2  -4   0   71.08    3.33
   2  -4   0   70.51    3.35
  -2  -4   0   69.39    3.32
   2   4   0   64.70    3.27
   2   4   0   64.34    3.35
  -2   4   0   69.74    3.39
   2   4   0   63.45    3.30
   2   4   0   67.76    3.36
  -3  -4   0   67.61    3.30
   3  -4   0   68.57    3.32
  -3   4   0   62.44    3.37
   3   4   0   64.37    3.28
  -3   4   0   67.17    3.30
   3   4   0   66.00    3.36
   4  -4   0   12.69    0.84
  -4  -4   0   12.63    0.66
  -4  -4   0   12.66    0.84
  -4  -4   0   13.20    0.70
  -4  -4   0   11.84    0.80
  -4   4   0   12.97    0.67
  -4   4   0   13.95    0.84
   5  -4   0   44.06    2.23
  -5  -4   0   47.67    2.21
  -5  -4   0   42.19    2.25
   5  -4   0   45.05    2.23
  -5   4   0   46.84    2.20
  -5   4   0   45.57    2.24
   5   4   0   46.32    2.28
   5   4   0   44.27    2.27
   6  -4   0    0.75    0.09
  -6  -4   0    0.55    0.07
  -6  -4   0    0.80    0.13
   6  -4   0    0.61    0.09
   6   4   0    0.77    0.12
  -6   4   0    0.67    0.08
   6   4   0    0.80    0.13
   0  -5   0   -0.01    0.01
   0  -5   0    0.04    0.04
   0  -5   0   -0.01    0.02
   0   5   0    0.06    0.08
  -1  -5   0  262.49   12.69
   1  -5   0  266.26   12.68
   1  -5   0  263.85   12.77
  -1  -5   0  262.85   12.76
   1   5   0  261.16   12.76
  -1   5   0  273.62   12.77
   1   5   0  266.65   12.69
  -2  -5   0    0.97    0.16
   2  -5   0    1.48    0.20
   2  -5   0    1.13    0.17
  -2  -5   0    1.18    0.17
   2   5   0    1.44    0.23
   2   5   0    1.10    0.19
  -2   5   0    1.92    0.24
   2   5   0    1.20    0.16
   3  -5   0   28.58    1.48
  -3  -5   0   28.62    1.49
  -3  -5   0   27.83    1.47
  -3  -5   0   24.59    1.36
  -3   5   0   27.55    1.56
   3   5   0   28.67    1.54
  -4  -5   0    1.83    0.18
  -4  -5   0    2.00    0.30
  -4  -5   0    1.95    0.15
   4  -5   0    1.71    0.29
  -4  -5   0    1.88    0.29
  -4   5   0    2.04    0.17
   4   5   0    2.21    0.38
  -4   5   0    2.37    0.34
   5  -5   0    1.05    0.13
  -5  -5   0    1.14    0.12
  -5  -5   0    0.90    0.15
   5  -5   0    1.21    0.13
  -5  -5   0    1.07    0.18
   5   5   0    1.39    0.20
  -5   5   0    1.30    0.11
  -5   5   0    1.16    0.14
   5   5   0    1.51    0.20
   5   5   0    1.16    0.20
  -6  -5   0    0.10    0.06
  -6  -5   0    0.24    0.12
   6  -5   0    0.24    0.07
  -6  -5   0    0.12    0.09
   6   5   0    0.41    0.11
   6   5   0    0.11    0.12
  -6   5   0    0.19    0.05
   1  -6   0   20.14    0.97
  -1  -6   0   19.16    1.01
   1  -6   0   19.86    1.08
  -1  -6   0   19.61    1.08
   1  -6   0   19.77    1.03
  -1   6   0   20.08    1.08
   1   6   0   18.77    1.06
   1   6   0   19.88    1.07
   1   6   0   20.35    0.98
   1   6   0   19.02    1.04
   2  -6   0    3.63    0.30
   2  -6   0    3.52    0.29
  -2  -6   0    4.91    0.31
  -2  -6   0    3.59    0.29
   2   6   0    3.65    0.32
  -2   6   0    3.47    0.34
   2   6   0    3.74    0.33
  -3  -6   0   55.10    2.91
  -3  -6   0   61.10    3.03
   3  -6   0   61.91    3.03
  -3  -6   0   64.20    3.03
  -3   6   0   54.39    2.89
   3   6   0   62.58    3.10
  -3   6   0   61.38    3.14
  -4  -6   0   14.74    0.78
  -4  -6   0   14.13    0.89
  -4  -6   0   14.80    0.74
  -4  -6   0   13.86    0.91
   4  -6   0   14.92    0.94
  -4   6   0   14.71    0.92
  -4   6   0   14.68    0.75
   4   6   0   13.48    0.98
  -5  -6   0   25.73    1.33
   5  -6   0   26.39    1.30
  -5  -6   0   25.72    1.28
   5  -6   0   26.25    1.30
  -5   6   0   25.90    1.27
  -5   6   0   26.59    1.31
   5   6   0   23.88    1.34
   5   6   0   25.67    1.35
   6  -6   0    7.70    0.41
  -6  -6   0    6.94    0.42
  -6  -6   0    7.42    0.43
   6   6   0    8.11    0.46
   6   6   0    7.70    0.41
   6   6   0    7.46    0.44
  -6   6   0    7.33    0.39
   0  -7   0    0.12    0.09
   0  -7   0    0.17    0.06
   0   7   0    0.04    0.10
   1  -7   0   23.51    1.15
   1  -7   0   18.97    1.14
  -1  -7   0   23.15    1.13
  -1  -7   0   20.28    1.11
   1  -7   0   21.73    1.14
   1   7   0   22.65    1.16
   1   7   0   22.30    1.18
   2  -7   0    0.76    0.17
  -2  -7   0    0.72    0.15
   2  -7   0    0.69    0.15
  -2  -7   0    0.71    0.14
   2   7   0    0.65    0.16
   2   7   0    0.83    0.20
  -2   7   0    0.88    0.21
   2   7   0    0.62    0.07
  -3  -7   0   21.97    1.23
  -3  -7   0   25.33    1.35
  -3  -7   0   27.33    1.36
   3  -7   0   24.97    1.35
  -3   7   0   24.85    1.46
  -3   7   0   22.70    1.21
   3   7   0   26.90    1.43
  -4  -7   0   30.24    1.69
  -4  -7   0   31.12    1.52
   4  -7   0   30.99    1.72
  -4  -7   0   29.43    1.56
   4   7   0   30.77    1.80
  -4   7   0   29.95    1.70
  -4   7   0   32.59    1.53
   5  -7   0   11.14    0.66
  -5  -7   0   10.88    0.65
  -5  -7   0   10.41    0.59
   5  -7   0   12.06    0.62
   5  -7   0   11.83    0.62
   5   7   0   11.11    0.62
  -5   7   0   11.83    0.58
   5   7   0   10.59    0.66
   5   7   0   11.19    0.67
  -5   7   0   11.54    0.61
  -6  -7   0    0.58    0.10
  -6  -7   0    0.23    0.09
   6  -7   0    0.34    0.07
  -6   7   0    0.28    0.06
   6   7   0    0.29    0.07
   6   7   0    0.59    0.10
   0  -8   0   21.46    1.10
   0  -8   0   20.30    1.05
   0   8   0   21.39    1.15
  -1  -8   0    5.20    0.36
   1  -8   0    5.39    0.36
   1  -8   0    4.89    0.33
   1  -8   0    5.09    0.35
  -1  -8   0    4.68    0.33
   1   8   0    6.09    0.43
   1   8   0    5.18    0.38
  -2  -8   0    2.09    0.23
  -2  -8   0    2.16    0.17
   2  -8   0    2.14    0.22
   2  -8   0    2.51    0.27
  -2  -8   0    2.31    0.22
   2   8   0    2.56    0.28
  -2   8   0    2.53    0.30
   2   8   0    2.08    0.14
   2   8   0    2.25    0.27
  -3  -8   0   18.09    0.99
   3  -8   0   16.08    0.98
  -3  -8   0   16.38    0.97
  -3   8   0   17.78    1.12
  -3   8   0   15.49    0.84
   3   8   0   17.79    1.06
  -4  -8   0   -0.11    0.16
   4  -8   0    0.15    0.17
  -4  -8   0    0.04    0.06
  -4   8   0   -0.04    0.14
  -4   8   0    0.06    0.05
  -4   8   0    0.09    0.08
   4   8   0    0.11    0.19
   5  -8   0   38.88    1.89
   5  -8   0   36.99    1.93
  -5  -8   0   39.86    1.93
  -5   8   0   38.65    1.86
  -5   8   0   37.24    1.89
   5   8   0   40.46    1.94
   5   8   0   38.26    1.89
   5   8   0   35.57    1.98
  -6  -8   0    6.46    0.36
  -6  -8   0    6.20    0.35
   6  -8   0    6.01    0.33
   6   8   0    5.32    0.35
   6   8   0    6.15    0.33
   0  -9   0    0.18    0.10
   0  -9   0    0.10    0.11
   0   9   0    0.05    0.12
  -1  -9   0    1.74    0.14
  -1  -9   0    1.80    0.20
   1  -9   0    2.29    0.23
  -1  -9   0    1.89    0.20
   1  -9   0    2.01    0.23
   1   9   0    1.78    0.14
   1   9   0    1.99    0.26
   1   9   0    2.09    0.24
   2  -9   0   -0.15    0.09
   2  -9   0   -0.01    0.08
  -2  -9   0    0.07    0.05
  -2  -9   0    0.15    0.12
   2   9   0    0.01    0.13
   2   9   0    0.08    0.12
   2   9   0    0.05    0.05
  -2   9   0    0.18    0.16
   3  -9   0    1.48    0.27
   3  -9   0    1.15    0.22
  -3  -9   0    1.42    0.24
  -3   9   0    1.39    0.13
  -3   9   0    1.43    0.33
   3   9   0    1.56    0.30
  -4  -9   0    2.67    0.37
   4  -9   0    2.78    0.41
  -4   9   0    2.01    0.15
  -4   9   0    1.78    0.30
  -4   9   0    2.34    0.18
   4   9   0    1.12    0.30
   5  -9   0    0.16    0.09
   5  -9   0    0.12    0.09
  -5  -9   0    0.07    0.13
   5   9   0    0.15    0.10
  -5   9   0    0.13    0.05
  -5   9   0    0.20    0.07
   5   9   0    0.31    0.08
  -6  -9   0    0.21    0.09
  -6  -9   0    0.05    0.06
   6  -9   0    0.18    0.06
   6   9   0    0.04    0.06
   6   9   0    0.12    0.06
   0 -10   0  525.83   24.98
   0  10   0  516.35   25.03
   1 -10   0  147.99    7.31
  -1 -10   0  160.38    7.31
   1 -10   0  158.81    7.33
  -1 -10   0  138.52    7.21
   1  10   0  152.02    7.34
   1  10   0  143.50    7.22
   1  10   0  152.88    7.38
  -2 -10   0   70.42    3.46
   2 -10   0   71.65    3.59
  -2 -10   0   75.88    3.57
  -2  10   0   65.34    3.44
   2  10   0   69.75    3.65
   2  10   0   74.85    3.64
   2  10   0   68.50    3.44
  -2  10   0   75.71    3.71
  -3 -10   0    8.11    0.56
  -3 -10   0    7.47    0.45
   3 -10   0    7.67    0.60
   3 -10   0    7.16    0.54
   3  10   0    7.64    0.62
  -3  10   0    7.65    0.42
  -3  10   0    7.64    0.68
   4 -10   0    1.30    0.31
  -4 -10   0    2.57    0.26
   4 -10   0    2.32    0.21
   4 -10   0    2.53    0.26
  -4  10   0    3.05    0.20
   4  10   0    2.65    0.22
   4  10   0    2.43    0.44
  -4  10   0    2.67    0.17
  -5 -10   0    2.69    0.26
   5 -10   0    2.44    0.19
  -5 -10   0    2.24    0.20
   5 -10   0    2.68    0.23
  -5  10   0    2.35    0.19
   5  10   0    2.67    0.22
  -5  10   0    2.62    0.17
   5  10   0    2.61    0.22
   6 -10   0   13.48    0.70
  -6 -10   0   14.34    0.72
  -6 -10   0   13.58    0.72
   6  10   0   14.50    0.70
   6  10   0   14.10    0.72
   0 -11   0    0.04    0.13
   0  11   0   -0.03    0.14
  -1 -11   0   33.23    1.71
  -1 -11   0   35.23    1.82
   1 -11   0   36.19    1.84
   1  11   0   34.63    1.85
   1  11   0   35.73    1.90
  -1  11   0   37.20    1.92
   1  11   0   33.71    1.72
   2 -11   0  160.40    8.12
  -2 -11   0  168.14    7.99
  -2 -11   0  175.97    8.12
   2  11   0  160.55    7.96
   2  11   0  163.84    8.21
   2  11   0  168.02    8.18
  -2  11   0  157.42    7.97
  -2  11   0  175.97    8.27
  -3 -11   0    4.87    0.43
  -3 -11   0    5.29    0.33
   3  11   0    5.31    0.51
  -3  11   0    4.93    0.55
  -3  11   0    5.17    0.31
  -3  11   0    4.55    0.27
   3  11   0    5.72    0.61
  -4 -11   0   15.01    0.85
   4 -11   0   16.19    0.83
  -4 -11   0   15.84    0.87
  -4 -11   0   15.24    0.85
   4 -11   0   15.65    0.87
  -4  11   0   16.67    0.80
   4  11   0   15.07    0.83
  -4  11   0   16.73    0.83
  -5 -11   0   14.86    0.73
   5 -11   0   14.34    0.70
  -5 -11   0   12.21    0.70
   5 -11   0   13.07    0.72
   5  11   0   13.36    0.69
  -5  11   0   12.90    0.66
  -5  11   0   11.78    0.68
  -6 -11   0    2.97    0.25
   0 -12   0   58.27    2.94
   0  12   0   58.24    3.00
   1 -12   0    3.77    0.34
  -1 -12   0    3.79    0.22
  -1 -12   0    3.89    0.34
   1  12   0    3.65    0.39
  -1  12   0    3.57    0.39
   1  12   0    3.07    0.33
  -1  12   0    3.22    0.23
   1  12   0    3.47    0.23
  -2 -12   0    1.11    0.13
  -2 -12   0    0.98    0.22
  -2  12   0    1.26    0.31
   2  12   0    0.79    0.23
  -2  12   0    1.18    0.12
   2  12   0    1.10    0.12
   2  12   0    1.39    0.29
  -3 -12   0    8.07    0.45
  -3 -12   0    6.54    0.55
   3 -12   0    7.42    0.66
  -3  12   0    8.04    0.72
  -3  12   0    7.85    0.43
   3  12   0    7.17    0.64
  -3  12   0    7.12    0.40
   3  12   0    7.64    0.69
  -4 -12   0    2.44    0.26
   4 -12   0    2.86    0.22
  -4 -12   0    2.35    0.22
  -4 -12   0    2.81    0.28
   4 -12   0    2.64    0.27
  -4  12   0    2.88    0.22
  -4  12   0    2.90    0.18
   4  12   0    2.31    0.20
   5 -12   0    0.34    0.07
  -5 -12   0    0.36    0.13
  -5 -12   0    0.29    0.10
   5 -12   0    0.30    0.09
  -5  12   0    0.34    0.06
   5  12   0    0.45    0.08
   0 -13   0   -0.05    0.11
   0  13   0    0.04    0.13
  -1 -13   0    7.33    0.38
   1 -13   0    7.17    0.54
  -1 -13   0    7.33    0.52
  -1  13   0    6.84    0.40
   1  13   0    7.21    0.41
   1  13   0    7.61    0.61
  -1  13   0    6.84    0.59
  -2 -13   0    7.25    0.41
  -2 -13   0    6.81    0.53
   2  13   0    7.21    0.62
   2  13   0    6.94    0.39
   2  13   0    7.21    0.59
  -2  13   0    7.31    0.41
  -2  13   0    7.65    0.66
  -3 -13   0    6.00    0.36
  -3 -13   0    4.91    0.47
   3  13   0    5.16    0.54
  -3  13   0    5.82    0.34
  -3  13   0    4.80    0.58
   3  13   0    5.17    0.57
  -3  13   0    5.61    0.31
  -4 -13   0    1.85    0.21
  -4 -13   0    1.41    0.19
   4 -13   0    1.11    0.18
   4 -13   0    1.25    0.14
   4  13   0    1.92    0.17
  -4  13   0    1.42    0.13
  -4  13   0    1.28    0.15
  -5 -13   0    0.22    0.08
  -5 -13   0    0.28    0.11
   5 -13   0    0.12    0.10
   5 -13   0    0.30    0.07
   5  13   0    0.28    0.07
  -5  13   0    0.28    0.05
   0 -14   0    0.27    0.17
   0  14   0    0.16    0.15
  -1 -14   0  128.69    6.10
   1 -14   0  124.61    6.11
   1  14   0  126.27    6.21
   1  14   0  123.12    5.95
  -1  14   0  120.67    6.20
  -1  14   0  117.40    5.94
  -2 -14   0    3.28    0.36
  -2 -14   0    3.54    0.23
   2  14   0    3.42    0.21
  -2  14   0    3.20    0.20
  -2  14   0    3.30    0.24
   2  14   0    2.90    0.42
   2  14   0    3.12    0.39
  -2  14   0    3.36    0.45
  -3 -14   0   11.32    0.59
   3 -14   0   13.74    0.82
  -3 -14   0    8.81    0.72
   3  14   0   10.05    0.82
  -3  14   0    9.84    0.89
  -3  14   0   10.96    0.55
   3  14   0    8.83    0.82
  -3  14   0   11.27    0.59
   4 -14   0    1.22    0.13
   4 -14   0    1.32    0.17
  -4 -14   0    1.31    0.18
  -4 -14   0    1.25    0.18
  -4  14   0    1.24    0.11
   4  14   0    1.30    0.15
  -4  14   0    1.17    0.14
  -5 -14   0    0.35    0.09
   5 -14   0    0.29    0.06
   5 -14   0    0.37    0.09
  -5 -14   0    0.27    0.08
   5  14   0    0.26    0.08
  -5  14   0    0.37    0.06
   0 -15   0    0.09    0.18
   0  15   0    0.06    0.16
   1 -15   0   43.08    2.20
  -1 -15   0   41.46    2.18
  -1  15   0   37.35    2.26
  -1  15   0   40.09    2.02
  -1  15   0   38.51    1.98
   1  15   0   44.60    2.03
   1  15   0   41.12    2.29
  -2 -15   0   17.66    1.08
  -2 -15   0   17.63    0.89
   2  15   0   16.48    1.19
   2  15   0   16.84    0.88
  -2  15   0   18.50    0.88
   2  15   0   16.12    1.11
  -2  15   0   18.60    0.91
  -2  15   0   17.72    1.23
  -3 -15   0    4.98    0.36
   3 -15   0    4.65    0.34
   3 -15   0    4.87    0.32
  -3 -15   0    4.81    0.31
  -3 -15   0    4.79    0.37
  -3  15   0    5.50    0.33
  -3  15   0    5.06    0.28
   3  15   0    4.61    0.32
   4 -15   0    0.24    0.12
  -4 -15   0    0.09    0.12
  -4 -15   0   -0.06    0.12
   4 -15   0    0.16    0.06
   4  15   0    0.02    0.09
  -4  15   0    0.11    0.07
  -4  15   0    0.07    0.05
   5 -15   0    0.43    0.11
  -5 -15   0    0.37    0.08
  -5 -15   0    0.30    0.09
  -5  15   0    0.54    0.11
   5  15   0    0.24    0.06
   0 -16   0   15.10    0.89
   0  16   0   12.56    0.76
   0  16   0   13.04    0.93
   1 -16   0    3.61    0.39
  -1 -16   0    4.05    0.40
   1  16   0    3.91    0.28
  -1  16   0    3.37    0.44
  -1  16   0    3.61    0.23
   1  16   0    3.66    0.46
  -1  16   0    3.73    0.26
  -2 -16   0    0.01    0.18
   2  16   0    0.02    0.21
  -2  16   0    0.08    0.09
  -2  16   0   -0.04    0.20
  -2  16   0    0.10    0.07
  -3 -16   0   11.86    0.68
   3 -16   0   13.03    0.70
  -3 -16   0   12.95    0.75
  -3 -16   0   13.27    0.73
   3 -16   0   13.81    0.75
  -3  16   0   14.28    0.71
  -3  16   0   13.42    0.67
   3  16   0   12.27    0.69
   4 -16   0    2.93    0.20
   4 -16   0    2.55    0.22
  -4 -16   0    3.00    0.23
  -4  16   0    2.56    0.23
  -4  16   0    2.90    0.18
   4  16   0    2.70    0.22
  -5 -16   0    1.87    0.16
   5 -16   0    1.99    0.17
  -5 -16   0    1.80    0.15
  -5  16   0    1.74    0.16
   5  16   0    1.58    0.12
   0 -17   0    0.06    0.18
   0  17   0    0.06    0.08
   0  17   0    0.02    0.14
   1 -17   0   13.82    1.03
  -1 -17   0   15.05    1.04
  -1  17   0   17.58    0.85
   1  17   0   18.74    0.90
   1  17   0   18.43    1.20
  -2 -17   0   19.84    1.05
   2 -17   0   18.37    1.04
  -2  17   0   21.71    0.98
  -2  17   0   20.20    1.02
  -2  17   0   16.90    1.06
   2  17   0   19.57    1.00
  -3 -17   0    6.66    0.41
  -3 -17   0    6.39    0.44
   3 -17   0    6.04    0.42
  -3  17   0    6.56    0.35
  -3  17   0    5.95    0.38
   3  17   0    5.96    0.38
  -4 -17   0    1.01    0.16
  -4 -17   0    0.95    0.13
   4 -17   0    1.01    0.14
  -4  17   0    0.97    0.10
   4  17   0    0.81    0.11
   5 -17   0    4.61    0.30
   0 -18   0   19.37    1.22
   0  18   0   20.40    1.05
  -1 -18   0   23.66    1.27
   1 -18   0   23.25    1.27
  -1 -18   0   23.36    1.25
   1  18   0   23.94    1.21
   1  18   0   25.96    1.23
  -1  18   0   23.06    1.21
   1  18   0   23.23    1.23
  -1  18   0   23.91    1.23
  -1  18   0   24.17    1.18
  -2 -18   0    5.89    0.43
   2 -18   0    5.92    0.41
  -2 -18   0    6.14    0.43
  -2  18   0    6.07    0.38
   2  18   0    5.92    0.38
  -2  18   0    5.93    0.38
  -2  18   0    6.75    0.35
   3 -18   0    1.63    0.20
  -3 -18   0    1.95    0.22
  -3 -18   0    1.51    0.18
   3  18   0    1.55    0.16
  -3  18   0    1.59    0.13
  -3  18   0    1.56    0.16
  -4 -18   0    0.09    0.07
   4 -18   0    0.11    0.08
  -4 -18   0    0.05    0.09
   4  18   0    0.00    0.07
  -4  18   0    0.03    0.04
   0 -19   0   -0.15    0.12
   0  19   0    0.05    0.10
   0  19   0   -0.05    0.08
   0  19   0    0.19    0.12
  -1 -19   0    6.95    0.47
   1 -19   0    6.75    0.46
  -1 -19   0    6.67    0.45
   1  19   0    6.90    0.43
   1  19   0    6.37    0.40
  -1  19   0    6.30    0.39
  -1  19   0    6.76    0.42
   1  19   0    6.18    0.39
  -2 -19   0    0.32    0.11
  -2 -19   0    0.33    0.14
   2 -19   0    0.30    0.13
   2  19   0    0.22    0.11
  -2  19   0    0.12    0.10
  -2  19   0    0.23    0.06
  -2  19   0    0.28    0.10
  -3 -19   0    1.22    0.16
  -3 -19   0    1.75    0.18
   3 -19   0    1.48    0.18
  -3  19   0    1.69    0.12
   3  19   0    1.60    0.15
  -4 -19   0    0.32    0.08
   4 -19   0    0.23    0.07
  -4 -19   0    0.32    0.09
   4  19   0    0.33    0.07
  -4  19   0    0.38    0.07
   0 -20   0    5.53    0.41
   0  20   0    5.06    0.34
   0  20   0    5.77    0.37
   1 -20   0    1.84    0.23
  -1 -20   0    2.07    0.23
  -1 -20   0    1.33    0.20
  -1  20   0    1.68    0.17
  -1  20   0    1.71    0.19
   1  20   0    1.90    0.20
   1  20   0    1.54    0.16
  -2 -20   0    1.82    0.22
  -2 -20   0    2.02    0.23
  -2  20   0    1.99    0.19
  -2  20   0    1.81    0.14
  -2  20   0    2.12    0.19
   2  20   0    1.58    0.17
  -3 -20   0    1.01    0.13
  -3 -20   0    1.04    0.16
   3 -20   0    1.23    0.16
  -3  20   0    1.01    0.09
  -3  20   0    1.09    0.13
   3  20   0    0.98    0.12
  -4 -20   0    0.17    0.07
  -4 -20   0    0.09    0.10
  -4  20   0    0.09    0.05
   4  20   0    0.13    0.08
   0 -21   0   -0.03    0.09
   0  21   0    0.02    0.06
   0  21   0    0.02    0.10
   1 -21   0    2.25    0.25
  -1 -21   0    2.29    0.26
  -1 -21   0    2.24    0.24
  -1  21   0    2.13    0.19
   1  21   0    2.09    0.19
   1  21   0    1.71    0.19
  -1  21   0    2.11    0.21
  -2 -21   0    5.49    0.37
  -2 -21   0    4.68    0.36
   2  21   0    6.28    0.35
  -2  21   0    6.13    0.36
  -2  21   0    6.60    0.35
  -3 -21   0    0.10    0.10
   3  21   0    0.14    0.07
  -3  21   0    0.13    0.06
   0 -22   0    0.88    0.16
   0  22   0    1.06    0.15
   0  22   0    1.15    0.14
  -1 -22   0    0.47    0.14
   1 -22   0    0.52    0.12
  -1 -22   0    0.47    0.13
  -1  22   0    0.37    0.10
  -1  22   0    0.46    0.11
   1  22   0    0.69    0.11
   1  22   0    0.43    0.12
  -2 -22   0    2.03    0.19
  -2 -22   0    2.04    0.19
  -2  22   0    2.11    0.16
   2  22   0    2.24    0.18
  -2  22   0    2.03    0.18
  -3 -22   0    6.66    0.37
  -3  22   0    5.62    0.33
   3  22   0    6.23    0.33
   0 -23   0    0.05    0.09
   0  23   0    0.05    0.10
   0  23   0   -0.03    0.07
  -1 -23   0    0.07    0.10
  -1 -23   0    0.04    0.08
   1 -23   0    0.03    0.10
   1  23   0    0.08    0.08
  -1  23   0    0.10    0.06
   1  23   0    0.06    0.07
  -1  23   0    0.14    0.08
  -2 -23   0    1.50    0.17
  -2 -23   0    1.03    0.13
  -2  23   0    1.35    0.13
  -2  23   0    1.56    0.13
   2  23   0    1.23    0.11
   0 -24   0    8.78    0.50
   0  24   0    9.43    0.46
   0  24   0    7.72    0.46
  -1 -24   0    1.58    0.17
   1 -24   0    1.70    0.16
  -1  24   0    1.99    0.16
  -1  24   0    1.88    0.14
   1  24   0    2.04    0.15
   1  24   0    1.97    0.15
  -2 -24   0    0.33    0.07
   2  24   0    0.32    0.06
  -2  24   0    0.24    0.06
   0 -25   0   -0.06    0.09
   0  25   0   -0.07    0.05
   0  25   0   -0.04    0.06
  -1 -25   0   12.64    0.61
   1  25   0   10.34    0.59
  -6   0   1    0.02    0.06
   6   0  -1    0.03    0.12
   6   0  -1    0.02    0.08
  -6   0   1   -0.15    0.10
  -5   0   1   25.39    1.46
   5   0  -1   24.51    1.14
   5   0  -1   20.31    1.32
   5   0  -1   18.92    1.20
  -4   0   1   -0.03    0.06
  -4   0   1    0.10    0.11
   4   0  -1    0.06    0.12
  -3   0   1   68.08    3.14
   3   0  -1   61.19    3.12
  -3   0   1   59.50    3.18
  -2   0   1    0.05    0.09
   2   0  -1    0.06    0.09
  -2   0   1    0.06    0.04
  -2   0   1    0.00    0.06
   2   0  -1    0.05    0.05
   1   0  -1  452.66   21.75
   1   0  -1  450.84   21.59
  -1   0   1  452.14   21.61
   0   0  -1    0.15    0.03
   0   0   1    0.10    0.02
   1   0   1   23.66    1.15
  -1   0  -1   24.24    1.25
   2   0   1   -0.01    0.09
  -2   0  -1    0.04    0.07
   2   0   1    0.04    0.10
  -3   0  -1    0.13    0.05
  -3   0  -1    0.22    0.11
   3   0   1    0.21    0.14
  -4   0  -1    0.05    0.07
  -4   0  -1    0.01    0.12
   4   0   1    0.00    0.14
   5   0   1   31.34    1.54
   5   0   1   30.42    1.57
  -5   0  -1   31.39    1.51
  -5   0  -1   29.85    1.54
   5   0   1   30.95    1.58
  -6   0  -1    0.02    0.08
   6   0   1    0.03    0.06
  -6  -1   1    1.71    0.14
  -6  -1   1    1.44    0.18
   6  -1  -1    1.62    0.18
   6  -1  -1    1.65    0.15
   6   1  -1    1.65    0.15
   6   1  -1    1.70    0.19
  -6   1   1    1.84    0.19
  -6   1   1    1.53    0.14
   5  -1  -1   13.86    0.73
  -5  -1   1   10.58    0.57
   5  -1  -1   10.48    0.60
  -5  -1   1   11.35    0.62
  -5   1   1   10.78    0.61
  -5   1   1   11.21    0.57
   5   1  -1   11.45    0.62
   5   1  -1    9.06    0.64
  -4  -1   1    2.74    0.22
   4  -1  -1    2.89    0.30
  -4  -1   1    2.95    0.30
   4   1  -1    2.65    0.29
  -4   1   1    2.78    0.29
  -4   1   1    2.82    0.21
  -3  -1   1    9.00    0.63
   3  -1  -1   10.09    0.61
  -3  -1   1   10.41    0.61
  -3   1   1   10.03    0.66
  -3   1   1   10.92    0.61
   3   1  -1    9.56    0.59
  -2  -1   1   23.57    1.16
   2  -1  -1   24.43    1.16
  -2  -1   1   23.45    1.19
   2  -1  -1   23.54    1.21
  -2  -1   1   22.07    1.23
   2  -1  -1   23.06    1.20
  -2   1   1   22.97    1.19
  -2   1   1   23.92    1.16
  -2   1   1   22.52    1.25
   2   1  -1   24.73    1.16
   1  -1  -1  367.94   17.55
  -1  -1   1  356.25   17.55
   1  -1  -1  372.74   17.72
   1   1  -1  374.87   17.67
  -1   1   1  362.68   17.55
   1   1  -1  370.06   17.55
   0  -1  -1  381.44   17.92
   0  -1   1  364.65   17.92
   0   1  -1  380.29   17.90
   0   1  -1  372.77   18.03
  -1  -1  -1  937.72   45.87
   1  -1   1  943.10   45.87
  -1  -1  -1 1000.00   45.87
   1   1   1  952.16   45.93
  -1   1  -1  972.36   46.28
  -2  -1  -1   60.28    3.10
   2  -1   1   67.25    3.14
  -2   1  -1   59.85    3.11
   2   1   1   66.48    3.14
   2   1   1   62.24    3.16
  -3  -1  -1    4.65    0.35
  -3  -1  -1    4.18    0.25
   3  -1   1    4.77    0.38
  -3   1  -1    4.79    0.36
   3   1   1    3.01    0.40
   3   1   1    4.82    0.38
  -4  -1  -1   12.72    0.66
  -4  -1  -1   11.76    0.80
  -4  -1  -1   13.56    0.87
   4  -1   1   12.91    0.84
  -4  -1  -1   13.11    0.68
  -4   1  -1   11.87    0.80
   4   1   1   12.11    0.82
  -4   1  -1   13.22    0.67
   5  -1   1   25.86    1.32
   5  -1   1   25.13    1.35
   5  -1   1   25.43    1.36
  -5  -1  -1   26.28    1.33
  -5  -1  -1   27.09    1.29
  -5   1  -1   26.29    1.29
  -5   1  -1   27.03    1.33
   5   1   1   26.71    1.35
   5   1   1   25.78    1.37
  -6  -1  -1    0.96    0.12
   6  -1   1    0.64    0.10
   6   1   1    0.74    0.10
   6  -2  -1   12.07    0.63
  -6  -2   1   10.63    0.60
   6  -2  -1   12.18    0.63
  -6  -2   1   11.52    0.65
   6   2  -1   11.91    0.63
   6   2  -1   12.28    0.66
  -6   2   1   12.34    0.61
   5  -2  -1    2.45    0.25
  -5  -2   1    2.32    0.17
  -5  -2   1    2.37    0.23
   5  -2  -1    2.38    0.27
   5  -2  -1    2.87    0.25
   5  -2  -1    2.39    0.20
  -5   2   1    2.60    0.21
   5   2  -1    2.22    0.20
  -5   2   1    1.54    0.23
   5   2  -1    2.08    0.21
   5   2  -1    2.79    0.27
  -5   2   1    2.47    0.41
  -5   2   1    2.43    0.17
  -4  -2   1    0.28    0.09
  -4  -2   1    0.47    0.16
   4  -2  -1    0.53    0.17
  -4   2   1    0.50    0.16
  -4   2   1    0.41    0.10
  -3  -2   1    2.38    0.23
   3  -2  -1    2.52    0.26
   3  -2  -1    2.23    0.23
   3   2  -1    1.99    0.20
  -3   2   1    2.28    0.29
   3   2  -1    1.90    0.24
  -3   2   1    2.37    0.24
   2  -2  -1  108.22    5.29
   2  -2  -1  112.21    5.31
  -2  -2   1  110.22    5.28
   2  -2  -1  112.30    5.25
  -2  -2   1  101.91    5.32
  -2   2   1  106.58    5.24
   2   2  -1  108.10    5.31
   2   2  -1  111.48    5.25
  -2   2   1  111.33    5.35
  -1  -2   1  110.01    5.32
  -1  -2   1  108.98    5.28
   1  -2  -1  113.93    5.28
   1  -2  -1  109.16    5.32
  -1   2   1  106.90    5.28
   1   2  -1  111.00    5.28
   1   2  -1  110.25    5.32
   0  -2  -1  358.19   16.60
   0  -2   1  340.86   16.60
   0  -2  -1  340.57   16.65
   0   2  -1  345.67   16.66
   0   2   1  348.10   16.59
   0   2  -1  350.51   16.59
  -1  -2  -1   83.73    4.09
  -1  -2  -1   82.49    4.15
  -1  -2  -1   89.80    4.09
  -1  -2  -1   85.66    4.18
   1   2   1   82.11    4.17
   1   2   1   85.28    4.15
  -1   2  -1   86.50    4.19
   1   2   1   87.41    4.10
  -2  -2  -1   97.21    4.86
   2  -2   1  106.46    4.89
   2   2   1  101.75    4.92
   2   2   1   92.23    4.90
   2   2   1  101.97    4.88
  -3  -2  -1   47.37    2.43
   3  -2   1   52.40    2.58
  -3  -2  -1   48.61    2.54
   3   2   1   49.19    2.62
  -3   2  -1   50.91    2.56
   3   2   1   53.10    2.58
  -4  -2  -1   78.56    4.30
  -4  -2  -1   93.39    4.18
  -4  -2  -1   81.73    4.14
  -4  -2  -1   91.69    4.40
   4  -2   1   84.66    4.35
  -4   2  -1   87.74    4.16
   4   2   1   84.52    4.34
  -5  -2  -1    3.36    0.20
  -5  -2  -1    3.09    0.25
   5  -2   1    3.19    0.26
   5  -2   1    3.17    0.24
   5  -2   1    2.60    0.28
  -5   2  -1    2.78    0.21
   5   2   1    3.06    0.24
   5   2   1    3.48    0.30
   5   2   1    3.23    0.27
  -5   2  -1    3.02    0.19
   5   2   1    3.60    0.32
  -6  -2  -1    1.72    0.16
   6   2   1    1.48    0.15
   6  -3  -1    1.07    0.12
  -6  -3   1    1.04    0.15
   6  -3  -1    0.92    0.12
   6   3  -1    0.92    0.14
  -6   3   1    0.79    0.09
   6   3  -1    1.11    0.13
   5  -3  -1    8.55    0.50
  -5  -3   1    9.01    0.47
   5  -3  -1    8.01    0.54
   5  -3  -1    8.85    0.50
   5   3  -1    8.24    0.49
   5   3  -1    8.53    0.50
   5   3  -1    8.78    0.56
  -5   3   1    9.49    0.47
  -5   3   1    9.26    0.51
  -4  -3   1    5.19    0.42
  -4  -3   1    4.87    0.33
   4  -3  -1    5.72    0.44
  -4   3   1    5.31    0.42
  -4   3   1    5.17    0.32
  -3  -3   1    9.15    0.54
   3  -3  -1    8.92    0.57
   3  -3  -1    8.11    0.55
   3   3  -1    8.39    0.58
  -3   3   1    8.64    0.54
  -3   3   1    8.60    0.61
   2  -3  -1   46.29    2.30
   2  -3  -1   46.69    2.29
  -2  -3   1   45.95    2.27
   2  -3  -1   47.06    2.24
  -2  -3   1   42.81    2.31
   2   3  -1   46.87    2.24
   2   3  -1   45.81    2.31
  -2   3   1   46.46    2.35
   1  -3  -1  232.25   10.93
  -1  -3   1  223.51   10.92
   1  -3  -1  232.31   10.87
  -1  -3   1  222.33   10.86
  -1   3   1  219.18   10.86
  -1   3   1  225.97   10.92
   1   3  -1  229.36   10.86
   1   3  -1  232.44   10.93
   0  -3  -1   29.94    1.41
   0  -3  -1   28.74    1.48
   0  -3   1   28.73    1.48
   0   3  -1   28.63    1.48
   0   3  -1   28.52    1.39
  -1  -3  -1  203.54    9.51
   1  -3   1  199.51    9.61
  -1  -3  -1  201.41    9.60
  -1  -3  -1  198.05    9.56
   1   3   1  193.53    9.55
  -1   3  -1  202.75    9.61
   1   3   1  194.16    9.60
   1   3   1  197.11    9.59
   2  -3   1   19.68    1.04
  -2  -3  -1   18.59    1.01
  -2  -3  -1   20.08    1.05
   2   3   1   17.98    1.07
   2   3   1   19.26    1.03
   2   3   1   19.68    1.08
  -3  -3  -1    7.03    0.40
  -3  -3  -1    7.44    0.53
   3  -3   1    7.61    0.52
  -3  -3  -1    6.73    0.48
   3   3   1    7.53    0.58
   3   3   1    7.05    0.51
  -3   3  -1    7.07    0.51
  -4  -3  -1    6.83    0.38
  -4  -3  -1    7.20    0.58
   4  -3   1    7.04    0.56
  -4  -3  -1    7.40    0.54
  -4  -3  -1    7.65    0.42
  -4   3  -1    6.15    0.52
  -4   3  -1    7.07    0.39
   4   3   1    6.67    0.54
   5  -3   1    6.61    0.43
  -5  -3  -1    7.23    0.38
   5  -3   1    6.93    0.40
  -5  -3  -1    6.66    0.41
  -5   3  -1    6.62    0.36
   5   3   1    6.91    0.46
   5   3   1    6.85    0.46
  -5   3  -1    6.70    0.39
   5   3   1    7.21    0.46
   6  -3   1    0.18    0.06
  -6  -3  -1    0.14    0.09
   6   3   1    0.07    0.08
   6   3   1    0.11    0.07
   6  -4  -1    1.85    0.16
   6  -4  -1    1.84    0.17
  -6  -4   1    1.88    0.19
  -6   4   1    1.90    0.14
   6   4  -1    1.52    0.20
   6   4  -1    1.49    0.14
   5  -4  -1    0.20    0.09
   5  -4  -1    0.23    0.12
   5  -4  -1    0.06    0.10
  -5  -4   1    0.27    0.10
  -5  -4   1    0.12    0.06
  -5   4   1    0.22    0.09
   5   4  -1    0.12    0.10
   5   4  -1    0.05    0.15
  -5   4   1    0.19    0.07
   5   4  -1    0.18    0.09
  -4  -4   1    0.24    0.10
  -4  -4   1    0.49    0.17
   4  -4  -1    0.44    0.17
  -4   4   1    0.22    0.18
  -4   4   1    0.31    0.15
  -4   4   1    0.44    0.10
   3  -4  -1   44.93    2.27
  -3  -4   1   44.54    2.25
   3  -4  -1   43.45    2.28
  -3   4   1   44.27    2.25
   3   4  -1   42.95    2.30
  -3   4   1   45.07    2.35
  -2  -4   1   23.84    1.34
  -2  -4   1   26.24    1.31
   2  -4  -1   25.29    1.34
   2  -4  -1   26.34    1.33
   2  -4  -1   26.14    1.27
   2   4  -1   26.68    1.36
  -2   4   1   26.81    1.40
   2   4  -1   23.90    1.34
  -1  -4   1   14.20    0.72
   1  -4  -1   14.27    0.72
  -1  -4   1   14.48    0.79
   1  -4  -1   14.67    0.79
   1   4  -1   15.18    0.72
  -1   4   1   13.23    0.71
  -1   4   1   13.89    0.78
   1   4  -1   14.08    0.79
   0  -4  -1  189.32    9.11
   0  -4   1  191.37    9.21
   0  -4  -1  188.83    9.20
   0  -4   1  193.20    9.10
   0   4  -1  190.03    9.20
   0   4   1  189.84    9.11
   0   4   1  190.27    9.20
  -1  -4  -1    3.24    0.25
  -1  -4  -1    3.16    0.27
  -1  -4  -1    3.29    0.19
   1   4   1    3.03    0.23
   1   4   1    3.15    0.26
   1   4   1    3.12    0.27
  -1   4  -1    3.04    0.27
  -2  -4  -1    3.09    0.27
  -2  -4  -1    2.98    0.24
   2  -4   1    3.22    0.28
   2   4   1    3.07    0.29
  -2   4  -1    2.84    0.29
   2   4   1    2.89    0.25
   2   4   1    2.93    0.31
  -3  -4  -1    4.14    0.37
  -3  -4  -1    4.04    0.25
  -3  -4  -1    3.80    0.32
   3  -4   1    3.92    0.36
   3   4   1    3.72    0.39
  -3   4  -1    4.15    0.34
   3   4   1    3.37    0.33
  -4  -4  -1    1.24    0.12
   4  -4   1    1.65    0.30
  -4  -4  -1    1.05    0.24
  -4  -4  -1    1.21    0.15
   4   4   1    1.28    0.28
  -4   4  -1    1.26    0.26
  -4   4  -1    1.30    0.13
   5  -4   1    0.09    0.08
  -5  -4  -1    0.11    0.06
  -5  -4  -1    0.06    0.08
   5   4   1    0.14    0.13
   5   4   1   -0.07    0.13
  -5   4  -1    0.09    0.07
  -5   4  -1    0.06    0.05
   5   4   1    0.08    0.09
  -6  -4  -1    0.57    0.11
   6   4   1    0.89    0.11
   6   4   1    0.78    0.10
   6  -5  -1    4.94    0.29
  -6  -5   1    4.61    0.32
   6  -5  -1    4.72    0.29
  -6  -5   1    4.85    0.32
   6  -5  -1    4.92    0.32
  -6   5   1    4.82    0.27
   6   5  -1    4.99    0.33
   6   5  -1    4.51    0.28
   5  -5  -1    1.54    0.16
   5  -5  -1    1.80    0.22
  -5  -5   1    1.70    0.21
   5  -5  -1    1.23    0.15
  -5   5   1    1.89    0.18
   5   5  -1    1.74    0.22
  -5   5   1    1.86    0.14
   5   5  -1    1.92    0.18
  -4  -5   1   53.41    2.73
   4  -5  -1   54.48    2.76
   4   5  -1   52.06    2.81
  -4   5   1   53.78    2.59
  -4   5   1   49.93    2.85
  -4   5   1   54.22    2.74
  -3  -5   1   45.34    2.31
   3  -5  -1   45.13    2.35
   3  -5  -1   46.14    2.34
   3   5  -1   45.71    2.37
  -3   5   1   45.07    2.42
   2  -5  -1  638.58   29.44
   2  -5  -1  567.28   29.40
  -2  -5   1  568.80   29.45
   2  -5  -1  626.88   29.46
  -2  -5   1  627.39   29.42
  -2   5   1  651.19   29.52
   2   5  -1  581.75   29.46
   2   5  -1  634.42   29.47
   2   5  -1  638.59   29.48
   1  -5  -1  145.05    6.69
  -1  -5   1  140.51    6.78
   1  -5  -1  132.88    6.73
   1  -5  -1  143.16    6.78
   1   5  -1  138.17    6.82
  -1   5   1  138.17    6.68
   1   5  -1  133.52    6.74
   1   5  -1  143.38    6.68
  -1   5   1  138.49    6.77
   1   5  -1  139.95    6.78
   0  -5   1   10.97    0.67
   0  -5  -1   11.63    0.58
   0  -5  -1   11.37    0.67
   0  -5   1   11.17    0.57
   0   5  -1   11.24    0.68
   0   5   1   11.80    0.68
  -1  -5  -1   21.47    1.08
   1  -5   1   18.98    1.06
  -1  -5  -1   21.32    1.09
   1   5   1   21.51    1.12
   1   5   1   21.29    1.13
   1   5   1   19.79    1.06
  -2  -5  -1   43.36    2.12
   2  -5   1   43.30    2.11
  -2  -5  -1   39.37    2.08
   2   5   1   40.65    2.09
   2   5   1   42.31    2.16
   2   5   1   41.88    2.18
  -2   5  -1   38.68    2.16
  -3  -5  -1   10.10    0.66
  -3  -5  -1    9.26    0.61
  -3  -5  -1    9.51    0.52
   3  -5   1    9.17    0.63
   3   5   1    9.59    0.62
   3   5   1   10.10    0.71
  -3   5  -1    9.56    0.63
  -4  -5  -1   95.15    4.55
  -4  -5  -1   93.04    4.78
  -4   5  -1   95.43    4.56
  -5  -5  -1    2.02    0.19
  -5  -5  -1    2.00    0.15
   5  -5   1    2.00    0.18
   5   5   1    1.88    0.22
  -5   5  -1    1.76    0.13
   5   5   1    1.75    0.22
   5   5   1    1.34    0.19
  -5   5  -1    1.64    0.14
  -6  -5  -1   23.42    1.19
   6   5   1   22.64    1.19
   6   5   1   25.13    1.17
   6   5   1   24.10    1.19
   6  -6  -1    3.76    0.29
  -6  -6   1    3.93    0.30
   6  -6  -1    3.74    0.24
  -6  -6   1    4.09    0.28
   6   6  -1    3.84    0.28
  -6   6   1    3.74    0.23
   6   6  -1    3.90    0.25
   6   6  -1    3.66    0.25
   5  -6  -1    0.09    0.06
  -5  -6   1    0.11    0.13
   5  -6  -1    0.10    0.13
   5  -6  -1    0.24    0.09
   5   6  -1   -0.13    0.09
  -5   6   1    0.19    0.06
  -5   6   1    0.15    0.10
   5   6  -1    0.05    0.14
   4  -6  -1    0.11    0.15
  -4  -6   1    0.10    0.13
  -4  -6   1    0.03    0.10
   4   6  -1   -0.09    0.14
  -4   6   1    0.03    0.14
  -4   6   1    0.07    0.07
  -4   6   1    0.09    0.20
  -4   6   1    0.12    0.05
   3  -6  -1   66.07    3.26
   3  -6  -1   68.90    3.25
  -3  -6   1   58.60    3.12
  -3  -6   1   66.85    3.22
   3   6  -1   67.24    3.29
  -3   6   1   65.79    3.34
  -3   6   1   57.90    3.11
   2  -6  -1  152.01    7.00
  -2  -6   1  147.03    6.98
   2  -6  -1  145.71    7.01
  -2  -6   1  134.11    6.91
  -2   6   1  150.98    7.09
   2   6  -1  134.44    6.91
   2   6  -1  148.95    7.04
   2   6  -1  141.19    7.03
  -1  -6   1    1.14    0.20
   1  -6  -1    1.03    0.16
  -1  -6   1    1.42    0.17
   1  -6  -1    0.85    0.10
   1   6  -1    1.19    0.19
  -1   6   1    0.97    0.20
   1   6  -1    0.92    0.17
  -1   6   1    0.84    0.10
  -1   6   1    1.24    0.22
   1   6  -1    1.01    0.18
   0  -6  -1  126.08    6.16
   0  -6  -1  129.27    6.12
   0  -6   1  127.59    6.15
   0   6   1  125.34    6.19
   0   6  -1  128.81    6.20
   1  -6   1   22.30    1.31
   1  -6   1   24.50    1.29
  -1  -6  -1   27.35    1.33
  -1  -6  -1   25.35    1.29
   1   6   1   26.61    1.35
  -1   6  -1   25.00    1.34
   1   6   1   25.68    1.30
   1   6   1   27.20    1.38
   2  -6   1   11.64    0.70
  -2  -6  -1   12.08    0.69
  -2  -6  -1   12.64    0.72
   2   6   1   12.58    0.79
   2   6   1   10.98    0.75
   2   6   1   12.04    0.69
  -2   6  -1   11.91    0.78
  -3  -6  -1   21.59    1.09
  -3  -6  -1   20.00    1.18
  -3  -6  -1   22.38    1.24
   3  -6   1   22.02    1.22
   3   6   1   20.65    1.19
   3   6   1   22.40    1.31
  -4  -6  -1   16.50    1.05
  -4  -6  -1   17.08    0.84
   4  -6   1   16.49    1.05
  -4  -6  -1   17.98    0.89
  -4   6  -1   16.90    0.85
  -4   6  -1   14.05    1.00
   5  -6   1    3.82    0.26
  -5  -6  -1    3.83    0.23
  -5  -6  -1    3.49    0.26
   5   6   1    4.21    0.33
  -5   6  -1    3.37    0.21
   5   6   1    3.88    0.30
   5   6   1    4.30    0.32
  -5   6  -1    3.34    0.23
  -6  -6  -1    4.72    0.29
   6   6   1    4.75    0.27
   6   6   1    5.06    0.30
   6   6   1    4.82    0.29
   6  -7  -1    6.68    0.40
  -6  -7   1    6.71    0.40
   6  -7  -1    6.57    0.36
  -6  -7   1    6.05    0.37
   6   7  -1    5.62    0.34
  -6   7   1    6.13    0.33
   6   7  -1    6.22    0.39
   6   7  -1    5.81    0.34
   5  -7  -1    5.97    0.37
   5  -7  -1    6.05    0.36
  -5  -7   1    5.65    0.41
   5  -7  -1    6.31    0.42
  -5   7   1    6.25    0.34
   5   7  -1    5.17    0.36
   5   7  -1    6.02    0.43
  -5   7   1    6.24    0.37
   5   7  -1    5.65    0.37
  -4  -7   1    1.38    0.20
  -4  -7   1    1.09    0.23
   4  -7  -1    1.07    0.24
  -4   7   1    1.50    0.27
  -4   7   1    1.35    0.16
  -4   7   1    1.14    0.31
  -4   7   1    1.26    0.11
   4   7  -1    1.48    0.32
  -3  -7   1    3.87    0.33
   3  -7  -1    3.97    0.36
   3  -7  -1    3.89    0.37
  -3  -7   1    3.64    0.25
  -3   7   1    3.82    0.24
   3   7  -1    3.89    0.39
  -3   7   1    4.46    0.43
  -2  -7   1   35.39    1.84
   2  -7  -1   38.73    1.95
   2  -7  -1   39.59    1.94
  -2  -7   1   39.16    1.92
   2   7  -1   35.16    1.84
  -2   7   1   39.53    2.02
   2   7  -1   37.16    1.97
   2   7  -1   38.53    1.98
   1  -7  -1   33.63    1.78
   1  -7  -1   36.45    1.81
  -1  -7   1   37.13    1.79
   1  -7  -1   34.37    1.75
  -1  -7   1   35.40    1.84
  -1   7   1   35.57    1.84
   1   7  -1   35.84    1.84
   1   7  -1   35.60    1.82
   0  -7  -1    0.40    0.11
   0  -7  -1    0.40    0.10
   0  -7   1    0.38    0.11
   0   7   1    0.19    0.12
   0   7  -1    0.31    0.12
   1  -7   1    1.36    0.20
  -1  -7  -1    1.30    0.20
  -1  -7  -1    1.08    0.17
   1   7   1    1.26    0.21
   1   7   1    1.10    0.15
   1   7   1    1.12    0.20
  -1   7  -1    1.46    0.21
  -2  -7  -1    1.76    0.19
  -2  -7  -1    2.08    0.26
   2  -7   1    2.09    0.26
   2   7   1    1.83    0.23
  -2   7  -1    1.98    0.33
   2   7   1    1.89    0.29
   2   7   1    1.36    0.25
   3  -7   1    0.21    0.15
  -3  -7  -1    0.23    0.08
  -3  -7  -1    0.21    0.16
  -3  -7  -1    0.24    0.14
   3   7   1    0.44    0.21
  -4  -7  -1    3.28    0.21
   4  -7   1    2.89    0.23
  -4  -7  -1    2.81    0.27
  -4  -7  -1    3.48    0.25
   4  -7   1    2.86    0.23
  -4   7  -1    3.16    0.20
   4   7   1    2.98    0.53
   4   7   1    2.77    0.29
   4   7   1    2.86    0.29
   4   7   1    2.93    0.29
   4   7   1    3.07    0.24
  -5  -7  -1    1.72    0.18
   5  -7   1    2.49    0.19
  -5  -7  -1    2.26    0.24
   5  -7   1    2.46    0.19
  -5  -7  -1    2.38    0.17
  -5   7  -1    2.12    0.15
   5   7   1    2.63    0.26
  -5   7  -1    2.17    0.17
   5   7   1    2.64    0.27
   5   7   1    2.49    0.21
   5   7   1    2.33    0.21
  -6  -7  -1    0.72    0.14
   6  -8  -1    0.33    0.11
   6  -8  -1    0.30    0.06
  -6  -8   1    0.21    0.11
  -6  -8   1    0.18    0.09
   6   8  -1    0.25    0.07
   6   8  -1    0.31    0.12
  -6   8   1    0.29    0.06
   6   8  -1    0.14    0.07
   5  -8  -1    5.36    0.33
  -5  -8   1    5.22    0.38
   5  -8  -1    5.43    0.37
   5   8  -1    4.99    0.33
  -5   8   1    5.17    0.33
  -5   8   1    5.34    0.30
   5   8  -1    5.23    0.39
   5   8  -1    4.91    0.33
  -4  -8   1    0.53    0.18
  -4  -8   1    0.67    0.11
   4  -8  -1    0.59    0.19
   4   8  -1    1.00    0.28
  -4   8   1    0.74    0.28
  -4   8   1    0.76    0.22
  -4   8   1    1.12    0.14
  -4   8   1    1.06    0.11
  -3  -8   1    2.80    0.28
   3  -8  -1    2.46    0.31
   3  -8  -1    2.87    0.30
  -3  -8   1    2.82    0.20
  -3   8   1    2.47    0.19
   3   8  -1    2.84    0.34
  -3   8   1    2.78    0.37
  -2  -8   1   45.29    2.26
   2  -8  -1   47.09    2.39
   2  -8  -1   48.71    2.37
  -2  -8   1   47.18    2.35
   2   8  -1   45.14    2.27
  -2   8   1   47.13    2.46
   2   8  -1   44.93    2.41
   2   8  -1   47.39    2.41
   1  -8  -1   39.53    1.99
   1  -8  -1   41.15    2.02
  -1  -8   1   40.37    2.00
  -1  -8   1   37.40    2.05
   1   8  -1   38.26    2.03
  -1   8   1   40.39    2.06
   1   8  -1   40.53    2.07
   0  -8   1   15.31    0.82
   0  -8  -1   14.90    0.82
   0  -8  -1   14.78    0.80
   0   8   1   14.88    0.86
   0   8  -1   15.76    0.87
   0   8  -1   13.89    0.82
  -1  -8  -1    0.25    0.12
   1  -8   1    0.02    0.10
  -1  -8  -1    0.17    0.10
   1   8   1    0.33    0.13
   1   8   1    0.23    0.13
   1   8   1    0.19    0.05
  -1   8  -1    0.21    0.14
  -2  -8  -1    0.35    0.12
  -2  -8  -1    0.44    0.15
   2  -8   1    0.34    0.17
   2   8   1    0.28    0.15
   2   8   1    0.39    0.16
  -2   8  -1    0.38    0.21
  -3  -8  -1    3.89    0.24
  -3  -8  -1    2.56    0.52
   3  -8   1    4.00    0.37
  -3  -8  -1    4.02    0.39
  -3  -8  -1    4.36    0.29
   3   8   1    4.34    0.46
  -3   8  -1    4.26    0.47
   4  -8   1   17.08    0.87
   4  -8   1   16.46    0.87
  -4  -8  -1   18.37    0.85
  -4  -8  -1   16.16    0.90
  -4  -8  -1   17.38    0.90
  -4   8  -1   17.84    0.85
   4   8   1   16.09    0.87
   4   8   1   15.67    0.92
   4   8   1   16.64    0.91
   4   8   1   15.31    0.89
   5  -8   1    1.97    0.17
  -5  -8  -1    1.72    0.14
  -5  -8  -1    2.04    0.20
  -5   8  -1    1.87    0.13
   5   8   1    1.54    0.19
   5   8   1    2.10    0.24
   5   8   1    1.89    0.16
   5   8   1    1.57    0.18
  -6  -9   1    2.11    0.18
   6  -9  -1    2.28    0.17
  -6  -9   1    2.45    0.21
   6  -9  -1    2.26    0.20
   6   9  -1    2.18    0.19
  -6   9   1    2.25    0.19
  -6   9   1    2.11    0.14
   5  -9  -1    0.89    0.13
  -5  -9   1    0.99    0.17
   5  -9  -1    0.90    0.17
  -5  -9   1    0.75    0.16
  -5   9   1    0.77    0.09
   5   9  -1    0.72    0.12
   5   9  -1    1.02    0.13
   5   9  -1    0.98    0.18
  -5   9   1    0.63    0.11
  -4  -9   1    1.67    0.28
  -4  -9   1    2.68    0.22
   4  -9  -1    2.10    0.33
  -4   9   1    2.17    0.43
  -4   9   1    2.59    0.20
  -4   9   1    1.93    0.30
  -4   9   1    2.60    0.17
   4   9  -1    1.83    0.36
  -3  -9   1    5.23    0.32
   3  -9  -1    5.31    0.46
   3  -9  -1    5.44    0.44
  -3  -9   1    4.55    0.40
  -3   9   1    4.72    0.31
   3   9  -1    5.65    0.49
  -3   9   1    5.19    0.51
  -2  -9   1    3.33    0.21
   2  -9  -1    3.42    0.32
   2  -9  -1    3.42    0.33
  -2  -9   1    3.42    0.29
   2   9  -1    3.29    0.22
   2   9  -1    3.51    0.35
  -2   9   1    3.46    0.37
   2   9  -1    3.90    0.40
   1  -9  -1  260.09   12.42
   1  -9  -1  235.17   12.32
  -1  -9   1  270.12   12.43
   1  -9  -1  265.62   12.45
   1   9  -1  266.10   12.50
  -1   9   1  257.55   12.49
   1   9  -1  251.78   12.46
   0  -9   1   88.44    4.03
   0  -9  -1   81.68    4.03
   0  -9  -1   78.63    3.94
   0  -9  -1   82.49    4.01
   0   9   1   83.20    4.08
   0   9  -1   83.73    4.08
   0   9   1   75.17    3.94
  -1  -9  -1    8.27    0.47
  -1  -9  -1    8.46    0.53
   1  -9   1    9.37    0.56
  -1  -9  -1    9.55    0.57
   1   9   1    9.14    0.59
   1   9   1    8.80    0.61
   1   9   1    8.21    0.44
  -2  -9  -1   15.63    0.88
  -2  -9  -1   12.05    0.75
  -2  -9  -1   14.47    0.84
   2   9   1   15.79    0.94
  -2   9  -1   14.95    0.97
   2   9   1   15.04    0.95
  -3  -9  -1    2.91    0.19
  -3  -9  -1    2.91    0.34
  -3  -9  -1    2.60    0.22
   3   9   1    3.08    0.39
  -3   9  -1    2.92    0.41
  -3   9  -1    2.70    0.19
  -4  -9  -1    0.85    0.15
   4  -9   1    0.93    0.12
  -4  -9  -1    0.96    0.11
   4   9   1    1.10    0.18
   4   9   1    0.86    0.17
   4   9   1    0.93    0.19
   4   9   1    0.92    0.14
  -4   9  -1    1.09    0.12
  -5  -9  -1   18.11    0.90
   5  -9   1   16.01    0.85
   5   9   1   17.04    0.89
   5   9   1   16.32    0.89
   5   9   1   17.02    0.90
  -5   9  -1   15.67    0.83
   5   9   1   17.93    0.87
   6 -10  -1    0.99    0.09
  -6 -10   1    0.88    0.13
   6 -10  -1    0.85    0.12
  -6 -10   1    0.83    0.13
  -6  10   1    0.65    0.12
   6  10  -1    0.95    0.12
  -5 -10   1    4.93    0.36
   5 -10  -1    5.36    0.38
  -5 -10   1    5.39    0.37
  -5 -10   1    4.47    0.37
   5 -10  -1    5.14    0.32
   5  10  -1    5.04    0.35
   5  10  -1    5.01    0.32
  -5  10   1    5.41    0.29
  -5  10   1    4.86    0.33
  -4 -10   1   -0.04    0.14
  -4 -10   1    0.16    0.09
   4 -10  -1   -0.07    0.14
  -4  10   1    0.08    0.15
  -4  10   1    0.13    0.05
  -4  10   1    0.06    0.20
  -4  10   1    0.11    0.09
   4  10  -1    0.15    0.19
  -3 -10   1    9.66    0.52
   3 -10  -1    9.47    0.66
  -3 -10   1    8.81    0.63
   3 -10  -1    9.28    0.68
  -3  10   1    9.56    0.76
   3  10  -1   10.00    0.72
  -3  10   1    9.28    0.52
   2 -10  -1   15.88    0.92
   2 -10  -1   16.71    0.96
  -2 -10   1   16.08    0.91
  -2 -10   1   15.51    0.80
  -2  10   1   16.21    1.02
   2  10  -1   15.77    0.98
   2  10  -1   15.44    0.81
   2  10  -1   15.26    0.96
   1 -10  -1  150.16    7.14
  -1 -10   1  150.42    7.12
   1 -10  -1  146.47    7.11
   1  10  -1  140.94    7.15
   1  10  -1  149.34    7.20
  -1  10   1  140.49    7.18
   0 -10  -1    2.51    0.17
   0 -10   1    2.45    0.27
   0 -10  -1    2.54    0.25
   0 -10  -1    2.17    0.25
   0  10   1    2.47    0.30
   0  10   1    2.55    0.17
   0  10  -1    2.56    0.29
  -1 -10  -1    8.90    0.57
  -1 -10  -1    8.57    0.48
   1 -10   1    8.94    0.57
  -1 -10  -1    8.57    0.54
   1  10   1    9.27    0.60
   1  10   1    8.65    0.45
   1  10   1    8.79    0.64
  -2 -10  -1    0.39    0.17
  -2 -10  -1    0.49    0.15
   2  10   1    0.49    0.20
   2  10   1    0.57    0.22
  -2  10  -1    0.49    0.24
  -2  10  -1    0.38    0.06
  -3 -10  -1    5.66    0.50
  -3 -10  -1    6.27    0.34
   3  10   1    6.04    0.58
  -3  10  -1    6.07    0.34
  -3  10  -1    5.93    0.61
  -4 -10  -1    9.79    0.51
  -4 -10  -1    9.47    0.56
   4 -10   1    8.94    0.52
   4 -10   1    8.75    0.56
   4  10   1    9.54    0.53
   4  10   1    9.64    0.58
  -4  10  -1    9.79    0.51
   5 -10   1    9.78    0.50
  -5 -10  -1    8.80    0.51
  -5 -10  -1    9.44    0.52
   5  10   1    9.24    0.50
   5  10   1    9.54    0.53
   5  10   1    9.45    0.53
  -5  10  -1    8.38    0.47
   6 -11  -1    7.26    0.41
  -6 -11   1    6.87    0.40
   6 -11  -1    7.31    0.39
  -6  11   1    7.09    0.41
   6  11  -1    7.61    0.41
   5 -11  -1    5.97    0.39
   5 -11  -1    6.37    0.36
  -5 -11   1    6.32    0.38
  -5 -11   1    5.24    0.37
   5  11  -1    5.44    0.40
   5  11  -1    5.91    0.35
  -5  11   1    5.59    0.36
  -5  11   1    5.82    0.32
  -4 -11   1    2.15    0.28
  -4 -11   1    3.03    0.22
   4 -11  -1    2.29    0.28
  -4 -11   1    1.83    0.33
  -4 -11   1    3.39    0.34
   4 -11  -1    2.63    0.39
  -4  11   1    3.05    0.40
   4  11  -1    2.39    0.42
  -4  11   1    3.24    0.23
  -4  11   1    1.98    0.42
  -4  11   1    3.24    0.20
   3 -11  -1   -0.03    0.14
  -3 -11   1    0.03    0.13
   3 -11  -1   -0.05    0.14
  -3 -11   1    0.05    0.07
  -3  11   1    0.01    0.18
  -3  11   1    0.00    0.07
  -3  11   1    0.06    0.05
   3  11  -1   -0.09    0.13
   3  11  -1    0.00    0.05
   3  11  -1    0.01    0.16
  -2 -11   1    5.52    0.42
  -2 -11   1    5.58    0.31
   2 -11  -1    5.70    0.46
   2 -11  -1    5.13    0.42
  -2  11   1    5.63    0.51
   2  11  -1    5.73    0.33
   2  11  -1    5.75    0.48
   2  11  -1    5.74    0.52
  -2  11   1    4.94    0.32
  -1 -11   1   14.34    0.81
   1 -11  -1   13.07    0.79
   1 -11  -1   13.64    0.82
  -1  11   1   13.54    0.87
   1  11  -1   13.86    0.89
   1  11  -1   13.18    0.82
   0 -11  -1   11.63    0.72
   0 -11  -1   12.13    0.63
   0 -11  -1   12.31    0.74
   0 -11   1   12.70    0.74
   0  11   1   12.23    0.64
   0  11   1   12.05    0.79
   0  11  -1   12.37    0.79
  -1 -11  -1   52.34    2.61
  -1 -11  -1   52.25    2.52
   1 -11   1   54.03    2.65
  -1 -11  -1   52.09    2.63
   1  11   1   50.63    2.66
   1  11   1   50.47    2.50
   1  11   1   54.78    2.74
  -1  11  -1   47.00    2.49
  -2 -11  -1   20.05    1.06
  -2 -11  -1   20.71    1.19
  -2  11  -1   22.35    1.33
  -2  11  -1   18.97    1.02
   2  11   1   21.38    1.26
   2  11   1   21.60    1.30
  -3 -11  -1   23.00    1.40
  -3  11  -1   23.70    1.55
  -3  11  -1   24.55    1.20
   3  11   1   25.43    1.50
   4 -11   1    8.48    0.48
   4 -11   1    8.38    0.52
  -4 -11  -1    8.33    0.51
   4  11   1    8.67    0.54
  -4  11  -1    8.59    0.47
   4  11   1    8.62    0.49
   5 -11   1    0.03    0.06
  -5 -11  -1    0.21    0.11
  -5 -11  -1    0.08    0.09
   5  11   1    0.23    0.10
  -5  11  -1    0.11    0.04
   5  11   1    0.19    0.08
   6 -12  -1    2.52    0.19
   6 -12  -1    2.13    0.15
  -6 -12   1    2.87    0.19
  -6  12   1    2.33    0.18
   5 -12  -1    0.96    0.12
   5 -12  -1    0.87    0.15
  -5 -12   1    0.76    0.15
  -5 -12   1    0.98    0.14
  -5  12   1    1.12    0.11
  -5  12   1    1.15    0.14
  -5  12   1    1.08    0.15
  -4 -12   1   20.18    1.09
  -4 -12   1   20.98    1.08
   4 -12  -1   20.23    1.06
  -4 -12   1   20.21    1.10
   4 -12  -1   20.88    1.11
   4  12  -1   19.51    1.06
  -4  12   1   21.86    1.08
  -4  12   1   22.41    1.04
  -3 -12   1    2.26    0.32
   3 -12  -1    2.23    0.34
   3 -12  -1    2.62    0.38
  -3 -12   1    2.68    0.20
   3  12  -1    2.16    0.37
  -3  12   1    2.32    0.17
  -3  12   1    2.05    0.40
   3  12  -1    2.93    0.39
  -3  12   1    2.70    0.21
  -2 -12   1    2.49    0.17
  -2 -12   1    2.78    0.29
   2 -12  -1    2.57    0.35
   2  12  -1    2.50    0.36
  -2  12   1    2.29    0.20
   2  12  -1    2.67    0.19
  -2  12   1    2.73    0.36
   2  12  -1    2.73    0.34
  -1 -12   1   22.93    1.24
   1 -12  -1   22.69    1.24
   1 -12  -1   23.17    1.26
   1  12  -1   23.47    1.34
   1  12  -1   21.77    1.25
  -1  12   1   19.56    1.30
   0 -12  -1    0.15    0.12
   0 -12   1    0.08    0.13
   0 -12  -1    0.15    0.12
   0 -12  -1    0.08    0.06
   0  12  -1    0.04    0.13
   0  12   1   -0.04    0.11
   0  12   1    0.10    0.07
   0  12  -1    0.08    0.06
  -1 -12  -1   18.06    0.93
  -1 -12  -1   17.57    1.05
  -1 -12  -1   17.71    1.03
   1 -12   1   19.58    1.08
   1  12   1   16.97    1.07
   1  12   1   19.98    1.17
  -1  12  -1   17.66    0.91
   1  12   1   18.88    0.92
  -2 -12  -1   19.30    1.00
  -2 -12  -1   19.05    1.13
   2  12   1   18.54    1.19
  -2  12  -1   18.60    0.96
  -2  12  -1   19.93    1.28
   2  12   1   19.54    1.25
  -3  12  -1  100.58    4.39
   3  12   1   79.33    4.72
   4 -12   1    0.13    0.12
   4 -12   1    0.15    0.07
  -4 -12  -1    0.27    0.10
   4  12   1    0.09    0.13
   4  12   1   -0.02    0.10
  -4  12  -1    0.27    0.08
  -5 -12  -1    0.54    0.11
  -5 -12  -1    0.64    0.11
   5 -12   1    0.55    0.08
   5  12   1    0.72    0.12
   5  12   1    0.63    0.09
  -6 -13   1    0.49    0.10
   6 -13  -1    0.62    0.13
  -6  13   1    0.47    0.08
   5 -13  -1    3.91    0.28
  -5 -13   1    3.77    0.28
  -5 -13   1    4.15    0.30
   5 -13  -1    3.92    0.26
  -5  13   1    3.51    0.27
  -5  13   1    3.81    0.23
   4 -13  -1   16.85    0.88
  -4 -13   1   17.66    0.91
  -4 -13   1   15.34    0.87
  -4 -13   1   16.00    0.90
   4 -13  -1   17.44    0.93
  -4  13   1   16.96    0.89
   4  13  -1   16.14    0.88
  -4  13   1   18.64    0.85
  -3 -13   1   11.25    0.80
   3 -13  -1   11.87    0.85
  -3 -13   1   12.76    0.65
  -3  13   1   12.62    0.63
   3  13  -1   12.60    0.89
  -3  13   1   12.56    0.66
   3  13  -1   10.46    0.86
  -3  13   1   12.06    0.95
   2 -13  -1    5.81    0.51
  -2 -13   1    5.51    0.46
   2  13  -1    5.96    0.35
   2  13  -1    5.88    0.52
  -2  13   1    5.16    0.53
   2  13  -1    6.01    0.57
  -2  13   1    5.05    0.34
  -1 -13   1   41.11    2.18
   1 -13  -1   41.74    2.19
   1 -13  -1   40.32    2.17
   1  13  -1   42.77    2.28
   0 -13   1    1.00    0.22
   0 -13  -1    0.60    0.17
   0 -13  -1    0.57    0.20
   0 -13  -1    0.89    0.11
   0  13  -1    0.85    0.11
   0  13   1    0.72    0.24
   0  13  -1    0.77    0.22
   0  13   1    0.82    0.12
   1 -13   1   16.38    1.00
  -1 -13  -1   13.76    0.95
  -1 -13  -1   17.99    0.86
  -1 -13  -1   15.83    0.98
   1  13   1   17.24    0.84
   1  13   1   16.64    1.08
  -1  13  -1   16.42    0.84
  -2 -13  -1   55.59    2.55
   2  13   1   49.07    2.81
  -2  13  -1   52.65    2.51
   2  13   1   45.49    2.74
  -2  13  -1   53.71    2.87
   3 -13   1   19.05    1.00
  -3 -13  -1   18.54    0.99
  -3 -13  -1   16.98    0.99
  -3 -13  -1   18.62    0.98
   3 -13   1   18.83    0.96
  -3  13  -1   20.21    0.94
   3  13   1   18.21    0.96
   3  13   1   17.03    1.00
   4 -13   1   13.59    0.69
  -4 -13  -1   14.48    0.72
   4 -13   1   13.39    0.73
  -4 -13  -1   13.04    0.70
   4  13   1   12.46    0.71
   4  13   1   13.25    0.69
  -4  13  -1   11.93    0.66
  -4  13  -1   11.66    0.64
  -5 -13  -1    0.62    0.09
  -5 -13  -1    0.77    0.11
   5 -13   1    0.46    0.13
   5  13   1    0.74    0.08
   5  13   1    0.73    0.11
   5 -14  -1    0.07    0.07
  -5 -14   1    0.13    0.10
  -5 -14   1    0.29    0.10
   5 -14  -1    0.16    0.10
  -5  14   1    0.13    0.05
  -4 -14   1    4.95    0.36
  -4 -14   1    4.62    0.33
   4 -14  -1    5.41    0.37
   4 -14  -1    4.73    0.31
  -4  14   1    5.29    0.29
   4  14  -1    4.54    0.32
  -4  14   1    4.72    0.32
  -3 -14   1    0.06    0.15
  -3 -14   1    0.01    0.06
   3 -14  -1   -0.01    0.17
  -3  14   1    0.14    0.10
   3  14  -1   -0.03    0.15
   3  14  -1   -0.10    0.17
  -3  14   1    0.18    0.22
  -3  14   1    0.08    0.07
  -2 -14   1    0.71    0.26
   2 -14  -1    0.43    0.20
  -2  14   1    0.69    0.09
   2  14  -1    0.51    0.24
   2  14  -1    0.77    0.12
  -2  14   1    0.36    0.23
  -2  14   1    0.81    0.13
   2  14  -1    0.40    0.22
  -1 -14   1    0.19    0.14
   1 -14  -1    0.14    0.18
   1 -14  -1    0.23    0.18
   1  14  -1    0.05    0.17
  -1  14   1   -0.01    0.09
   0 -14   1   -0.04    0.15
   0 -14  -1    0.09    0.14
   0 -14  -1    0.50    0.17
   0  14   1    0.28    0.21
   0  14  -1    0.15    0.22
   0  14   1    0.16    0.07
   0  14  -1    0.08    0.08
  -1 -14  -1    3.70    0.25
   1 -14   1    3.80    0.39
  -1  14  -1    4.12    0.25
   1  14   1    3.58    0.45
   1  14   1    3.69    0.23
  -2 -14  -1    3.24    0.24
   2  14   1    2.31    0.40
  -2  14  -1    3.39    0.22
   2  14   1    3.25    0.45
  -2  14  -1    2.88    0.18
  -2  14  -1    3.02    0.45
   3 -14   1    2.19    0.22
   3 -14   1    2.72    0.22
  -3 -14  -1    2.22    0.24
  -3 -14  -1    2.36    0.27
  -3 -14  -1    2.34    0.21
   3  14   1    2.54    0.27
   3  14   1    2.45    0.22
  -3  14  -1    2.32    0.16
  -3  14  -1    2.64    0.20
  -4 -14  -1    0.77    0.12
  -4 -14  -1    0.52    0.13
   4 -14   1    0.55    0.11
   4 -14   1    0.57    0.14
  -4  14  -1    0.55    0.09
  -4  14  -1    0.61    0.07
   4  14   1    0.58    0.11
   4  14   1    0.46    0.14
  -5 -14  -1    0.88    0.11
  -5 -14  -1    0.94    0.10
   5  14   1    0.81    0.09
  -5 -15   1    0.59    0.10
   5 -15  -1    0.48    0.11
  -5 -15   1    0.48    0.11
   5 -15  -1    0.58    0.09
  -5  15   1    0.43    0.12
  -5  15   1    0.49    0.07
   4 -15  -1    0.61    0.09
   4 -15  -1    0.65    0.14
  -4 -15   1    0.60    0.14
  -4  15   1    0.79    0.09
  -4  15   1    0.51    0.11
   3 -15  -1    0.06    0.11
  -3 -15   1    0.12    0.13
  -3 -15   1    0.09    0.13
   3 -15  -1    0.10    0.11
  -3  15   1    0.14    0.07
   3  15  -1   -0.04    0.09
  -3  15   1    0.09    0.08
  -3  15   1    0.09    0.10
  -2 -15   1   55.64    2.91
   2 -15  -1   57.76    2.95
  -2  15   1   53.67    2.68
   2  15  -1   53.29    2.94
   2  15  -1   59.97    2.73
   2  15  -1   57.06    3.02
  -2  15   1   50.30    3.00
   1 -15  -1   35.59    2.00
  -1 -15   1   38.80    2.03
   1  15  -1   35.42    1.89
  -1  15   1   37.44    1.86
   1  15  -1   39.47    2.13
   0 -15   1   12.56    0.81
   0 -15  -1   10.90    0.77
   0  15   1   12.20    0.90
   0  15   1   12.40    0.65
   0  15  -1   11.75    0.86
   0  15  -1   11.60    0.61
   0  15  -1   12.01    0.65
  -1 -15  -1    2.88    0.20
   1  15   1    1.70    0.34
   1  15   1    2.63    0.18
  -1  15  -1    2.65    0.21
  -1  15  -1    2.99    0.42
  -1  15  -1    2.75    0.17
  -2 -15  -1   25.65    1.27
  -2  15  -1   26.68    1.25
  -2  15  -1   21.04    1.55
  -2  15  -1   24.60    1.22
   3 -15   1    2.05    0.24
  -3 -15  -1    2.58    0.24
  -3 -15  -1    1.76    0.23
   3  15   1    2.21    0.20
  -3  15  -1    2.14    0.15
   3  15   1    1.86    0.22
  -3  15  -1    2.36    0.19
   4 -15   1   19.05    1.03
  -4 -15  -1   19.38    1.02
  -4 -15  -1   20.81    1.03
   4  15   1   20.30    1.00
  -4  15  -1   19.53    0.97
   5  15   1    0.05    0.05
  -5 -16   1    8.54    0.47
   5 -16  -1    9.25    0.49
  -5 -16   1    9.04    0.47
  -5  16   1    7.77    0.47
  -4 -16   1    0.13    0.12
   4 -16  -1    0.47    0.13
   4 -16  -1    0.28    0.09
  -4  16   1    0.44    0.15
  -4  16   1    0.28    0.09
  -4  16   1    0.48    0.07
   3 -16  -1    0.48    0.13
  -3 -16   1    0.52    0.15
  -3 -16   1    0.35    0.14
  -3  16   1    0.42    0.16
  -3  16   1    0.40    0.12
   3  16  -1    0.11    0.10
  -3  16   1    0.43    0.08
  -3  16   1    0.36    0.11
  -2 -16   1   30.37    1.76
  -2  16   1   31.85    1.54
   2  16  -1   34.10    1.58
   2  16  -1   33.21    1.90
  -2  16   1   26.51    1.88
   1 -16  -1   21.31    1.37
  -1 -16   1   24.32    1.41
  -1  16   1   24.36    1.25
   1  16  -1   24.65    1.25
   1  16  -1   26.30    1.52
   0 -16   1   35.33    1.98
   0  16   1   38.31    1.80
   0  16   1   33.30    2.04
   0  16  -1   35.36    2.04
   0  16  -1   35.62    1.79
   0  16  -1   37.36    1.76
  -1 -16  -1    1.39    0.13
  -1  16  -1    1.46    0.17
  -1  16  -1    1.47    0.11
   1  16   1    0.63    0.25
  -1  16  -1    1.49    0.39
   1  16   1    1.22    0.13
  -2 -16  -1   25.92    1.39
  -2 -16  -1   23.85    1.36
   2 -16   1   27.38    1.40
  -2 -16  -1   27.83    1.35
  -2  16  -1   27.07    1.31
  -2  16  -1   28.70    1.35
   2  16   1   26.08    1.35
  -3 -16  -1   39.69    1.88
  -3 -16  -1   37.54    1.90
   3 -16   1   38.69    1.91
  -3  16  -1   35.64    1.85
   3  16   1   37.55    1.86
  -3  16  -1   36.11    1.82
   4 -16   1    0.54    0.11
  -4 -16  -1    0.63    0.13
  -4  16  -1    0.35    0.05
   4  16   1    0.62    0.09
   5 -17  -1    0.29    0.07
  -5 -17   1    0.52    0.09
  -5  17   1    0.43    0.09
   4 -17  -1    7.40    0.46
  -4 -17   1    8.21    0.46
  -4  17   1    6.98    0.40
  -4  17   1    8.08    0.48
  -3 -17   1    0.19    0.14
  -3 -17   1   -0.10    0.12
   3 -17  -1   -0.03    0.10
  -3  17   1    0.05    0.09
   3  17  -1    0.13    0.09
  -3  17   1    0.04    0.13
  -3  17   1    0.07    0.05
  -2 -17   1    5.88    0.41
  -2 -17   1    4.98    0.40
   2  17  -1    5.20    0.35
   2  17  -1    5.51    0.38
   2  17  -1    6.01    0.36
  -2  17   1    5.51    0.40
  -2  17   1    5.70    0.37
  -1 -17   1    0.03    0.18
   1  17  -1    0.16    0.10
   1  17  -1    0.11    0.21
  -1  17   1    0.16    0.10
   0 -17   1    0.23    0.21
   0  17   1    0.20    0.20
   0  17   1    0.16    0.08
   0  17  -1    0.10    0.06
   0  17  -1    0.16    0.20
  -1 -17  -1    2.78    0.32
  -1  17  -1    2.75    0.22
  -1  17  -1    2.38    0.17
   1  17   1    3.10    0.28
  -1  17  -1    2.06    0.44
   1  17   1    2.52    0.46
  -2 -17  -1    0.56    0.10
   2 -17   1    1.10    0.18
  -2 -17  -1    0.75    0.17
   2  17   1    0.78    0.14
  -2  17  -1    0.78    0.11
  -2  17  -1    0.89    0.10
  -3 -17  -1    2.26    0.22
  -3 -17  -1    1.99    0.21
   3 -17   1    1.94    0.20
  -3  17  -1    1.82    0.16
  -3  17  -1    1.82    0.13
   3  17   1    1.87    0.17
  -4 -17  -1    0.87    0.12
   4 -17   1    0.96    0.12
  -4  17  -1    0.59    0.07
   4  17   1    0.77    0.09
  -5 -18   1    2.85    0.20
   4 -18  -1    0.39    0.09
  -4 -18   1    0.62    0.10
  -4 -18   1    0.62    0.11
  -4  18   1    0.46    0.06
  -4  18   1    0.63    0.13
  -3 -18   1    1.03    0.18
  -3 -18   1    1.13    0.17
  -3  18   1    1.11    0.11
  -3  18   1    1.32    0.19
  -3  18   1    1.20    0.15
  -2 -18   1    1.89    0.23
  -2 -18   1    1.51    0.21
   2  18  -1    1.40    0.15
   2  18  -1    1.64    0.17
  -2  18   1    1.56    0.21
   2  18  -1    1.73    0.19
  -2  18   1    1.36    0.16
  -2  18   1    1.75    0.19
  -1 -18   1    8.54    0.53
   1 -18  -1    7.76    0.53
  -1 -18   1    8.86    0.55
  -1  18   1    8.27    0.48
   1  18  -1    8.50    0.50
   1  18  -1    8.36    0.49
  -1  18   1    8.49    0.50
  -1  18   1    8.80    0.51
  -1  18   1    7.95    0.52
   0 -18  -1    3.01    0.31
   0 -18   1    2.84    0.30
   0  18   1    3.19    0.24
   0  18   1    2.67    0.26
   0  18  -1    2.93    0.20
   0  18  -1    2.98    0.25
   0  18   1    3.02    0.24
  -1 -18  -1    0.20    0.14
  -1 -18  -1    0.06    0.14
   1 -18   1    0.27    0.15
   1  18   1    0.13    0.10
  -1  18  -1    0.06    0.08
  -1  18  -1    0.12    0.07
  -2 -18  -1    1.41    0.21
  -2 -18  -1    1.50    0.19
   2 -18   1    1.75    0.20
  -2  18  -1    1.66    0.13
   2  18   1    1.62    0.16
  -2  18  -1    1.79    0.18
  -3 -18  -1    1.20    0.14
   3 -18   1    1.03    0.17
  -3 -18  -1    1.00    0.16
   3  18   1    1.17    0.12
  -3  18  -1    1.05    0.10
  -4 -18  -1    6.34    0.36
  -4 -18  -1    5.87    0.38
   4  18   1    6.27    0.34
  -4 -19   1    3.36    0.25
  -4 -19   1    3.49    0.25
   4 -19  -1    3.36    0.25
  -4  19   1    3.54    0.26
  -4  19   1    3.65    0.23
  -3 -19   1    0.48    0.14
  -3 -19   1    0.23    0.11
  -3  19   1    0.34    0.08
  -3  19   1    0.36    0.13
  -3  19   1    0.35    0.08
  -2 -19   1    5.25    0.40
  -2 -19   1    5.21    0.39
  -2  19   1    5.14    0.38
   2  19  -1    5.15    0.33
  -2  19   1    5.62    0.34
  -2  19   1    5.50    0.35
   2  19  -1    5.22    0.36
  -1 -19   1   22.73    1.24
   1 -19  -1   22.46    1.26
  -1 -19   1   25.52    1.28
   1  19  -1   24.44    1.21
  -1  19   1   23.36    1.20
   1  19  -1   22.10    1.22
  -1  19   1   25.20    1.23
  -1  19   1   22.71    1.26
   1  19  -1   25.66    1.23
  -1  19   1   23.45    1.23
   0 -19   1   21.94    1.18
   0 -19  -1   21.96    1.18
   0  19  -1   21.34    1.13
   0  19   1   22.14    1.12
   0  19  -1   21.19    1.10
   0  19   1   21.78    1.14
   0  19   1   22.19    1.12
   1 -19   1    0.09    0.15
  -1 -19  -1   -0.14    0.13
  -1 -19  -1    0.04    0.14
  -1  19  -1    0.03    0.06
  -1  19  -1    0.04    0.09
   1  19   1    0.06    0.07
  -1  19  -1    0.05    0.07
  -2 -19  -1    0.11    0.13
  -2 -19  -1    0.10    0.13
  -2  19  -1    0.07    0.07
  -2  19  -1    0.17    0.06
   2  19   1    0.14    0.10
  -3 -19  -1    0.79    0.12
  -3 -19  -1    1.03    0.14
  -3  19  -1    1.05    0.10
   3  19   1    1.12    0.11
  -3  19  -1    0.80    0.08
  -4 -19  -1    0.38    0.08
   4 -20  -1    1.02    0.12
  -4 -20   1    1.37    0.14
  -4 -20   1    1.14    0.13
  -4  20   1    1.23    0.11
  -4  20   1    1.21    0.14
  -3 -20   1    5.97    0.36
  -3 -20   1    4.91    0.33
  -3  20   1    4.45    0.32
  -3  20   1    5.44    0.32
  -3  20   1    4.85    0.30
  -2 -20   1    3.86    0.32
  -2 -20   1    3.69    0.31
  -2  20   1    3.49    0.24
  -2  20   1    3.72    0.27
   2  20  -1    3.41    0.25
   2  20  -1    3.76    0.29
  -2  20   1    3.81    0.30
  -1 -20   1    2.14    0.24
   1 -20  -1    2.32    0.26
  -1 -20   1    2.36    0.27
  -1  20   1    2.41    0.23
   1  20  -1    2.25    0.21
  -1  20   1    2.55    0.22
   1  20  -1    2.24    0.23
   0 -20   1    1.71    0.24
   0 -20  -1    1.75    0.23
   0  20  -1    1.44    0.17
   0  20   1    1.51    0.17
   0  20   1    1.77    0.18
  -1 -20  -1    9.76    0.57
  -1 -20  -1    8.93    0.54
   1 -20   1    8.87    0.56
  -1  20  -1    8.00    0.46
   1  20   1    9.14    0.50
  -1  20  -1    8.63    0.50
  -2 -20  -1    0.80    0.16
  -2 -20  -1    0.76    0.15
  -2  20  -1    0.75    0.08
   2  20   1    1.01    0.13
  -3 -20  -1    1.42    0.16
  -3 -20  -1    1.49    0.14
  -3  20  -1    1.65    0.12
   3  20   1    1.75    0.15
  -4  21   1    0.14    0.09
  -3 -21   1    0.01    0.08
  -3  21   1   -0.02    0.09
  -3  21   1    0.02    0.07
  -3  21   1    0.21    0.08
  -2 -21   1    3.30    0.29
  -2 -21   1    3.01    0.27
  -2  21   1    3.30    0.24
  -2  21   1    3.05    0.23
   2  21  -1    3.00    0.26
  -1 -21   1    1.08    0.16
  -1 -21   1    0.92    0.19
   1 -21  -1    1.20    0.18
  -1  21   1    1.10    0.12
  -1  21   1    0.88    0.15
   1  21  -1    0.92    0.15
   1  21  -1    1.04    0.13
   0 -21  -1    0.03    0.13
   0 -21   1    0.17    0.14
   0  21   1    0.00    0.10
   0  21   1    0.02    0.06
   0  21  -1    0.00    0.07
  -1 -21  -1   10.32    0.59
  -1 -21  -1    9.58    0.56
   1 -21   1   10.00    0.59
  -1  21  -1    8.60    0.49
   1  21   1   10.52    0.54
  -1  21  -1    9.20    0.53
  -2 -21  -1    0.40    0.12
  -2 -21  -1    0.25    0.11
   2  21   1    0.23    0.09
  -2  21  -1    0.28    0.06
  -3 -21  -1    3.43    0.24
   3  21   1    3.41    0.21
  -3 -22   1    7.94    0.44
  -3  22   1    6.89    0.41
  -3  22   1    7.91    0.41
  -2 -22   1    0.70    0.13
  -2 -22   1    1.06    0.16
   2  22  -1    0.88    0.12
  -2  22   1    1.17    0.11
  -2  22   1    1.27    0.14
  -1 -22   1    0.14    0.13
   1 -22  -1    0.17    0.08
  -1 -22   1    0.12    0.12
   1  22  -1    0.18    0.09
   1  22  -1    0.12    0.10
  -1  22   1    0.08    0.09
  -1  22   1    0.09    0.10
   0 -22  -1    1.29    0.19
   0 -22   1    1.34    0.19
   0  22  -1    0.88    0.14
   0  22   1    0.86    0.12
   0  22  -1    1.16    0.13
   0  22   1    1.13    0.15
  -1 -22  -1    0.05    0.08
  -1 -22  -1    0.18    0.09
   1 -22   1   -0.01    0.11
   1  22   1    0.16    0.09
  -1  22  -1    0.24    0.09
  -2 -22  -1    0.38    0.09
  -2 -22  -1    0.29    0.08
   2  22   1    0.39    0.09
  -3 -23   1    2.70    0.20
  -3  23   1    2.97    0.18
  -2 -23   1    6.54    0.44
  -2 -23   1    7.46    0.44
  -2  23   1    8.49    0.44
   2  23  -1    8.59    0.44
  -2  23   1    7.85    0.42
   1 -23  -1    0.19    0.08
  -1 -23   1    0.31    0.10
  -1 -23   1    0.15    0.10
   1  23  -1    0.25    0.08
  -1  23   1    0.09    0.08
  -1  23   1    0.15    0.07
   1  23  -1    0.21    0.06
   0 -23  -1    0.45    0.13
   0 -23   1    0.43    0.13
   0  23  -1    0.39    0.09
   0  23  -1    0.44    0.10
   0  23   1    0.49    0.11
   0  23   1    0.53    0.08
  -1 -23  -1    0.48    0.11
   1 -23   1    0.68    0.13
  -1 -23  -1    0.67    0.13
  -1  23  -1    0.88    0.10
   1  23   1    0.77    0.09
  -2 -23  -1    0.06    0.08
  -2 -23  -1   -0.08    0.07
   2  23   1    0.11    0.05
  -2 -24   1    0.12    0.09
  -2 -24   1   -0.04    0.09
  -2  24   1    0.05    0.06
   2  24  -1   -0.07    0.06
  -2  24   1    0.02    0.04
   1 -24  -1    1.73    0.17
  -1 -24   1    1.65    0.18
   1  24  -1    1.40    0.14
  -1  24   1    1.64    0.16
  -1  24   1    1.77    0.15
   0 -24   1    3.71    0.27
   0 -24  -1    3.55    0.26
   0  24  -1    3.19    0.22
   0  24  -1    3.61    0.23
   0  24   1    3.18    0.21
   0  24   1    3.79    0.24
   1 -24   1   -0.01    0.07
  -1 -24  -1   -0.02    0.08
   1  24   1   -0.03    0.04
  -1  24  -1    0.01    0.06
  -1  24  -1    0.01    0.05
  -1 -25   1    2.45    0.21
  -1  25   1    3.34    0.20
  -1  25   1    3.40    0.19
   1  25  -1    3.61    0.21
   0 -25  -1    0.23    0.09
   0 -25   1    0.11    0.06
   0  25   1    0.24    0.06
   0  25  -1    0.21    0.07
   0  25   1    0.19    0.08
   7   0  -2    0.00    0.03
  -7   0   2   -0.01    0.08
   6   0  -2   11.04    0.56
   6   0  -2    9.78    0.58
   6   0  -2    9.26    0.58
  -6   0   2   10.12    0.57
  -5   0   2   -0.06    0.12
  -4   0   2    0.64    0.23
  -4   0   2    0.28    0.14
   4   0  -2    0.37    0.15
  -3   0   2   -0.04    0.06
   3   0  -2    0.11    0.10
   3   0  -2    0.00    0.05
  -3   0   2    0.05    0.06
  -3   0   2    0.08    0.14
   2   0  -2  100.53    5.22
  -2   0   2  114.08    5.30
   1   0  -2   -0.12    0.09
   1   0  -2    0.06    0.05
  -1   0   2    0.05    0.10
   1   0  -2    0.12    0.10
   0   0   2   14.40    0.78
   0   0  -2   15.02    0.72
  -1   0  -2    0.18    0.10
   1   0   2   -0.01    0.09
   2   0   2  177.49    8.45
  -2   0  -2  169.66    8.45
  -3   0  -2    0.02    0.11
   3   0   2   -0.07    0.13
   4   0   2    0.17    0.10
  -4   0  -2    0.14    0.07
   4   0   2    0.16    0.12
   4   0   2    0.09    0.13
   4   0   2    0.19    0.08
   5   0   2    0.09    0.10
   5   0   2    0.03    0.11
  -5   0  -2    0.00    0.04
  -7  -1   2    2.16    0.17
   7  -1  -2    2.10    0.15
   7   1  -2    2.38    0.15
  -6  -1   2    6.78    0.43
   6  -1  -2    7.18    0.38
   6  -1  -2    6.60    0.43
   6  -1  -2    6.07    0.44
   6   1  -2    7.02    0.39
   6   1  -2    6.66    0.43
  -6   1   2    5.87    0.40
   6   1  -2    6.50    0.41
  -5  -1   2    0.34    0.17
  -5   1   2    0.55    0.10
  -5   1   2    0.48    0.18
   4  -1  -2    3.18    0.31
  -4  -1   2    3.06    0.40
  -4  -1   2    3.37    0.31
  -4   1   2    3.55    0.32
  -4   1   2    3.13    0.40
  -3  -1   2   11.22    0.62
   3  -1  -2   12.12    0.71
   3  -1  -2   12.81    0.71
  -3  -1   2   12.69    0.79
  -3  -1   2   11.85    0.68
   3  -1  -2   11.56    0.60
   3   1  -2   11.95    0.61
  -3   1   2   11.54    0.63
  -3   1   2   13.17    0.81
  -3   1   2   11.85    0.69
   2  -1  -2    0.24    0.11
  -2  -1   2    0.71    0.18
   2  -1  -2    0.27    0.10
  -2   1   2    0.38    0.15
   2   1  -2    0.34    0.13
   1  -1  -2  578.95   28.55
  -1  -1   2  588.78   28.58
   1   1  -2  607.25   28.49
  -1   1   2  603.34   28.58
   1   1  -2  609.46   28.61
   1   1  -2  591.36   28.56
   0  -1  -2   12.13    0.60
   0  -1   2   11.37    0.64
   0   1   2   12.46    0.66
   0   1   2   12.26    0.72
   0   1  -2   11.91    0.59
   1  -1   2   12.19    0.67
  -1  -1  -2   11.46    0.67
  -1   1  -2   11.27    0.66
   1   1   2   11.80    0.67
   1   1   2   11.95    0.74
   2  -1   2    6.02    0.44
  -2  -1  -2    5.57    0.42
   2   1   2    5.83    0.43
  -2   1  -2    5.41    0.43
   3  -1   2    2.28    0.34
  -3  -1  -2    2.31    0.16
  -3  -1  -2    2.33    0.33
   3   1   2    3.17    0.39
  -3   1  -2    2.15    0.31
   4  -1   2   15.39    0.85
  -4  -1  -2   16.21    0.81
   4  -1   2   14.24    0.80
   4  -1   2   14.87    0.84
   4  -1   2   14.77    0.85
   4   1   2   14.93    0.81
   4   1   2   16.26    0.86
   4   1   2   15.22    0.86
   4   1   2   15.78    0.86
  -4   1  -2   16.35    0.80
   5  -1   2    3.83    0.25
   5  -1   2    3.85    0.27
   5  -1   2    3.82    0.29
  -5  -1  -2    3.57    0.22
  -5   1  -2    3.59    0.21
   5   1   2    4.08    0.30
   5   1   2    4.14    0.31
   7  -2  -2    1.22    0.10
  -7  -2   2    1.36    0.14
   7   2  -2    1.35    0.11
   6  -2  -2    8.76    0.47
   6  -2  -2    8.40    0.50
  -6  -2   2    7.98    0.51
   6   2  -2    9.00    0.47
   6   2  -2    8.58    0.50
  -6   2   2    7.55    0.48
  -5  -2   2    4.31    0.41
  -5   2   2    3.97    0.39
  -5   2   2    4.38    0.26
   4  -2  -2   33.78    1.88
  -4  -2   2   35.38    1.77
  -4  -2   2   36.11    1.87
  -4   2   2   35.10    1.87
  -4   2   2   36.38    2.02
  -3  -2   2   30.53    1.54
  -3  -2   2   30.87    1.60
   3  -2  -2   32.54    1.63
  -3  -2   2   31.87    1.71
   3  -2  -2   31.89    1.64
  -3   2   2   28.58    1.54
   3   2  -2   31.63    1.52
  -3   2   2   30.69    1.60
  -3   2   2   33.11    1.74
   3   2  -2   29.70    1.65
  -2  -2   2    5.02    0.27
  -2  -2   2    4.74    0.34
  -2  -2   2    5.09    0.39
   2  -2  -2    4.71    0.34
   2   2  -2    4.87    0.37
  -2   2   2    5.15    0.40
  -1  -2   2   74.50    3.69
  -1   2   2   72.80    3.67
   1   2  -2   75.16    3.66
   1   2  -2   74.90    3.58
   0  -2   2    1.23    0.20
   0  -2  -2    1.28    0.18
   0  -2  -2    1.20    0.09
   0   2   2    1.31    0.21
   0   2   2    1.34    0.17
  -1  -2  -2   42.13    2.14
   1  -2   2   43.34    2.13
   1   2   2   44.31    2.14
   1   2   2   43.70    2.21
  -1   2  -2   38.44    2.11
   2  -2   2    4.80    0.38
  -2  -2  -2    4.56    0.38
   2   2   2    4.35    0.42
   2   2   2    4.90    0.38
  -3  -2  -2   11.66    0.62
   3  -2   2   12.81    0.80
  -3  -2  -2   12.00    0.80
  -3   2  -2   11.50    0.80
   3   2   2   12.67    0.79
  -4  -2  -2    3.82    0.23
  -4  -2  -2    4.24    0.26
   4  -2   2    3.78    0.31
   4  -2   2    3.90    0.31
   4  -2   2    3.39    0.32
  -4   2  -2    3.75    0.24
   4   2   2    3.65    0.32
   4   2   2    3.68    0.28
   4   2   2    3.95    0.33
   4   2   2    3.95    0.32
   5  -2   2    0.78    0.10
   5  -2   2    1.14    0.15
  -5  -2  -2    0.84    0.08
   5  -2   2    0.87    0.13
   5   2   2    0.69    0.12
   5   2   2    0.90    0.13
  -5   2  -2    0.88    0.08
   7  -3  -2    2.61    0.16
  -7  -3   2    2.73    0.18
   7   3  -2    2.70    0.17
  -6  -3   2   28.04    1.41
   6  -3  -2   26.57    1.37
   6   3  -2   27.45    1.41
   6   3  -2   27.83    1.38
  -5  -3   2   37.22    1.83
   5  -3  -2   38.42    1.86
   5  -3  -2   35.83    1.80
   5   3  -2   35.17    1.81
   5   3  -2   37.34    1.84
  -5   3   2   32.69    1.94
   4  -3  -2   18.72    1.12
  -4  -3   2   19.40    1.00
  -4  -3   2   20.28    1.11
  -4   3   2   18.27    1.09
  -4   3   2   20.35    1.26
  -3  -3   2   14.14    0.76
   3  -3  -2   14.46    0.86
   3  -3  -2   14.72    0.85
  -3  -3   2   14.30    0.82
  -3  -3   2   15.31    0.92
  -3   3   2   16.27    0.96
   3   3  -2   14.78    0.89
   3   3  -2   14.50    0.75
   2  -3  -2   90.16    4.34
  -2  -3   2   90.11    4.40
  -2  -3   2   82.24    4.30
   2  -3  -2   87.67    4.26
  -2   3   2   94.23    4.42
   2   3  -2   82.51    4.35
   2   3  -2   93.25    4.38
  -1  -3   2   57.27    2.91
   1  -3  -2   56.57    2.86
  -1   3   2   58.83    2.94
  -1   3   2   56.06    2.89
   1   3  -2   59.88    2.90
   1   3  -2   59.60    2.82
   0  -3  -2    0.79    0.15
   0  -3   2    0.79    0.18
   0   3   2    1.01    0.18
   0   3   2    0.95    0.14
  -1  -3  -2   40.48    2.11
   1  -3   2   42.24    2.10
   1   3   2   42.29    2.11
   1   3   2   42.05    2.18
  -2  -3  -2   87.90    4.72
   2  -3   2  103.53    4.86
  -2  -3  -2  102.34    4.87
   2   3   2  102.47    4.86
   2   3   2   96.41    4.93
  -3  -3  -2    2.06    0.33
   3  -3   2    1.72    0.30
  -3  -3  -2    1.59    0.15
   3   3   2    1.39    0.26
  -4  -3  -2    0.56    0.10
  -4  -3  -2    0.43    0.07
   4  -3   2    0.40    0.14
   4  -3   2    0.51    0.14
   4  -3   2    0.60    0.14
   4   3   2    0.53    0.12
   4   3   2    0.76    0.16
   4   3   2    0.28    0.14
  -4   3  -2    0.48    0.08
   4   3   2    0.69    0.17
  -5  -3  -2   19.10    0.97
   5  -3   2   18.52    0.98
   5   3   2   20.89    1.03
   5   3   2   20.30    1.03
   5   3   2   19.10    1.01
   7  -4  -2    0.83    0.08
  -7  -4   2    0.80    0.10
   6  -4  -2    4.35    0.27
  -6  -4   2    4.26    0.32
   6  -4  -2    3.72    0.31
   6   4  -2    3.76    0.27
   6   4  -2    4.19    0.33
  -5  -4   2    6.28    0.43
  -5  -4   2    6.48    0.41
   5  -4  -2    5.98    0.39
  -5  -4   2    6.55    0.44
   5  -4  -2    6.63    0.44
   5   4  -2    6.79    0.40
   5   4  -2    6.73    0.45
   5   4  -2    7.15    0.45
  -4  -4   2   14.21    0.87
   4  -4  -2   15.33    0.94
  -4  -4   2   14.24    0.77
   4  -4  -2   15.00    0.91
  -4   4   2   15.33    1.03
  -4   4   2   13.55    0.87
  -3  -4   2    3.80    0.24
   3  -4  -2    4.38    0.36
   3  -4  -2    4.36    0.35
  -3  -4   2    3.85    0.31
  -3  -4   2    3.92    0.38
   3   4  -2    3.97    0.37
   3   4  -2    3.88    0.24
  -3   4   2    4.08    0.40
   2  -4  -2    1.72    0.21
   2  -4  -2    0.94    0.12
  -2  -4   2    1.56    0.18
  -2  -4   2    1.54    0.25
  -2  -4   2    1.15    0.10
  -2   4   2    1.70    0.27
   2   4  -2    1.43    0.22
  -2   4   2    1.02    0.11
   2   4  -2    1.78    0.27
   1  -4  -2   18.59    1.00
  -1  -4   2   18.97    1.05
  -1   4   2   18.21    1.01
  -1   4   2   17.96    1.02
   1   4  -2   19.30    1.03
   1   4  -2   19.42    1.04
   0  -4  -2   32.65    1.67
   0  -4   2   31.74    1.72
   0   4   2   33.61    1.72
   0   4  -2   32.58    1.69
   1  -4   2   29.08    1.57
  -1  -4  -2   30.55    1.60
   1   4   2   31.09    1.59
   1   4   2   31.16    1.65
   1   4   2   32.38    1.68
  -2  -4  -2   47.04    2.45
  -2  -4  -2   50.05    2.60
   2  -4   2   51.68    2.58
   2   4   2   51.27    2.68
   2   4   2   52.60    2.66
   2   4   2   51.66    2.58
  -3  -4  -2   24.25    1.15
  -3  -4  -2   23.89    1.34
  -3  -4  -2   20.64    1.11
   3  -4   2   22.11    1.30
   3   4   2   23.22    1.30
  -4  -4  -2    2.88    0.22
   4  -4   2    2.45    0.26
  -4  -4  -2    2.62    0.17
   4   4   2    2.35    0.27
   4   4   2    2.61    0.27
   4   4   2    2.40    0.27
   5  -4   2   21.91    1.14
  -5  -4  -2   22.00    1.12
   5   4   2   23.27    1.17
   5   4   2   23.29    1.17
   5   4   2   23.82    1.19
   6  -5  -2    0.59    0.10
  -6  -5   2    0.51    0.12
   6  -5  -2    0.46    0.12
  -6  -5   2    0.58    0.13
   6   5  -2    0.57    0.09
   6   5  -2    0.82    0.13
   5  -5  -2   -0.02    0.10
   5  -5  -2    0.05    0.08
  -5  -5   2   -0.05    0.08
  -5  -5   2    0.01    0.08
  -5  -5   2    0.13    0.13
   5   5  -2    0.06    0.10
   5   5  -2    0.12    0.09
  -5   5   2    0.08    0.06
   4  -5  -2    0.56    0.19
  -4  -5   2    0.56    0.17
   4  -5  -2    0.39    0.17
  -4   5   2    0.71    0.19
   4   5  -2    0.33    0.23
  -4   5   2    0.69    0.26
  -3  -5   2   20.63    1.23
   3  -5  -2   20.46    1.19
  -3  -5   2   22.27    1.07
  -3  -5   2   20.34    1.14
   3  -5  -2   21.36    1.18
   3   5  -2   21.39    1.06
  -3   5   2   22.33    1.29
   3   5  -2   20.57    1.22
   2  -5  -2   25.14    1.24
  -2  -5   2   27.46    1.42
   2  -5  -2   24.94    1.34
  -2  -5   2   25.68    1.31
  -2  -5   2   25.63    1.24
   2   5  -2   24.58    1.37
   2   5  -2   27.21    1.39
   2   5  -2   23.39    1.25
  -2   5   2   26.26    1.41
  -2   5   2   23.39    1.25
  -1  -5   2   72.60    3.71
  -1  -5   2   76.26    3.80
   1  -5  -2   79.48    3.75
  -1   5   2   72.91    3.76
   1   5  -2   78.86    3.77
   1   5  -2   81.74    3.80
  -1   5   2   70.72    3.76
   0  -5  -2    2.30    0.23
   0  -5   2    2.69    0.28
   0   5  -2    2.39    0.24
   0   5   2    2.68    0.27
   1  -5   2    2.17    0.24
  -1  -5  -2    2.38    0.25
   1   5   2    2.51    0.28
   1   5   2    2.61    0.30
   1   5   2    2.56    0.24
  -2  -5  -2    2.53    0.32
   2  -5   2    2.12    0.25
  -2  -5  -2    2.21    0.17
   2   5   2    2.34    0.36
   2   5   2    2.56    0.26
   2   5   2    2.33    0.31
  -3  -5  -2   31.17    1.61
  -3  -5  -2   32.53    1.82
   3  -5   2   33.24    1.80
  -3  -5  -2   35.19    1.65
   3   5   2   32.62    1.79
  -4  -5  -2    1.40    0.13
  -4  -5  -2    1.47    0.17
   4   5   2    1.34    0.20
   4   5   2    1.47    0.19
   4   5   2    1.74    0.22
  -5  -5  -2    3.79    0.24
   5   5   2    4.11    0.31
   5   5   2    4.41    0.30
   5   5   2    4.67    0.31
   5   5   2    4.54    0.27
   6  -6  -2    2.79    0.24
  -6  -6   2    3.02    0.28
   6  -6  -2    3.15    0.21
  -6  -6   2    3.29    0.26
   6   6  -2    2.95    0.21
   6   6  -2    2.90    0.25
  -5  -6   2    4.62    0.35
  -5  -6   2    4.03    0.35
   5  -6  -2    4.83    0.36
  -5  -6   2    4.96    0.32
   5  -6  -2    4.85    0.31
   5   6  -2    4.66    0.36
   5   6  -2    4.36    0.31
  -5   6   2    5.21    0.29
  -4  -6   2    0.00    0.12
   4  -6  -2    0.02    0.14
   4  -6  -2   -0.09    0.13
  -4  -6   2    0.01    0.08
   4   6  -2    0.05    0.17
  -4   6   2    0.08    0.05
  -4   6   2    0.12    0.18
  -4   6   2    0.02    0.08
   3  -6  -2   23.78    1.31
   3  -6  -2   23.94    1.29
  -3  -6   2   23.32    1.16
  -3  -6   2   22.09    1.25
  -3  -6   2   21.68    1.33
  -3   6   2   24.16    1.40
   3   6  -2   23.99    1.34
  -2  -6   2  149.75    7.17
  -2  -6   2  145.96    7.07
  -2  -6   2  147.66    6.99
   2  -6  -2  145.79    7.00
   2  -6  -2  147.97    7.12
  -2   6   2  139.28    7.01
  -2   6   2  151.36    7.18
   2   6  -2  157.87    7.16
   2   6  -2  133.71    7.01
   2   6  -2  141.28    7.14
  -1  -6   2   21.94    1.17
  -1  -6   2   19.97    1.07
   1  -6  -2   20.77    1.10
   1   6  -2   21.74    1.16
  -1   6   2   17.91    1.10
  -1   6   2   19.68    1.11
   1   6  -2   21.14    1.13
  -1   6   2   20.51    1.01
   0  -6   2   24.41    1.53
   0  -6  -2   29.55    1.52
   0  -6   2   30.18    1.59
   0   6   2   30.23    1.58
   0   6  -2   29.46    1.53
   0   6  -2   30.33    1.57
  -1  -6  -2    0.29    0.13
   1   6   2    0.38    0.14
   1   6   2    0.46    0.18
  -1   6  -2    0.39    0.14
   1   6   2    0.35    0.16
   2  -6   2    4.64    0.39
  -2  -6  -2    5.00    0.31
  -2  -6  -2    5.63    0.44
   2   6   2    5.64    0.48
   2   6   2    5.62    0.51
   2   6   2    5.39    0.41
  -3  -6  -2    3.52    0.22
  -3  -6  -2    3.36    0.39
  -3  -6  -2    3.94    0.26
   3  -6   2    3.46    0.36
   3   6   2    3.83    0.37
  -4  -6  -2    0.31    0.08
  -4  -6  -2    0.21    0.11
   4   6   2    0.32    0.14
   4   6   2    0.30    0.13
   4   6   2    0.46    0.15
   4   6   2    0.37    0.11
  -5  -6  -2    4.23    0.25
   5   6   2    4.32    0.31
   5   6   2    4.59    0.32
   5   6   2    4.36    0.30
   5   6   2    4.68    0.27
  -6  -7   2   35.03    1.73
  -6  -7   2   33.55    1.73
   6  -7  -2   35.27    1.71
   6  -7  -2   34.83    1.74
   6   7  -2   35.69    1.71
   6   7  -2   33.18    1.73
  -5  -7   2    0.78    0.16
   5  -7  -2    0.61    0.11
   5  -7  -2    1.04    0.17
  -5  -7   2    0.82    0.16
  -5   7   2    1.09    0.12
   5   7  -2    1.17    0.19
   5   7  -2    0.77    0.13
  -4  -7   2    6.63    0.39
  -4  -7   2    6.61    0.51
   4  -7  -2    6.54    0.55
   4  -7  -2    6.33    0.53
   4   7  -2    6.18    0.57
  -4   7   2    6.53    0.36
  -4   7   2    7.03    0.64
  -3  -7   2   30.87    1.67
   3  -7  -2   31.70    1.72
  -3  -7   2   32.17    1.56
   3  -7  -2   32.51    1.71
   3   7  -2   31.61    1.57
   3   7  -2   31.53    1.75
  -3   7   2   31.01    1.81
  -2  -7   2    1.08    0.09
   2  -7  -2    1.28    0.21
   2  -7  -2    1.03    0.10
  -2  -7   2    1.19    0.25
  -2  -7   2    1.24    0.19
   2   7  -2    1.09    0.23
  -2   7   2    1.15    0.13
   2   7  -2    0.93    0.12
  -2   7   2    1.28    0.25
   2   7  -2    1.27    0.26
   1  -7  -2    3.26    0.21
   1  -7  -2    3.18    0.30
  -1  -7   2    3.71    0.35
  -1  -7   2    3.52    0.27
   1   7  -2    3.35    0.34
  -1   7   2    3.31    0.21
  -1   7   2    3.22    0.31
   1   7  -2    3.76    0.33
   0  -7  -2    8.34    0.53
   0  -7   2    7.80    0.50
   0   7   2    8.33    0.57
   0   7  -2    8.33    0.57
   0   7  -2    7.89    0.53
  -1  -7  -2    0.28    0.13
  -1   7  -2    0.23    0.14
   1   7   2    0.31    0.12
   1   7   2    0.47    0.17
   1   7   2    0.46    0.17
  -2  -7  -2    0.22    0.14
  -2  -7  -2    0.15    0.07
   2   7   2    0.09    0.15
   2   7   2    0.22    0.13
   2   7   2    0.08    0.15
  -3  -7  -2   30.69    1.42
  -3  -7  -2   27.83    1.59
  -3  -7  -2   28.01    1.37
   3   7   2   24.44    1.52
  -4  -7  -2    7.28    0.37
  -4  -7  -2    6.36    0.41
   4   7   2    6.00    0.44
   4   7   2    6.69    0.40
   4   7   2    6.74    0.44
   4   7   2    6.58    0.43
  -5  -7  -2    2.46    0.20
  -5  -7  -2    2.38    0.16
   5   7   2    2.37    0.20
   5   7   2    2.83    0.19
   5   7   2    2.55    0.21
   5   7   2    2.66    0.22
  -6  -8   2   23.90    1.21
   6  -8  -2   21.38    1.18
   6  -8  -2   23.95    1.22
  -6  -8   2   24.07    1.21
   6   8  -2   23.02    1.19
   6   8  -2   24.52    1.22
  -6   8   2   25.50    1.23
  -5  -8   2    4.07    0.28
  -5  -8   2    3.82    0.29
   5  -8  -2    3.51    0.31
  -5  -8   2    3.81    0.31
   5  -8  -2    3.78    0.27
   5   8  -2    3.84    0.28
  -5   8   2    3.82    0.24
   5   8  -2    3.96    0.30
   4  -8  -2    1.35    0.29
   4  -8  -2    1.99    0.33
  -4  -8   2    1.84    0.32
  -4  -8   2    1.80    0.16
  -4   8   2    1.98    0.42
  -4   8   2    1.43    0.13
   4   8  -2    1.32    0.31
   3  -8  -2   64.30    3.23
   3  -8  -2   61.18    3.25
  -3  -8   2   65.31    3.07
  -3  -8   2   61.24    3.19
   3   8  -2   64.29    3.29
  -3   8   2   63.91    3.35
   3   8  -2   62.69    3.08
   2  -8  -2    2.96    0.18
  -2  -8   2    2.85    0.27
   2  -8  -2    3.17    0.31
  -2  -8   2    2.99    0.33
   2   8  -2    2.70    0.21
   2   8  -2    3.14    0.34
  -2   8   2    3.28    0.34
  -2   8   2    3.07    0.22
   2   8  -2    3.52    0.35
  -1  -8   2   13.80    0.86
   1  -8  -2   12.95    0.78
  -1  -8   2   13.40    0.76
   1  -8  -2   12.55    0.68
   1   8  -2   13.93    0.81
  -1   8   2   12.25    0.67
   1   8  -2   13.99    0.84
   0  -8   2    0.72    0.17
   0  -8  -2    0.67    0.17
   0  -8  -2    0.85    0.11
   0   8  -2    1.03    0.20
   0   8   2    0.61    0.18
   0   8   2    0.58    0.07
   0   8  -2    0.76    0.18
  -1  -8  -2    4.58    0.38
  -1   8  -2    3.83    0.38
   1   8   2    4.62    0.40
   1   8   2    4.60    0.44
  -2  -8  -2    9.12    0.51
  -2  -8  -2    9.83    0.66
   2   8   2    9.57    0.74
   2   8   2    8.65    0.60
   2   8   2    8.80    0.69
  -3  -8  -2    2.59    0.37
  -3  -8  -2    2.87    0.23
  -3  -8  -2    2.92    0.19
  -4  -8  -2    3.19    0.29
  -4  -8  -2    3.24    0.26
  -4  -8  -2    3.60    0.22
   4   8   2    3.54    0.28
   4   8   2    3.66    0.31
   4   8   2    3.45    0.27
   4   8   2    3.51    0.26
  -5  -8  -2    3.65    0.27
   5   8   2    4.04    0.27
   5   8   2    3.94    0.28
   5   8   2    3.95    0.24
   5   8   2    4.16    0.28
  -6  -9   2    8.54    0.49
  -6  -9   2    8.58    0.49
   6  -9  -2    8.91    0.50
   6  -9  -2    8.31    0.45
   6   9  -2    8.54    0.46
  -6   9   2    7.67    0.48
   5  -9  -2    6.19    0.42
  -5  -9   2    5.84    0.41
   5  -9  -2    5.89    0.36
  -5  -9   2    6.12    0.41
   5   9  -2    6.29    0.42
  -5   9   2    6.02    0.34
   5   9  -2    6.01    0.37
   4  -9  -2   -0.03    0.14
  -4  -9   2    0.18    0.07
   4  -9  -2    0.10    0.16
  -4  -9   2    0.25    0.17
   4   9  -2    0.23    0.20
  -4   9   2    0.15    0.20
  -4   9   2    0.16    0.07
   3  -9  -2    0.38    0.17
   3  -9  -2    0.78    0.22
  -3  -9   2    0.68    0.17
  -3  -9   2    0.51    0.08
  -3   9   2    0.40    0.20
   3   9  -2    0.71    0.25
   3   9  -2    0.39    0.08
  -2  -9   2   15.95    0.90
   2  -9  -2   15.92    0.94
  -2  -9   2   16.37    1.00
   2   9  -2   16.74    0.98
   2   9  -2   14.80    0.81
  -2   9   2   14.43    0.80
   2   9  -2   15.68    0.98
  -2   9   2   15.52    0.98
  -1  -9   2   35.90    1.83
  -1  -9   2   36.79    1.95
   1  -9  -2   35.46    1.86
   1  -9  -2   34.30    1.73
   1   9  -2   36.53    1.92
   1   9  -2   36.41    1.89
  -1   9   2   32.42    1.73
   0  -9  -2   29.37    1.52
   0  -9  -2   26.61    1.39
   0  -9   2   28.55    1.49
   0   9   2   26.99    1.36
   0   9  -2   30.66    1.59
   0   9   2   30.16    1.58
   0   9  -2   24.99    1.50
  -1  -9  -2    2.82    0.22
  -1  -9  -2    3.05    0.33
  -1   9  -2    3.16    0.38
   1   9   2    3.58    0.40
   1   9   2    3.36    0.35
  -2  -9  -2    0.07    0.14
  -2  -9  -2    0.01    0.05
  -2  -9  -2    0.16    0.09
   2   9   2    0.07    0.16
   2   9   2   -0.05    0.10
   2   9   2    0.00    0.15
  -3  -9  -2    0.03    0.17
  -3  -9  -2    0.00    0.07
  -3  -9  -2    0.07    0.11
   3   9   2    0.10    0.15
   3   9   2    0.17    0.17
   3   9   2    0.09    0.14
  -4  -9  -2    7.08    0.44
  -4  -9  -2    6.34    0.43
  -4  -9  -2    7.88    0.40
   4   9   2    8.02    0.47
   4   9   2    7.44    0.43
   4   9   2    8.06    0.46
   4   9   2    7.18    0.44
  -5  -9  -2    0.45    0.08
   5   9   2    0.28    0.07
   5   9   2    0.50    0.09
   5   9   2    0.48    0.08
   5   9   2    0.37    0.10
   6 -10  -2    1.16    0.14
   6 -10  -2    1.08    0.10
  -6 -10   2    1.16    0.14
  -6 -10   2    0.84    0.13
   6  10  -2    0.89    0.11
  -6  10   2    1.30    0.15
   5 -10  -2    0.26    0.09
   5 -10  -2    0.34    0.13
  -5 -10   2    0.30    0.13
   5  10  -2    0.14    0.10
  -5  10   2    0.24    0.14
  -5  10   2    0.33    0.07
   5  10  -2    0.25    0.13
  -4 -10   2   16.56    0.79
   4 -10  -2   14.70    1.00
  -4 -10   2   14.26    0.93
   4 -10  -2   14.78    0.98
  -4  10   2   15.45    1.11
   4  10  -2   13.35    1.01
  -4  10   2   14.66    0.76
   3 -10  -2   11.95    0.79
  -3 -10   2   11.23    0.74
  -3 -10   2   11.91    0.61
   3 -10  -2   11.76    0.81
  -3  10   2   12.00    0.89
   3  10  -2   11.79    0.63
   3  10  -2   11.32    0.83
  -2 -10   2    5.44    0.42
  -2 -10   2    4.79    0.47
   2 -10  -2    5.60    0.45
  -2  10   2    4.75    0.31
  -2  10   2    5.28    0.49
   2  10  -2    5.57    0.47
   2  10  -2    4.94    0.32
   2  10  -2    5.17    0.48
   1 -10  -2    1.69    0.26
   1 -10  -2    1.50    0.13
  -1 -10   2    1.77    0.25
   1  10  -2    1.54    0.20
   1  10  -2    1.89    0.30
  -1  10   2    1.44    0.14
   1  10  -2    2.50    0.34
   0 -10   2    8.25    0.56
   0 -10  -2    8.39    0.46
   0 -10  -2    8.92    0.59
   0  10  -2    7.95    0.62
   0  10   2    8.45    0.43
   0  10   2    8.50    0.63
   0  10  -2    7.76    0.43
  -1 -10  -2    6.37    0.50
   1  10   2    6.34    0.56
   1  10   2    5.83    0.50
  -2 -10  -2   14.88    0.91
  -2 -10  -2   13.38    0.74
  -2 -10  -2   13.66    0.71
  -2  10  -2   13.47    0.98
   2  10   2   13.85    1.00
   2  10   2   14.50    0.96
  -3 -10  -2    4.32    0.24
  -3 -10  -2    3.41    0.32
  -3 -10  -2    3.88    0.28
   3  10   2    3.63    0.30
   3  10   2    3.85    0.30
   3  10   2    3.57    0.32
  -4 -10  -2    6.21    0.40
  -4 -10  -2    6.11    0.35
   4  10   2    6.20    0.38
   4  10   2    6.34    0.41
   4  10   2    6.45    0.43
  -5 -10  -2    0.18    0.08
   5  10   2    0.13    0.09
   5  10   2    0.04    0.05
  -6 -11   2    3.54    0.24
   6 -11  -2    3.94    0.26
   6 -11  -2    3.45    0.22
   6  11  -2    3.76    0.23
  -6  11   2    3.69    0.26
   5 -11  -2    5.74    0.35
  -5 -11   2    5.42    0.38
   5 -11  -2    6.24    0.41
  -5 -11   2    6.83    0.41
   5  11  -2    5.96    0.37
  -5  11   2    6.29    0.41
  -5  11   2    5.52    0.33
   5  11  -2    5.89    0.39
  -4 -11   2    2.47    0.25
  -4 -11   2    2.77    0.26
  -4 -11   2    2.33    0.18
   4 -11  -2    1.81    0.27
  -4  11   2    3.59    0.37
  -4  11   2    2.06    0.44
   4  11  -2    2.59    0.22
  -4  11   2    2.41    0.17
   3 -11  -2   16.03    0.98
   3 -11  -2   16.15    1.01
  -3 -11   2   15.38    0.94
  -3  11   2   13.42    0.77
   3  11  -2   15.64    1.02
   3  11  -2   15.90    0.80
  -3  11   2   15.36    1.08
   2 -11  -2    6.25    0.50
  -2 -11   2    5.06    0.50
   2 -11  -2    5.51    0.46
  -2 -11   2    5.84    0.45
   2  11  -2    5.73    0.36
   2  11  -2    5.64    0.50
  -2  11   2    5.17    0.50
  -2  11   2    5.52    0.35
   2  11  -2    5.98    0.55
   1 -11  -2   38.50    2.03
   1 -11  -2   38.17    1.87
  -1 -11   2   38.86    2.01
   1  11  -2   39.62    2.11
   1  11  -2   35.29    1.88
   1  11  -2   38.08    2.05
  -1  11   2   39.51    1.89
   0 -11  -2   39.14    1.96
   0 -11  -2   41.64    2.11
   0 -11   2   40.55    2.08
   0  11   2   40.89    2.17
   0  11  -2   37.40    1.94
   0  11  -2   41.24    2.17
   0  11   2   38.29    1.93
  -1 -11  -2    1.43    0.27
  -1 -11  -2    1.43    0.15
   1  11   2    1.78    0.32
  -1  11  -2    1.20    0.11
   1  11   2    1.65    0.33
  -2 -11  -2    2.78    0.18
  -2 -11  -2    2.61    0.38
   2  11   2    2.45    0.42
  -2  11  -2    2.04    0.41
   2  11   2    3.14    0.43
  -3 -11  -2    2.49    0.18
   3 -11   2    1.86    0.20
  -3 -11  -2    2.64    0.28
   3  11   2    2.58    0.23
   3  11   2    2.86    0.29
   3  11   2    2.77    0.27
  -4 -11  -2   10.99    0.62
  -4 -11  -2   13.33    0.67
   4  11   2   12.51    0.69
   4  11   2   12.24    0.64
   4  11   2   11.51    0.66
  -5 -11  -2    0.18    0.08
   5  11   2    0.28    0.09
  -6 -12   2    1.71    0.17
   6 -12  -2    1.84    0.13
   6 -12  -2    1.41    0.14
  -6  12   2    1.65    0.15
   6  12  -2    1.46    0.12
  -6  12   2    1.64    0.15
  -5 -12   2    3.19    0.27
   5 -12  -2    3.93    0.29
  -5 -12   2    3.33    0.29
   5 -12  -2    3.28    0.23
   5  12  -2    3.62    0.25
  -5  12   2    3.67    0.30
  -5  12   2    3.02    0.22
   4 -12  -2   17.17    0.92
  -4 -12   2   16.41    0.90
  -4 -12   2   16.38    0.91
   4  12  -2   16.81    0.88
  -4  12   2   17.59    0.85
  -4  12   2   16.54    0.92
   3 -12  -2   23.42    1.38
  -3 -12   2   22.05    1.31
   3 -12  -2   23.27    1.35
   3  12  -2   20.59    1.38
  -3  12   2   22.53    1.47
   3  12  -2   23.35    1.42
   3  12  -2   24.52    1.17
   2 -12  -2    5.41    0.47
   2 -12  -2    4.98    0.48
  -2 -12   2    5.61    0.48
   2  12  -2    5.93    0.52
   2  12  -2    5.50    0.35
  -2  12   2    6.04    0.36
   2  12  -2    4.75    0.52
  -2  12   2    5.24    0.51
  -1 -12   2    2.00    0.31
   1 -12  -2    1.23    0.25
   1 -12  -2    1.48    0.13
   1  12  -2    1.24    0.27
   1  12  -2    1.63    0.33
  -1  12   2    1.33    0.15
   1  12  -2    1.47    0.16
   0 -12  -2    1.96    0.16
   0 -12   2    1.75    0.28
   0 -12  -2    1.44    0.26
   0  12  -2    1.50    0.29
   0  12  -2    1.75    0.15
   0  12   2    1.40    0.28
   0  12   2    1.80    0.14
  -1 -12  -2   13.23    0.71
  -1 -12  -2   13.31    0.86
   1  12   2   13.55    0.95
  -1  12  -2   12.69    0.67
  -2 -12  -2    0.09    0.17
   2  12   2    0.16    0.20
  -2  12  -2    0.42    0.07
   2  12   2    0.15    0.20
  -2  12  -2    0.09    0.23
   3 -12   2    2.33    0.24
  -3 -12  -2    1.86    0.22
   3  12   2    2.23    0.24
   3  12   2    2.10    0.24
   3  12   2    2.40    0.22
  -4 -12  -2    0.07    0.11
   4  12   2   -0.10    0.11
   4  12   2    0.05    0.08
   4  12   2    0.03    0.06
   6 -13  -2    0.11    0.07
  -6 -13   2    0.06    0.05
   6 -13  -2    0.12    0.05
  -6  13   2    0.17    0.06
  -6  13   2    0.03    0.08
   6  13  -2    0.04    0.05
  -5 -13   2    0.52    0.12
  -5 -13   2    0.53    0.11
   5 -13  -2    0.67    0.12
   5 -13  -2    0.36    0.10
   5  13  -2    0.45    0.10
  -5  13   2    0.44    0.10
  -5  13   2    0.50    0.11
  -4 -13   2    3.00    0.26
   4 -13  -2    2.39    0.25
  -4 -13   2    2.81    0.26
   4  13  -2    2.51    0.22
  -4  13   2    2.48    0.23
  -4  13   2    2.71    0.19
  -4  13   2    2.44    0.23
  -3 -13   2    0.09    0.17
   3 -13  -2    0.28    0.18
   3 -13  -2    0.18    0.19
   3  13  -2    0.19    0.19
   3  13  -2    0.31    0.09
  -3  13   2    0.26    0.23
   3  13  -2    0.32    0.22
  -2 -13   2   36.15    2.08
   2 -13  -2   39.10    2.13
   2 -13  -2   37.72    2.08
   2  13  -2   40.62    2.23
   2  13  -2   39.93    2.16
  -2  13   2   39.82    1.95
   2  13  -2   39.44    1.95
   1 -13  -2    0.07    0.06
  -1 -13   2    0.29    0.19
   1 -13  -2    0.47    0.19
   1  13  -2    0.10    0.09
  -1  13   2    0.08    0.08
   1  13  -2   -0.01    0.19
   0 -13  -2    1.62    0.28
   0 -13  -2    1.58    0.16
   0 -13   2    1.39    0.28
   0  13   2    1.80    0.34
   0  13   2    1.64    0.13
   0  13  -2    1.75    0.15
   0  13  -2    1.07    0.25
  -1 -13  -2    2.19    0.20
  -1 -13  -2    2.04    0.35
  -1  13  -2    2.11    0.16
   1  13   2    1.84    0.37
  -2 -13  -2   26.60    1.62
  -2 -13  -2   29.07    1.45
  -2  13  -2   30.16    1.40
   2  13   2   26.49    1.66
   2  13   2   27.39    1.74
  -3 -13  -2   10.07    0.57
  -3 -13  -2    9.65    0.58
   3 -13   2    9.45    0.57
   3  13   2    9.22    0.54
   3  13   2    9.89    0.59
  -3  13  -2    9.35    0.50
  -4 -13  -2    4.13    0.28
  -4 -13  -2    4.86    0.30
   4  13   2    3.85    0.29
   4  13   2    4.33    0.27
  -5 -14   2    2.64    0.23
   5 -14  -2    2.08    0.20
  -5 -14   2    2.71    0.21
   5  14  -2    2.53    0.18
  -5  14   2    2.28    0.21
  -5  14   2    2.35    0.20
  -5  14   2    2.20    0.19
  -4 -14   2    3.08    0.27
   4 -14  -2    2.79    0.24
  -4 -14   2    2.64    0.26
  -4  14   2    3.13    0.30
  -4  14   2    3.16    0.25
  -4  14   2    3.25    0.28
   4  14  -2    3.08    0.22
   3 -14  -2   12.61    0.91
  -3 -14   2   11.63    0.86
   3  14  -2   12.03    0.97
  -3  14   2   12.60    0.97
   3  14  -2   13.20    0.96
  -3  14   2   16.89    0.95
   3  14  -2   13.82    0.71
   2 -14  -2    0.05    0.16
  -2 -14   2   -0.01    0.15
   2  14  -2    0.11    0.20
  -2  14   2   -0.09    0.10
   2  14  -2   -0.13    0.18
   2  14  -2    0.09    0.08
  -1 -14   2   -0.02    0.16
   1 -14  -2   -0.01    0.16
  -1  14   2    0.09    0.09
   1  14  -2    0.18    0.09
   1  14  -2    0.04    0.16
   1  14  -2    0.07    0.06
   0 -14  -2    9.38    0.49
   0 -14  -2    8.59    0.64
   0 -14   2    7.48    0.61
   0  14  -2    8.56    0.70
   0  14  -2    7.99    0.44
   0  14  -2    8.66    0.47
   0  14   2    8.08    0.70
   0  14   2    8.50    0.45
  -1 -14  -2    0.18    0.08
  -1 -14  -2    0.16    0.17
  -1  14  -2    0.17    0.05
   1  14   2   -0.01    0.17
  -1  14  -2    0.11    0.07
  -2 -14  -2   10.35    0.64
   2 -14   2   11.38    0.66
  -2 -14  -2   10.53    0.64
  -2 -14  -2   11.12    0.64
   2  14   2   11.18    0.61
  -2  14  -2   12.11    0.59
   2  14   2   11.16    0.67
  -3 -14  -2   54.62    2.52
  -3 -14  -2   50.22    2.53
   3 -14   2   49.79    2.53
   3  14   2   50.85    2.49
  -3  14  -2   47.72    2.47
   3  14   2   51.88    2.54
  -4 -14  -2    3.75    0.26
  -4 -14  -2    4.08    0.27
   4  14   2    4.68    0.26
   4  14   2    4.36    0.30
  -5 -15   2    4.03    0.27
   5 -15  -2    4.21    0.28
  -5 -15   2    3.82    0.26
   5  15  -2    4.28    0.26
  -5  15   2    3.80    0.26
  -5  15   2    4.12    0.28
  -5  15   2    3.90    0.26
  -4 -15   2    4.79    0.33
   4 -15  -2    4.59    0.34
  -4  15   2    4.75    0.31
  -4  15   2    4.75    0.37
  -4  15   2    4.76    0.35
   4  15  -2    5.32    0.32
  -3 -15   2    3.20    0.31
  -3 -15   2    3.49    0.30
  -3  15   2    3.76    0.28
   3  15  -2    3.74    0.27
   3  15  -2    3.56    0.25
   3  15  -2    3.32    0.29
  -3  15   2    4.18    0.33
   2 -15  -2   16.39    1.08
  -2 -15   2   15.33    1.04
   2  15  -2   15.53    1.10
   2  15  -2   17.38    0.91
   2  15  -2   17.42    1.18
  -2  15   2   18.61    0.92
   1 -15  -2    6.72    0.58
  -1 -15   2    6.79    0.57
  -1  15   2    7.82    0.43
   1  15  -2    7.01    0.67
   1  15  -2    6.99    0.44
   1  15  -2    6.82    0.38
   0 -15  -2    6.30    0.56
   0 -15   2    6.10    0.54
   0 -15  -2    7.25    0.39
   0  15  -2    6.48    0.62
   0  15  -2    6.54    0.36
   0  15   2    6.41    0.63
  -1 -15  -2    1.10    0.15
  -1 -15  -2    0.51    0.21
  -1  15  -2    1.16    0.13
   1  15   2    0.79    0.27
  -1  15  -2    1.04    0.10
  -2 -15  -2   16.09    0.89
  -2 -15  -2   15.34    0.86
   2 -15   2   16.45    0.89
  -2 -15  -2   15.42    0.86
  -2  15  -2   16.99    0.83
   2  15   2   16.23    0.89
   2  15   2   15.83    0.84
  -3 -15  -2    4.35    0.31
   3 -15   2    4.03    0.32
  -3 -15  -2    4.30    0.33
   3  15   2    3.81    0.26
  -3  15  -2    3.88    0.25
   3  15   2    4.37    0.33
  -4 -15  -2    6.76    0.44
  -4 -15  -2    8.39    0.44
   4  15   2    8.00    0.44
   4  15   2    7.86    0.42
  -5 -16   2    1.59    0.15
   5 -16  -2    1.49    0.14
  -5 -16   2    1.59    0.16
   5  16  -2    1.40    0.14
  -5  16   2    1.72    0.19
  -5  16   2    1.57    0.16
  -5  16   2    1.64    0.14
  -4 -16   2    3.13    0.29
   4  16  -2    3.55    0.24
  -4  16   2    3.56    0.31
  -4  16   2    4.00    0.27
  -3 -16   2    1.70    0.22
  -3 -16   2    1.79    0.20
   3  16  -2    1.73    0.16
   3  16  -2    1.91    0.21
   3  16  -2    2.25    0.20
  -3  16   2    2.41    0.22
  -3  16   2    2.37    0.25
  -3  16   2    1.87    0.20
  -2 -16   2    2.64    0.39
  -2 -16   2    2.80    0.29
   2  16  -2    3.00    0.30
   2  16  -2    3.08    0.25
  -2  16   2    2.49    0.29
   2  16  -2    2.96    0.24
  -2  16   2    3.34    0.25
  -2  16   2    2.73    0.26
  -2  16   2    3.27    0.34
  -1 -16   2   14.05    1.02
   1 -16  -2   15.06    1.04
   1  16  -2   16.19    1.14
  -1  16   2   18.49    0.87
   0 -16  -2   12.19    0.86
   0 -16   2   12.97    0.88
   0  16  -2   11.66    0.93
   0  16  -2   13.71    0.65
   0  16  -2   13.48    0.69
   0  16   2   10.77    0.92
  -1 -16  -2    5.60    0.43
   1 -16   2    5.38    0.43
  -1 -16  -2    5.84    0.42
  -1 -16  -2    6.51    0.38
   1  16   2    5.57    0.36
   1  16   2    5.81    0.42
  -1  16  -2    6.17    0.36
  -1  16  -2    6.32    0.33
  -2 -16  -2    0.20    0.12
  -2 -16  -2    0.23    0.15
   2  16   2    0.07    0.11
  -2  16  -2    0.15    0.07
   2  16   2    0.16    0.14
  -2  16  -2    0.18    0.05
  -3 -16  -2    0.24    0.09
  -3 -16  -2    0.11    0.11
   3  16   2    0.28    0.12
  -3  16  -2    0.18    0.04
   3  16   2    0.13    0.09
  -4 -16  -2    0.16    0.08
   4  16   2    0.13    0.06
   4  16   2    0.15    0.06
   5 -17  -2    0.15    0.07
  -5 -17   2    0.05    0.05
  -5  17   2    0.12    0.06
  -5  17   2    0.04    0.05
  -5  17   2    0.08    0.06
   5  17  -2    0.10    0.05
  -4 -17   2    8.49    0.46
  -4  17   2    7.16    0.43
   4  17  -2    7.22    0.42
  -4  17   2    7.46    0.46
  -3 -17   2    0.23    0.14
  -3 -17   2    0.30    0.14
   3  17  -2    0.16    0.10
   3  17  -2    0.18    0.12
  -3  17   2    0.28    0.10
  -3  17   2    0.34    0.12
  -3  17   2    0.43    0.15
  -2 -17   2    0.08    0.19
  -2 -17   2    0.05    0.13
  -2 -17   2    0.10    0.14
   2  17  -2   -0.03    0.10
   2  17  -2   -0.09    0.11
  -2  17   2   -0.01    0.11
   2  17  -2    0.05    0.07
  -2  17   2   -0.03    0.08
  -2  17   2   -0.08    0.10
  -2  17   2    0.04    0.13
  -1 -17   2    0.02    0.14
  -1 -17   2   -0.02    0.14
   1 -17  -2    0.02    0.13
  -1  17   2    0.15    0.12
  -1  17   2    0.01    0.13
   1  17  -2   -0.08    0.12
  -1  17   2   -0.03    0.09
  -1  17   2    0.11    0.10
   0 -17   2   53.40    2.72
   0 -17  -2   52.71    2.71
   0  17   2   51.37    2.65
   0  17   2   52.02    2.70
   0  17  -2   60.28    2.63
   0  17  -2   55.43    2.67
  -1 -17  -2    4.26    0.35
   1 -17   2    4.49    0.37
  -1 -17  -2    4.20    0.36
  -1 -17  -2    3.93    0.27
  -1  17  -2    4.65    0.30
   1  17   2    3.91    0.35
   1  17   2    3.74    0.29
  -1  17  -2    4.78    0.26
  -2 -17  -2    4.33    0.32
   2  17   2    4.30    0.34
  -2  17  -2    4.34    0.27
   2  17   2    4.17    0.27
  -2  17  -2    4.38    0.24
  -3 -17  -2    6.10    0.38
  -3 -17  -2    6.39    0.38
   3  17   2    6.17    0.38
  -3  17  -2    5.94    0.33
   3  17   2    6.79    0.36
  -5 -18   2    0.18    0.07
  -5  18   2    0.09    0.07
  -4 -18   2    0.96    0.13
  -4 -18   2    1.19    0.16
  -4  18   2    1.26    0.13
   4  18  -2    1.18    0.12
  -4  18   2    1.08    0.13
  -4  18   2    1.32    0.16
  -3 -18   2    0.88    0.17
  -3 -18   2    0.86    0.13
  -3  18   2    0.99    0.14
  -3  18   2    0.81    0.16
   3  18  -2    0.80    0.13
   3  18  -2    0.74    0.14
  -3  18   2    0.78    0.14
  -2 -18   2    0.12    0.14
  -2 -18   2   -0.12    0.12
  -2  18   2    0.15    0.10
   2  18  -2    0.07    0.11
   2  18  -2    0.20    0.11
  -2  18   2    0.06    0.12
  -2  18   2    0.05    0.11
   1 -18  -2   30.12    1.60
  -1 -18   2   31.60    1.61
  -1 -18   2   31.58    1.60
   1  18  -2   30.57    1.56
  -1  18   2   31.06    1.56
  -1  18   2   29.86    1.55
  -1  18   2   29.90    1.54
  -1  18   2   32.48    1.60
   0 -18   2    1.82    0.23
   0 -18  -2    2.11    0.26
   0  18  -2    2.15    0.16
   0  18   2    2.37    0.27
   0  18   2    1.91    0.19
   0  18  -2    2.17    0.21
  -1 -18  -2   35.92    1.87
  -1 -18  -2   35.43    1.88
   1 -18   2   36.66    1.89
  -1  18  -2   37.81    1.80
   1  18   2   37.75    1.88
   1  18   2   37.51    1.83
  -2 -18  -2    0.90    0.14
  -2  18  -2    0.58    0.09
   2  18   2    0.73    0.11
  -2  18  -2    0.67    0.08
   2  18   2    0.57    0.14
  -3 -18  -2    0.13    0.08
  -3 -18  -2    0.02    0.08
   3  18   2    0.10    0.09
  -3  18  -2    0.21    0.06
   3  18   2    0.20    0.08
  -4 -19   2    1.37    0.16
  -4 -19   2    1.84    0.16
  -4  19   2    1.95    0.15
  -4  19   2    2.00    0.16
  -4  19   2    2.27    0.20
   4  19  -2    1.89    0.16
  -3 -19   2    0.06    0.09
  -3 -19   2    0.08    0.11
  -3  19   2    0.10    0.07
   3  19  -2    0.00    0.10
  -3  19   2   -0.02    0.09
  -3  19   2    0.11    0.12
   3  19  -2    0.16    0.07
  -2 -19   2   -0.04    0.14
  -2 -19   2    0.04    0.13
  -2  19   2    0.15    0.11
   2  19  -2    0.09    0.08
  -2  19   2    0.03    0.10
   2  19  -2    0.07    0.11
  -2  19   2    0.06    0.13
  -1 -19   2    0.29    0.15
  -1 -19   2    0.21    0.11
   1 -19  -2    0.29    0.11
   1  19  -2    0.23    0.11
  -1  19   2    0.29    0.12
  -1  19   2    0.18    0.15
  -1  19   2    0.29    0.11
   1  19  -2    0.20    0.11
   0 -19  -2   22.52    1.18
   0 -19   2   22.34    1.18
   0  19  -2   19.95    1.11
   0  19   2   22.45    1.11
   0  19  -2   22.58    1.08
   0  19   2   22.77    1.16
   0  19  -2   19.49    1.12
  -1 -19  -2   -0.08    0.12
  -1 -19  -2    0.13    0.14
   1 -19   2    0.12    0.14
  -1  19  -2    0.01    0.08
  -1  19  -2    0.00    0.05
   1  19   2    0.16    0.13
   1  19   2    0.09    0.07
  -2 -19  -2    0.43    0.11
   2  19   2    0.58    0.10
  -2  19  -2    0.35    0.06
   2  19   2    0.52    0.11
  -3 -19  -2    0.79    0.11
  -3 -19  -2    0.74    0.10
   3  19   2    0.80    0.08
   3  19   2    0.78    0.11
  -4 -20   2    1.80    0.15
  -4 -20   2    2.37    0.18
  -4  20   2    1.97    0.18
   4  20  -2    1.58    0.13
  -4  20   2    1.81    0.15
  -4  20   2    1.94    0.14
  -3 -20   2    3.92    0.27
  -3 -20   2    4.56    0.30
  -3  20   2    4.53    0.29
  -3  20   2    4.27    0.27
  -3  20   2    4.61    0.31
   3  20  -2    3.68    0.27
   3  20  -2    4.03    0.26
  -2 -20   2    1.98    0.22
  -2 -20   2    1.63    0.20
  -2  20   2    1.67    0.18
  -2  20   2    1.57    0.19
   2  20  -2    1.66    0.19
  -2  20   2    1.59    0.15
   2  20  -2    1.74    0.17
   1 -20  -2    0.83    0.17
  -1 -20   2    0.97    0.18
  -1 -20   2    0.97    0.19
  -1  20   2    1.03    0.15
  -1  20   2    0.84    0.13
   1  20  -2    1.00    0.15
  -1  20   2    0.89    0.12
   1  20  -2    0.85    0.14
   0 -20  -2   11.08    0.66
   0 -20   2   11.89    0.68
   0  20  -2   10.92    0.61
   0  20   2   10.67    0.64
   0  20   2   11.92    0.61
  -1 -20  -2    0.21    0.14
  -1 -20  -2    0.14    0.12
   1 -20   2    0.07    0.12
  -1  20  -2    0.16    0.10
   1  20   2   -0.04    0.10
   1  20   2    0.08    0.09
  -1  20  -2    0.16    0.06
  -2 -20  -2    3.41    0.25
   2  20   2    3.87    0.23
   2  20   2    2.98    0.23
  -2  20  -2    3.38    0.19
  -3 -20  -2    1.64    0.18
   3  20   2    1.68    0.15
  -3 -21   2    2.14    0.20
  -3 -21   2    2.30    0.21
  -3  21   2    2.75    0.19
  -3  21   2    2.69    0.20
   3  21  -2    2.58    0.17
   3  21  -2    2.51    0.19
  -3  21   2    2.74    0.23
  -2 -21   2    0.30    0.11
  -2 -21   2    0.26    0.10
   2  21  -2    0.51    0.11
  -2  21   2    0.48    0.10
   2  21  -2    0.42    0.09
  -2  21   2    0.26    0.09
  -2  21   2    0.43    0.09
  -1 -21   2    0.48    0.13
  -1 -21   2    0.47    0.11
   1 -21  -2    0.37    0.11
  -1  21   2    0.41    0.10
  -1  21   2    0.33    0.10
   1  21  -2    0.53    0.12
   1  21  -2    0.53    0.11
  -1  21   2    0.37    0.13
   0 -21   2    0.39    0.15
   0 -21  -2    0.55    0.13
   0  21  -2    0.38    0.07
   0  21   2    0.30    0.12
   0  21  -2    0.41    0.08
   0  21   2    0.33    0.10
  -1 -21  -2    1.09    0.15
  -1 -21  -2    1.12    0.15
   1 -21   2    0.60    0.13
   1  21   2    0.90    0.14
  -1  21  -2    0.93    0.09
   1  21   2    0.82    0.12
  -2 -21  -2    0.94    0.13
   2  21   2    0.86    0.12
   2  21   2    0.88    0.10
  -3 -22   2    1.41    0.14
  -3  22   2    1.38    0.13
  -3  22   2    1.48    0.14
   3  22  -2    1.50    0.14
  -3  22   2    1.58    0.16
   3  22  -2    1.34    0.12
  -2 -22   2    0.44    0.10
  -2 -22   2    0.38    0.10
   2  22  -2    0.37    0.07
  -2  22   2    0.46    0.11
  -2  22   2    0.43    0.09
   2  22  -2    0.52    0.09
  -2  22   2    0.48    0.10
   1 -22  -2    0.15    0.08
  -1 -22   2    0.05    0.08
  -1 -22   2    0.09    0.10
   1  22  -2    0.08    0.06
  -1  22   2    0.02    0.06
  -1  22   2    0.10    0.10
   1  22  -2    0.14    0.09
  -1  22   2    0.08    0.06
   0 -22   2    0.00    0.11
   0 -22  -2    0.05    0.11
   0  22  -2    0.05    0.07
   0  22   2    0.00    0.07
   0  22  -2    0.09    0.08
   0  22   2    0.09    0.06
  -1 -22  -2    0.14    0.06
   1 -22   2    0.09    0.07
  -1 -22  -2    0.11    0.08
   1  22   2    0.12    0.08
   1  22   2    0.12    0.08
  -2 -22  -2    0.01    0.07
   2  22   2   -0.06    0.04
  -2 -23   2    2.34    0.20
  -2 -23   2    2.21    0.18
   2  23  -2    1.88    0.15
   2  23  -2    2.74    0.19
  -2  23   2    2.09    0.15
  -2  23   2    2.48    0.18
  -2  23   2    2.22    0.19
  -1 -23   2   -0.06    0.10
   1 -23  -2    0.06    0.09
  -1 -23   2    0.04    0.09
  -1  23   2    0.02    0.06
   1  23  -2    0.09    0.07
   1  23  -2   -0.05    0.07
  -1  23   2   -0.15    0.06
  -1  23   2    0.05    0.08
   0 -23  -2    0.95    0.14
   0 -23   2    0.77    0.12
   0  23   2    0.78    0.10
   0  23   2    0.82    0.12
   0  23  -2    0.92    0.10
   0  23  -2    0.74    0.09
  -1 -23  -2    1.89    0.16
   1  23   2    2.16    0.15
  -1  23  -2    2.01    0.15
   2  24  -2    0.05    0.04
  -2  24   2    0.16    0.06
  -1 -24   2   -0.03    0.06
   1 -24  -2    0.01    0.07
  -1  24   2   -0.08    0.06
   1  24  -2    0.04    0.06
   1  24  -2    0.05    0.06
  -1  24   2   -0.03    0.08
  -1  24   2    0.05    0.05
   0 -24  -2    0.28    0.09
   0 -24   2    0.38    0.10
   0  24  -2    0.29    0.07
   0  24   2    0.24    0.07
  -7   0   3    2.58    0.23
   7   0  -3    3.18    0.24
   7   0  -3    3.42    0.19
   6   0  -3   -0.03    0.05
   6   0  -3    0.05    0.10
  -6   0   3   -0.19    0.11
  -5   0   3    0.97    0.14
   5   0  -3    0.96    0.13
   5   0  -3    0.89    0.17
  -5   0   3    1.12    0.19
  -4   0   3   -0.05    0.07
  -4   0   3    0.08    0.17
   3   0  -3   22.58    1.13
  -3   0   3   22.23    1.35
  -3   0   3   22.43    1.12
  -2   0   3    0.11    0.14
   2   0  -3    0.23    0.16
   1   0  -3  203.46    9.84
  -1   0   3  201.34    9.86
   0   0   3    0.05    0.09
   1   0   3    2.10    0.24
   2   0   3    0.15    0.14
   3   0   3    2.16    0.23
  -3   0  -3    2.21    0.16
   3   0   3    2.16    0.24
   3   0   3    2.43    0.26
  -4   0  -3   -0.06    0.05
   4   0   3   -0.04    0.07
   4   0   3    0.15    0.08
   5   0   3    1.16    0.12
  -7  -1   3    0.51    0.09
   7  -1  -3    0.51    0.09
   7  -1  -3    0.66    0.06
  -6  -1   3    0.16    0.13
   6  -1  -3    0.22    0.07
   6  -1  -3    0.21    0.11
   6   1  -3    0.09    0.08
  -6   1   3    0.08    0.12
   6   1  -3    0.22    0.09
   5  -1  -3    7.41    0.47
   5  -1  -3    9.12    0.54
  -5  -1   3    8.48    0.53
  -5  -1   3    9.10    0.50
   5   1  -3    8.30    0.52
  -5   1   3    8.32    0.52
  -5   1   3    8.57    0.50
   5   1  -3    8.70    0.53
   5   1  -3    8.01    0.48
  -4  -1   3    0.30    0.21
  -4  -1   3    0.56    0.10
  -4   1   3    0.41    0.09
  -4   1   3    0.32    0.21
   3  -1  -3    2.51    0.27
   3  -1  -3    3.15    0.22
  -3  -1   3    3.23    0.38
  -3  -1   3    3.25    0.21
  -3   1   3    3.21    0.21
  -3   1   3    3.59    0.42
   3   1  -3    3.07    0.22
  -2  -1   3   89.80    4.05
   2  -1  -3   70.21    3.83
   2  -1  -3   75.73    3.94
  -2   1   3   86.00    4.04
  -2   1   3   75.95    3.80
   2   1  -3   78.89    3.96
  -1  -1   3   73.09    3.71
   1  -1  -3   74.42    3.69
  -1   1   3   70.82    3.70
   1   1  -3   75.44    3.69
   0  -1   3   12.02    0.70
   1  -1   3    1.68    0.24
  -1  -1  -3    1.25    0.10
   1   1   3    1.36    0.23
   2  -1   3    4.05    0.37
  -2  -1  -3    3.51    0.21
  -2  -1  -3    3.38    0.36
   2   1   3    3.54    0.36
   3  -1   3   15.38    0.83
  -3  -1  -3   15.69    0.77
   3  -1   3   13.81    0.81
   3   1   3   15.05    0.82
   3   1   3   15.62    0.83
   3   1   3   14.47    0.81
  -4  -1  -3   14.56    0.81
   4  -1   3   16.15    0.85
   4  -1   3   16.36    0.85
   4   1   3   16.53    0.86
   4   1   3   16.78    0.86
   4   1   3   15.41    0.85
   5   1   3    3.17    0.21
   7  -2  -3    0.18    0.04
  -7  -2   3    0.16    0.06
   7  -2  -3    0.24    0.06
   7   2  -3    0.15    0.04
  -6  -2   3    0.27    0.13
   6  -2  -3    0.24    0.11
   6  -2  -3    0.33    0.08
   6   2  -3    0.24    0.09
   6   2  -3    0.15    0.12
  -6   2   3    0.22    0.12
   5  -2  -3    0.52    0.16
  -5  -2   3    0.53    0.16
   5  -2  -3    0.50    0.10
   5   2  -3    0.40    0.09
  -5   2   3    0.57    0.15
   5   2  -3    0.47    0.14
  -5   2   3    0.58    0.13
   5   2  -3    0.42    0.15
  -4  -2   3   25.17    1.54
   4  -2  -3   20.75    1.38
  -4  -2   3   26.86    1.27
  -4   2   3   23.86    1.54
  -4   2   3   27.11    1.28
  -3  -2   3   27.32    1.53
   3  -2  -3   26.01    1.29
   3  -2  -3   23.91    1.39
   3   2  -3   23.65    1.43
   3   2  -3   27.07    1.30
  -3   2   3   25.83    1.52
  -3   2   3   26.73    1.29
   2  -2  -3  209.45   10.73
  -2  -2   3  237.17   10.95
  -2   2   3  240.21   10.94
   2   2  -3  216.05   10.87
  -2   2   3  215.57   10.71
   2   2  -3  226.07   10.87
  -1  -2   3   18.23    1.09
  -1   2   3   18.49    1.08
   1   2  -3   19.41    1.08
   0  -2   3  110.61    5.39
   1  -2   3    8.91    0.57
  -1  -2  -3    8.25    0.45
  -1  -2  -3    8.07    0.57
   1   2   3   10.29    0.60
  -2  -2  -3    4.06    0.25
   2  -2   3    4.63    0.39
  -2  -2  -3    4.24    0.40
   2   2   3    4.17    0.39
  -3  -2  -3    0.95    0.12
   3  -2   3    0.87    0.17
   3   2   3    0.94    0.17
   3   2   3    0.77    0.18
   3   2   3    0.99    0.17
  -4  -2  -3    0.02    0.05
  -4  -2  -3    0.04    0.05
   4  -2   3    0.05    0.08
   4   2   3    0.07    0.12
   4   2   3    0.09    0.12
   4   2   3    0.05    0.08
   7  -3  -3    0.09    0.11
  -7  -3   3    0.24    0.06
   7   3  -3    0.25    0.05
   6  -3  -3    0.91    0.15
   6  -3  -3    0.79    0.11
  -6  -3   3    1.31    0.16
   6   3  -3    0.73    0.15
  -6   3   3    0.95    0.16
   6   3  -3    0.95    0.11
  -6   3   3    0.80    0.15
  -5  -3   3   14.58    0.76
  -5  -3   3   12.56    0.77
   5  -3  -3   14.48    0.80
  -5  -3   3   14.35    0.79
  -5   3   3   13.68    0.78
   5   3  -3   14.22    0.79
  -5   3   3   14.29    0.77
   5   3  -3   14.61    0.75
   4  -3  -3    2.77    0.38
  -4  -3   3    2.80    0.48
  -4   3   3    1.97    0.40
   4   3  -3    1.87    0.17
  -4   3   3    2.85    0.22
   3  -3  -3   21.27    1.23
   3  -3  -3   22.20    1.11
  -3  -3   3   22.73    1.10
  -3  -3   3   21.91    1.34
   3   3  -3   23.34    1.13
   3   3  -3   19.65    1.26
  -3   3   3   22.00    1.35
  -3   3   3   23.04    1.12
   2  -3  -3   35.66    1.81
  -2  -3   3   38.74    2.02
   2   3  -3   35.13    1.95
   2   3  -3   37.53    1.95
  -2   3   3   36.61    1.79
  -2   3   3   37.02    1.99
  -1  -3   3    5.00    0.43
   1   3  -3    5.10    0.42
   0  -3   3   27.22    1.60
   0  -3  -3   29.05    1.54
   0   3  -3   31.49    1.62
  -1  -3  -3   -0.03    0.04
  -1  -3  -3   -0.01    0.11
   1  -3   3    0.07    0.13
   1   3   3   -0.01    0.11
   2  -3   3    0.28    0.15
  -2  -3  -3    0.23    0.07
  -2  -3  -3    0.10    0.15
   2   3   3    0.17    0.15
  -3  -3  -3   22.06    1.06
   3  -3   3   20.23    1.10
   3   3   3   20.82    1.10
   3   3   3   19.46    1.10
   3   3   3   21.05    1.11
   3   3   3   21.41    1.11
  -4  -3  -3    0.07    0.08
  -4  -3  -3    0.17    0.05
   4  -3   3    0.02    0.10
   4   3   3    0.26    0.12
   4   3   3    0.03    0.12
   4   3   3    0.17    0.12
   5   3   3    1.68    0.17
  -7  -4   3    3.18    0.21
   7  -4  -3    3.31    0.23
   7   4  -3    3.25    0.20
  -6  -4   3    8.12    0.47
   6  -4  -3    7.73    0.47
   6  -4  -3    7.49    0.43
   6   4  -3    8.58    0.45
  -6   4   3    7.37    0.46
   6   4  -3    7.87    0.48
  -5  -4   3   37.80    1.86
   5  -4  -3   37.60    1.89
  -5  -4   3   36.53    1.88
  -5  -4   3   38.31    1.89
   5   4  -3   37.60    1.89
   5   4  -3   37.09    1.85
  -5   4   3   38.57    1.88
   5   4  -3   34.76    1.89
   4  -4  -3   27.27    1.57
  -4  -4   3   30.83    1.42
  -4  -4   3   26.77    1.68
  -4   4   3   29.36    1.44
   4   4  -3   25.93    1.39
  -4   4   3   29.25    1.74
   3  -4  -3  137.13    6.72
  -3  -4   3  136.04    6.71
  -3  -4   3  145.81    7.00
   3  -4  -3  145.78    6.88
  -3   4   3  139.80    6.99
   3   4  -3  137.10    6.91
   3   4  -3  139.93    6.74
  -3   4   3  138.24    6.73
   2  -4  -3   63.09    3.24
   2  -4  -3   63.65    3.14
  -2  -4   3   67.71    3.36
   2   4  -3   62.21    3.29
  -2   4   3   64.49    3.12
  -2   4   3   63.28    3.32
   2   4  -3   68.41    3.31
  -1  -4   3    5.18    0.44
   1  -4  -3    4.67    0.37
   1   4  -3    4.95    0.42
   0  -4   3    0.40    0.17
   0  -4  -3    0.30    0.13
   0   4   3    0.55    0.21
   0   4  -3    0.45    0.17
  -1  -4  -3    0.39    0.16
  -1  -4  -3    0.21    0.06
   1   4   3    0.07    0.17
   1   4   3    0.16    0.13
  -2  -4  -3   25.72    1.45
  -2  -4  -3   27.25    1.27
   2  -4   3   21.96    1.39
   2   4   3   25.81    1.43
  -3  -4  -3    1.77    0.16
   3  -4   3    1.68    0.20
  -3  -4  -3    1.83    0.13
   3   4   3    2.11    0.23
   3   4   3    2.03    0.22
   3   4   3    1.79    0.23
   3   4   3    1.67    0.21
  -4  -4  -3    0.09    0.05
   4  -4   3    0.05    0.11
   4   4   3    0.08    0.12
   4   4   3    0.17    0.09
   4   4   3    0.16    0.09
   6  -5  -3   13.09    0.70
  -6  -5   3   13.33    0.73
   6  -5  -3   13.28    0.74
  -6  -5   3   14.48    0.75
   6   5  -3   12.89    0.74
   6   5  -3   14.91    0.72
  -6   5   3   13.58    0.74
  -5  -5   3    3.57    0.31
  -5  -5   3    3.52    0.25
   5  -5  -3    3.71    0.30
  -5  -5   3    3.82    0.31
   5   5  -3    3.35    0.30
  -5   5   3    3.13    0.27
   5   5  -3    3.32    0.26
  -5   5   3    3.32    0.32
   4  -5  -3   49.62    2.70
  -4  -5   3   48.19    2.80
  -4  -5   3   54.21    2.52
   4   5  -3   50.24    2.51
  -4   5   3   51.82    2.87
  -4   5   3   54.70    2.55
   3  -5  -3   30.14    1.51
  -3  -5   3   28.99    1.51
   3  -5  -3   28.46    1.66
  -3  -5   3   31.31    1.77
   3  -5  -3   31.15    1.67
  -3   5   3   32.79    1.80
   3   5  -3   32.07    1.73
  -3   5   3   30.59    1.53
   3   5  -3   31.78    1.54
  -2  -5   3    0.86    0.25
   2  -5  -3    0.92    0.13
   2  -5  -3    0.90    0.18
   2   5  -3    0.79    0.23
  -2   5   3    0.60    0.20
  -2   5   3    0.81    0.10
   2   5  -3    0.60    0.18
  -1  -5   3   -0.04    0.13
   1  -5  -3   -0.04    0.10
   1   5  -3    0.23    0.14
   1   5  -3    0.13    0.14
  -1   5   3   -0.15    0.12
   0  -5  -3    1.02    0.11
   0  -5   3    1.05    0.25
   0  -5  -3    1.28    0.23
   0   5  -3    1.71    0.29
   0   5   3    1.29    0.26
  -1  -5  -3    9.20    0.50
  -1  -5  -3    9.33    0.64
  -1   5  -3    8.85    0.66
   1   5   3   10.44    0.75
   1   5   3    9.62    0.62
  -2  -5  -3    2.97    0.19
  -2  -5  -3    3.33    0.23
  -2  -5  -3    3.64    0.38
   2   5   3    3.43    0.35
  -3  -5  -3   10.80    0.57
  -3  -5  -3   10.74    0.54
   3   5   3   10.11    0.61
   3   5   3    9.44    0.62
   3   5   3   10.45    0.61
   3   5   3    9.86    0.62
  -4  -5  -3    0.26    0.06
   4   5   3    0.40    0.14
   4   5   3    0.31    0.10
   4   5   3    0.28    0.12
   6  -6  -3   14.19    0.74
  -6  -6   3   12.76    0.71
   6  -6  -3   13.35    0.69
  -6  -6   3   13.62    0.72
   6   6  -3   12.85    0.73
   6   6  -3   12.98    0.69
  -6   6   3   13.17    0.72
   5  -6  -3   34.76    1.73
  -5  -6   3   32.31    1.68
  -5  -6   3   34.53    1.72
  -5  -6   3   35.38    1.72
   5   6  -3   33.41    1.73
  -5   6   3   32.17    1.71
   5   6  -3   35.22    1.69
  -5   6   3   33.41    1.72
   4  -6  -3    0.00    0.15
  -4  -6   3    0.27    0.08
   4  -6  -3    0.43    0.21
   4   6  -3    0.27    0.21
   4   6  -3    0.21    0.07
  -4   6   3    0.27    0.24
  -4   6   3    0.22    0.09
   3  -6  -3   80.17    4.03
   3  -6  -3   80.66    4.21
  -3  -6   3   85.46    4.31
   3  -6  -3   82.96    4.20
  -3   6   3   86.52    4.33
  -3   6   3   85.57    4.06
   3   6  -3   83.90    4.06
   3   6  -3   83.72    4.26
   2  -6  -3    0.40    0.15
   2  -6  -3    0.58    0.11
  -2  -6   3    0.44    0.20
  -2   6   3    0.26    0.16
  -2   6   3    0.29    0.07
   2   6  -3    0.41    0.17
   2   6  -3    0.12    0.17
  -1  -6   3    0.40    0.19
   1  -6  -3    0.49    0.16
   1   6  -3    0.45    0.18
   1   6  -3    0.30    0.15
  -1   6   3    0.55    0.18
   0  -6  -3    1.38    0.24
   0  -6  -3    1.14    0.12
   0   6  -3    1.69    0.31
   0   6   3    1.42    0.28
   0   6  -3    1.72    0.29
  -1  -6  -3    0.54    0.09
  -1  -6  -3    0.47    0.17
  -1   6  -3    0.37    0.18
  -1   6  -3    0.85    0.33
   1   6   3    0.69    0.25
  -2  -6  -3    2.35    0.16
  -2  -6  -3    2.36    0.20
  -2  -6  -3    2.74    0.39
   2   6   3    1.81    0.38
   2   6   3    2.36    0.33
  -3  -6  -3   28.13    1.37
  -3  -6  -3   27.68    1.32
   3   6   3   26.44    1.38
   3   6   3   25.90    1.40
   3   6   3   26.35    1.39
   3   6   3   26.20    1.38
  -4  -6  -3    1.65    0.13
   4   6   3    1.80    0.17
   4   6   3    1.27    0.17
   4   6   3    2.01    0.21
  -6  -7   3   18.90    1.03
   6  -7  -3   21.25    1.05
  -6  -7   3   19.44    1.03
   6   7  -3   20.94    1.01
  -6   7   3   20.31    1.04
   6   7  -3   18.88    1.04
   5  -7  -3   17.00    0.87
  -5  -7   3   16.17    0.86
  -5  -7   3   14.46    0.79
  -5  -7   3   15.05    0.85
   5   7  -3   16.51    0.82
  -5   7   3   15.93    0.86
   5   7  -3   15.11    0.86
  -5   7   3   14.47    0.83
   4  -7  -3    0.05    0.15
   4  -7  -3   -0.09    0.15
  -4  -7   3    0.01    0.04
   4   7  -3    0.03    0.05
  -4   7   3    0.07    0.09
  -4   7   3    0.00    0.19
   4   7  -3   -0.12    0.17
   3  -7  -3    0.36    0.17
   3  -7  -3    0.88    0.24
  -3  -7   3    0.50    0.23
   3   7  -3    0.48    0.11
  -3   7   3    0.47    0.09
  -3   7   3    0.50    0.23
   3   7  -3    0.55    0.23
  -2  -7   3    8.42    0.67
   2  -7  -3    8.94    0.48
   2  -7  -3    9.18    0.61
   2   7  -3    8.09    0.48
   2   7  -3    9.08    0.66
   2   7  -3    8.74    0.65
  -2   7   3    7.66    0.62
  -2   7   3    8.63    0.46
   1  -7  -3   54.60    2.70
  -1  -7   3   54.63    2.80
   1  -7  -3   50.32    2.56
   1   7  -3   54.92    2.78
  -1   7   3   50.97    2.73
   1   7  -3   52.46    2.72
   1   7  -3   49.30    2.54
   0  -7  -3    2.47    0.32
   0  -7  -3    1.57    0.16
   0   7  -3    2.19    0.33
   0   7  -3    2.25    0.31
   0   7   3    2.51    0.38
  -1  -7  -3    9.67    0.68
  -1  -7  -3    9.66    0.53
   1   7   3    9.91    0.76
  -1   7  -3    9.31    0.73
  -2  -7  -3   23.78    1.18
  -2  -7  -3   22.27    1.35
  -2  -7  -3   22.37    1.14
   2   7   3   23.46    1.48
  -3  -7  -3   14.52    0.73
  -3  -7  -3   13.95    0.77
   3   7   3   12.93    0.77
   3   7   3   14.70    0.81
   3   7   3   14.31    0.81
   3   7   3   15.22    0.79
  -4  -7  -3    0.98    0.14
  -4  -7  -3    0.81    0.09
   4   7   3    0.86    0.14
   4   7   3    0.86    0.12
   4   7   3    1.08    0.15
   6  -8  -3    2.67    0.21
  -6  -8   3    2.56    0.21
  -6  -8   3    2.63    0.21
   6   8  -3    2.25    0.20
  -6   8   3    2.81    0.22
  -5  -8   3    0.74    0.16
   5  -8  -3    0.69    0.13
  -5  -8   3    0.95    0.16
  -5   8   3    0.97    0.15
   5   8  -3    0.48    0.12
   5   8  -3    0.75    0.16
   4  -8  -3    0.10    0.17
   4  -8  -3    0.19    0.18
  -4   8   3    0.00    0.08
   4   8  -3    0.28    0.23
  -4   8   3    0.10    0.19
   4   8  -3    0.14    0.06
   3  -8  -3    0.20    0.15
  -3  -8   3    0.22    0.20
   3  -8  -3    0.07    0.16
   3   8  -3    0.13    0.09
  -3   8   3    0.18    0.19
   3   8  -3    0.03    0.16
  -3   8   3   -0.01    0.08
   2  -8  -3   20.22    1.02
  -2  -8   3   20.47    1.26
   2  -8  -3   21.31    1.18
   2   8  -3   19.52    1.23
   2   8  -3   21.43    1.23
   2   8  -3   17.97    1.02
  -2   8   3   19.76    1.01
   1  -8  -3    0.87    0.13
  -1  -8   3    0.80    0.25
   1  -8  -3    0.86    0.21
  -1   8   3    0.73    0.21
   1   8  -3    0.84    0.22
   1   8  -3    0.98    0.26
   1   8  -3    0.67    0.09
   0  -8  -3    0.23    0.09
   0  -8  -3    0.48    0.18
   0   8   3    0.27    0.16
   0   8  -3    0.48    0.18
   0   8  -3    0.33    0.20
  -1  -8  -3    3.66    0.23
  -1  -8  -3    3.96    0.27
  -1  -8  -3    4.06    0.40
  -1   8  -3    3.39    0.41
   1   8   3    4.33    0.48
  -2  -8  -3   19.15    1.18
  -2  -8  -3   19.23    1.00
  -2  -8  -3   19.89    0.96
   2   8   3   17.98    1.27
  -3  -8  -3    2.07    0.16
  -3  -8  -3    1.98    0.19
   3   8   3    1.75    0.22
   3   8   3    1.87    0.20
   3   8   3    2.19    0.24
  -4  -8  -3    0.09    0.05
  -4  -8  -3   -0.01    0.06
   4   8   3    0.03    0.07
   4   8   3   -0.02    0.08
   4   8   3    0.03    0.10
  -6  -9   3    0.08    0.10
  -6  -9   3    0.08    0.07
   6  -9  -3    0.06    0.09
  -6   9   3    0.10    0.08
   6   9  -3    0.10    0.05
   5  -9  -3    5.33    0.38
  -5  -9   3    5.66    0.39
   5   9  -3    5.59    0.38
   5   9  -3    5.35    0.35
  -5   9   3    5.59    0.40
   4  -9  -3    5.55    0.55
   4  -9  -3    5.94    0.54
  -4   9   3    6.79    0.41
  -4   9   3    5.66    0.63
   4   9  -3    6.32    0.36
   3  -9  -3    4.32    0.44
   3  -9  -3    5.61    0.50
  -3  -9   3    4.95    0.52
  -3   9   3    5.40    0.33
   3   9  -3    5.20    0.34
  -3   9   3    4.59    0.51
   3   9  -3    5.47    0.53
   2  -9  -3   89.99    4.46
  -2  -9   3   90.39    4.57
   2  -9  -3   87.52    4.27
   2   9  -3   90.47    4.52
  -2   9   3   87.59    4.27
   2   9  -3   80.05    4.28
   2   9  -3   93.31    4.52
   1  -9  -3    0.13    0.08
   1  -9  -3    0.14    0.15
  -1  -9   3   -0.05    0.14
   1   9  -3    0.06    0.16
   1   9  -3    0.09    0.05
   1   9  -3    0.12    0.17
   0  -9  -3    0.24    0.15
   0   9   3    0.00    0.13
   0   9  -3    0.10    0.14
   0   9  -3   -0.05    0.12
  -1  -9  -3    0.12    0.17
  -1  -9  -3    0.09    0.08
  -1  -9  -3    0.02    0.05
   1   9   3    0.08    0.17
  -2  -9  -3    2.83    0.24
  -2  -9  -3    2.86    0.35
  -2  -9  -3    2.79    0.19
  -3  -9  -3    1.82    0.19
  -3  -9  -3    1.97    0.15
  -3  -9  -3    2.13    0.24
   3   9   3    2.44    0.26
   3   9   3    2.27    0.25
  -4  -9  -3    1.66    0.13
  -4  -9  -3    1.77    0.18
   4   9   3    2.04    0.20
   4   9   3    2.26    0.21
   4   9   3    1.77    0.16
   6 -10  -3    1.96    0.18
  -6 -10   3    2.67    0.19
   6  10  -3    2.53    0.17
  -6  10   3    2.57    0.20
   5 -10  -3    0.49    0.14
  -5 -10   3    0.33    0.13
   5  10  -3    0.23    0.10
  -5  10   3    0.37    0.14
   5  10  -3    0.33    0.13
  -4 -10   3    0.56    0.15
  -4 -10   3    0.77    0.16
   4  10  -3    0.69    0.16
   4  10  -3    0.59    0.13
   4  10  -3    0.55    0.08
  -4  10   3    0.57    0.16
  -4  10   3    0.60    0.12
   4  10  -3    0.71    0.13
   3 -10  -3    1.26    0.26
  -3 -10   3    1.44    0.33
   3 -10  -3    1.29    0.28
  -3  10   3    2.11    0.18
  -3  10   3    2.49    0.45
   3  10  -3    2.15    0.39
   3  10  -3    2.31    0.21
   2 -10  -3   35.29    1.94
   2 -10  -3   35.17    1.74
  -2 -10   3   34.42    2.04
   2  10  -3   35.05    2.01
   2  10  -3   36.46    1.99
  -2  10   3   35.08    1.74
   1 -10  -3   18.66    0.95
   1 -10  -3   18.60    1.11
   1  10  -3   17.65    0.93
   1  10  -3   18.24    1.13
   1  10  -3   17.91    1.17
   0 -10  -3    6.66    0.55
   0  10   3    6.74    0.60
   0  10  -3    6.64    0.60
  -1 -10  -3    5.34    0.50
  -1 -10  -3    5.10    0.30
   1  10   3    5.14    0.56
  -2 -10  -3    0.34    0.08
  -2 -10  -3    0.22    0.09
   2  10   3    0.25    0.13
   2  10   3    0.20    0.15
  -3 -10  -3    1.17    0.11
  -3 -10  -3    1.37    0.19
  -3 -10  -3    0.95    0.14
   3  10   3    1.09    0.18
   3  10   3    1.43    0.19
  -4 -10  -3    0.07    0.09
   4  10   3    0.03    0.10
   4  10   3    0.01    0.06
  -6 -11   3    0.78    0.10
   6 -11  -3    0.75    0.10
   6  11  -3    0.57    0.08
  -6  11   3    0.74    0.12
  -6  11   3    0.73    0.11
  -6  11   3    0.75    0.09
   5 -11  -3    0.00    0.10
  -5 -11   3   -0.02    0.11
  -5 -11   3    0.00    0.10
  -5  11   3    0.03    0.09
  -5  11   3    0.09    0.12
   5  11  -3    0.01    0.06
   5  11  -3    0.02    0.11
  -4 -11   3    3.16    0.28
  -4 -11   3    3.53    0.29
  -4  11   3    3.42    0.30
   4  11  -3    3.11    0.26
   4  11  -3    3.08    0.27
  -4  11   3    3.39    0.25
  -4  11   3    3.03    0.29
   4  11  -3    2.53    0.24
   4  11  -3    3.25    0.25
   3 -11  -3    2.38    0.37
   3 -11  -3    1.59    0.30
  -3  11   3    2.05    0.41
   3  11  -3    2.88    0.23
  -3  11   3    2.75    0.21
   3  11  -3    2.29    0.42
   2 -11  -3    5.92    0.34
  -2 -11   3    6.33    0.61
   2 -11  -3    6.07    0.55
  -2  11   3    6.10    0.36
   2  11  -3    5.85    0.34
   2  11  -3    6.10    0.59
   2  11  -3    5.79    0.56
   1 -11  -3    0.14    0.16
   1 -11  -3    0.14    0.08
   1  11  -3    0.20    0.19
   1  11  -3    0.24    0.21
   1  11  -3    0.18    0.08
   0 -11  -3    0.03    0.08
   0 -11  -3   -0.06    0.15
   0  11  -3    0.06    0.16
   0  11  -3    0.01    0.06
   0  11   3    0.14    0.17
  -1 -11  -3    2.90    0.20
  -1 -11  -3    2.81    0.40
  -1  11  -3    2.88    0.19
   1  11   3    2.84    0.47
  -2 -11  -3    0.51    0.08
  -2 -11  -3    0.83    0.20
   2  11   3    0.32    0.16
   2  11   3    0.61    0.13
  -3 -11  -3    0.93    0.16
  -3 -11  -3    0.70    0.09
   3  11   3    0.89    0.16
   3  11   3    1.04    0.16
  -4 -11  -3   13.20    0.69
   4  11   3   12.86    0.70
   4  11   3   13.81    0.71
  -6 -12   3    2.14    0.18
   6 -12  -3    2.07    0.17
  -6  12   3    2.18    0.16
  -6  12   3    2.11    0.18
  -6  12   3    1.79    0.17
   5 -12  -3    0.41    0.10
  -5 -12   3    0.33    0.09
  -5 -12   3    0.11    0.12
  -5  12   3    0.23    0.08
   5  12  -3    0.24    0.07
  -5  12   3    0.34    0.13
  -5  12   3    0.42    0.14
  -4 -12   3    0.29    0.13
  -4 -12   3    0.32    0.13
   4  12  -3    0.31    0.09
   4  12  -3    0.26    0.12
  -4  12   3    0.41    0.15
  -4  12   3    0.24    0.10
   4  12  -3    0.18    0.10
  -4  12   3    0.68    0.16
   3 -12  -3   54.71    3.04
   3 -12  -3   56.59    3.11
   3  12  -3   59.93    3.17
   3  12  -3   61.33    2.90
  -3  12   3   60.02    2.89
   2 -12  -3   40.68    2.18
  -2  12   3   38.89    1.95
   2  12  -3   39.90    2.25
   2  12  -3   38.70    1.93
   2  12  -3   39.53    2.21
   1 -12  -3    2.02    0.18
   1 -12  -3    1.57    0.30
   1  12  -3    1.25    0.30
   1  12  -3    1.67    0.35
   1  12  -3    1.61    0.16
   1  12  -3    1.61    0.13
   0 -12  -3   17.50    0.86
   0 -12  -3   16.05    1.03
   0  12  -3   15.43    0.81
   0  12  -3   15.79    1.08
   0  12  -3   14.56    0.78
   0  12   3   15.59    1.09
  -1 -12  -3    1.29    0.28
  -1  12  -3    1.38    0.13
  -2 -12  -3    8.46    0.55
   2  12   3    8.30    0.52
   2  12   3    8.74    0.54
  -3 -12  -3   -0.04    0.11
   3  12   3    0.11    0.12
   3  12   3    0.34    0.11
  -4 -12  -3    0.70    0.10
  -4 -12  -3    0.59    0.08
   4  12   3    0.62    0.10
   4  12   3    0.59    0.08
  -6 -13   3    0.05    0.05
  -6  13   3    0.05    0.05
  -6  13   3    0.02    0.05
   6  13  -3   -0.03    0.03
  -5 -13   3    2.16    0.18
  -5 -13   3    1.98    0.20
   5 -13  -3    1.29    0.16
   5  13  -3    2.06    0.16
  -5  13   3    1.98    0.22
  -5  13   3    2.03    0.19
  -4 -13   3   13.39    0.75
  -4 -13   3   13.74    0.76
  -4  13   3   14.67    0.78
   4  13  -3   13.29    0.75
   4  13  -3   13.17    0.77
  -4  13   3   13.32    0.77
  -4  13   3   14.23    0.75
   4  13  -3   13.80    0.73
  -3 -13   3   28.78    1.56
  -3 -13   3   29.38    1.54
   3  13  -3   32.71    1.55
   3  13  -3   31.49    1.53
  -3  13   3   29.41    1.56
   3  13  -3   29.51    1.54
   3  13  -3   31.23    1.57
  -3  13   3   29.36    1.55
  -3  13   3   31.21    1.53
  -3  13   3   29.83    1.54
   2 -13  -3   47.62    2.53
  -2  13   3   49.27    2.29
   2  13  -3   44.68    2.59
   2  13  -3   45.56    2.26
   2  13  -3   44.93    2.55
   1 -13  -3    1.36    0.29
   1 -13  -3    2.50    0.19
   1  13  -3    2.34    0.41
   1  13  -3    2.47    0.21
   0 -13  -3    1.06    0.16
   0 -13  -3    0.72    0.24
   0  13   3    0.83    0.28
   0  13  -3    0.37    0.21
   0  13  -3    1.03    0.10
   0  13  -3    1.12    0.13
  -1 -13  -3    0.87    0.19
  -1 -13  -3    0.82    0.16
  -1 -13  -3    1.20    0.21
   1 -13   3    1.07    0.20
  -1  13  -3    0.93    0.11
   1  13   3    1.00    0.18
   1  13   3    1.13    0.20
  -2 -13  -3    7.52    0.49
   2  13   3    7.75    0.48
  -2  13  -3    7.19    0.41
   2  13   3    7.35    0.47
  -3 -13  -3    6.76    0.43
  -3 -13  -3    7.75    0.45
   3  13   3    7.40    0.46
   3  13   3    7.44    0.45
   4  13   3    1.96    0.17
  -5 -14   3    0.24    0.08
  -5 -14   3    0.15    0.10
  -5  14   3    0.13    0.11
   5  14  -3    0.23    0.07
  -5  14   3    0.26    0.09
  -5  14   3    0.24    0.12
  -4 -14   3    5.60    0.38
  -4 -14   3    5.87    0.39
  -4  14   3    5.86    0.36
  -4  14   3    5.52    0.40
   4  14  -3    5.78    0.39
   4  14  -3    6.20    0.37
  -4  14   3    6.45    0.41
   4  14  -3    4.98    0.36
  -3 -14   3    0.87    0.16
  -3 -14   3    0.73    0.17
  -3  14   3    0.60    0.12
   3  14  -3    0.50    0.15
   3  14  -3    0.47    0.14
  -3  14   3    0.38    0.14
   3  14  -3    0.54    0.11
  -3  14   3    0.48    0.16
  -3  14   3    0.41    0.11
   3  14  -3    0.64    0.14
   2 -14  -3   69.72    3.68
   2  14  -3   70.57    3.78
  -2  14   3   74.85    3.43
   2  14  -3   68.28    3.69
   2  14  -3   68.26    3.41
   1 -14  -3    0.28    0.21
   1 -14  -3    0.62    0.10
   1  14  -3    0.64    0.31
   1  14  -3    0.74    0.13
   0 -14  -3   -0.05    0.17
   0 -14  -3    0.09    0.08
   0  14   3    0.13    0.20
   0  14  -3    0.04    0.09
   0  14  -3    0.09    0.20
   0  14  -3    0.09    0.06
  -1 -14  -3    1.01    0.18
   1 -14   3    1.11    0.20
  -1 -14  -3    1.18    0.21
  -1 -14  -3    0.98    0.14
   1  14   3    0.71    0.16
   1  14   3    1.11    0.19
  -2 -14  -3    1.56    0.21
  -2  14  -3    1.29    0.12
   2  14   3    1.33    0.18
   2  14   3    1.52    0.21
  -3 -14  -3    0.15    0.08
  -3 -14  -3    0.24    0.11
   3  14   3    0.15    0.10
   3  14   3    0.20    0.09
  -5 -15   3    0.00    0.06
  -5 -15   3    0.13    0.07
  -5  15   3   -0.01    0.09
  -5  15   3    0.01    0.05
   5  15  -3    0.04    0.05
  -5  15   3   -0.01    0.06
  -4 -15   3    0.72    0.12
   4  15  -3    0.69    0.13
   4  15  -3    0.55    0.11
  -4  15   3    0.42    0.13
  -4  15   3    0.40    0.12
  -3 -15   3   18.12    0.94
  -3 -15   3   17.45    0.96
   3  15  -3   17.90    0.96
   3  15  -3   17.78    0.94
  -3  15   3   17.00    0.92
   3  15  -3   16.97    0.92
   3  15  -3   18.51    0.92
  -3  15   3   17.25    0.95
  -3  15   3   16.81    0.92
  -3  15   3   17.03    0.94
  -2 -15   3    2.52    0.29
  -2 -15   3    2.31    0.27
  -2 -15   3    2.69    0.26
  -2  15   3    2.71    0.25
   2  15  -3    2.79    0.25
  -2  15   3    2.66    0.28
  -2  15   3    2.33    0.27
  -2  15   3    2.52    0.19
   2  15  -3    2.41    0.23
   1 -15  -3    8.76    0.57
  -1 -15   3    8.95    0.57
  -1 -15   3    9.22    0.59
   1  15  -3    8.39    0.55
  -1  15   3    9.14    0.55
  -1  15   3    8.92    0.55
   1  15  -3   10.44    0.54
   0 -15  -3    2.22    0.28
   0 -15   3    2.73    0.28
   0 -15   3    2.43    0.28
   0 -15  -3    2.38    0.21
   0  15   3    2.79    0.27
   0  15   3    2.85    0.29
   0  15  -3    2.77    0.22
   0  15  -3    2.76    0.18
  -1 -15  -3    4.65    0.37
  -1 -15  -3    4.90    0.37
  -1 -15  -3    4.16    0.37
   1 -15   3    4.49    0.37
  -1  15  -3    4.85    0.29
   1  15   3    4.72    0.37
  -1  15  -3    4.53    0.26
   1  15   3    4.40    0.34
  -2 -15  -3    2.99    0.25
  -2 -15  -3    3.24    0.28
   2  15   3    2.82    0.25
   2  15   3    2.80    0.23
  -3 -15  -3    2.28    0.22
  -3 -15  -3    2.43    0.19
   3  15   3    2.69    0.23
   3  15   3    2.54    0.20
  -5 -16   3    0.17    0.08
  -5 -16   3    0.16    0.08
  -5  16   3    0.20    0.08
  -5  16   3    0.05    0.06
  -5  16   3    0.17    0.07
   5  16  -3    0.16    0.05
  -4 -16   3   -0.12    0.11
  -4  16   3    0.00    0.09
   4  16  -3    0.05    0.09
  -4  16   3    0.14    0.11
  -4  16   3    0.04    0.08
   4  16  -3    0.07    0.09
  -3 -16   3   35.16    1.76
  -3 -16   3   34.92    1.79
   3  16  -3   34.01    1.74
  -3  16   3   35.97    1.79
  -3  16   3   34.13    1.77
   3  16  -3   35.88    1.79
   3  16  -3   35.50    1.76
  -3  16   3   34.57    1.76
  -2 -16   3    9.36    0.55
  -2 -16   3    9.58    0.58
  -2 -16   3    8.48    0.57
   2  16  -3   10.06    0.53
  -2  16   3    9.04    0.54
  -2  16   3    9.61    0.58
  -2  16   3    9.24    0.56
  -2  16   3    8.65    0.50
   2  16  -3    9.37    0.54
  -1 -16   3    1.76    0.22
   1 -16  -3    1.40    0.21
  -1 -16   3    1.48    0.21
  -1  16   3    1.34    0.20
   1  16  -3    1.57    0.18
  -1  16   3    1.81    0.21
   1  16  -3    1.67    0.19
   1  16  -3    1.53    0.14
   0 -16   3    9.74    0.61
   0 -16  -3    9.76    0.61
   0 -16   3    8.87    0.59
   0 -16  -3    9.09    0.53
   0  16  -3   10.45    0.51
   0  16   3    9.16    0.59
   0  16   3    9.54    0.58
   0  16  -3   10.39    0.55
  -1 -16  -3   14.61    0.79
   1 -16   3   13.69    0.80
  -1 -16  -3   14.11    0.80
  -1  16  -3   13.94    0.73
   1  16   3   13.66    0.78
   1  16   3   13.68    0.77
  -1  16  -3   13.80    0.70
  -2 -16  -3    7.29    0.44
  -2 -16  -3    8.04    0.48
   2  16   3    7.98    0.48
   2  16   3    7.44    0.46
  -3 -16  -3    0.86    0.12
  -3 -16  -3    0.84    0.11
   3  16   3    1.10    0.14
  -5 -17   3    0.10    0.07
  -5  17   3    0.03    0.04
   5  17  -3    0.01    0.04
  -5  17   3    0.00    0.05
  -4 -17   3    0.08    0.08
   4  17  -3   -0.09    0.08
  -4  17   3   -0.03    0.06
  -4  17   3    0.00    0.09
  -4  17   3   -0.06    0.10
   4  17  -3   -0.12    0.05
  -3 -17   3    1.85    0.20
  -3 -17   3    1.81    0.22
  -3  17   3    1.38    0.19
   3  17  -3    1.77    0.18
  -3  17   3    1.90    0.19
   3  17  -3    1.87    0.20
  -3  17   3    2.16    0.23
   3  17  -3    2.15    0.17
  -2 -17   3    1.36    0.21
  -2 -17   3    1.28    0.16
  -2 -17   3    1.30    0.20
  -2  17   3    1.20    0.16
   2  17  -3    1.33    0.17
  -2  17   3    1.26    0.20
   2  17  -3    1.44    0.16
  -2  17   3    1.21    0.17
  -1 -17   3   26.91    1.37
   1 -17  -3   26.10    1.36
  -1 -17   3   26.89    1.36
   1  17  -3   25.06    1.31
   1  17  -3   24.60    1.30
  -1  17   3   24.65    1.33
   1  17  -3   24.46    1.32
   1  17  -3   26.78    1.28
  -1  17   3   26.51    1.35
   0 -17   3    5.06    0.39
   0 -17  -3    4.98    0.39
   0  17  -3    4.71    0.28
   0  17  -3    5.17    0.33
   0  17   3    5.08    0.39
  -1 -17  -3   40.12    1.99
   1 -17   3   38.64    2.01
  -1 -17  -3   40.11    2.01
   1  17   3   41.01    2.00
  -1  17  -3   39.39    1.96
  -1  17  -3   38.22    1.92
  -2 -17  -3   11.21    0.59
   2  17   3   10.12    0.58
  -2  17  -3    9.46    0.51
  -3 -17  -3    4.52    0.27
  -3 -17  -3    3.18    0.26
   3  17   3    4.61    0.27
  -4 -18   3    3.16    0.26
  -4 -18   3    3.43    0.24
   4  18  -3    3.54    0.24
  -4  18   3    3.60    0.25
  -4  18   3    3.15    0.23
  -4  18   3    3.55    0.25
   4  18  -3    4.12    0.24
  -3 -18   3    2.68    0.26
  -3 -18   3    2.23    0.20
   3  18  -3    2.27    0.20
  -3  18   3    2.79    0.23
  -3  18   3    2.07    0.20
  -3  18   3    2.35    0.22
   3  18  -3    2.57    0.24
   3  18  -3    2.54    0.19
  -2 -18   3    1.52    0.19
  -2 -18   3    1.41    0.20
   2  18  -3    1.40    0.15
  -2  18   3    1.19    0.17
  -2  18   3    1.24    0.20
   2  18  -3    1.77    0.18
   2  18  -3    1.05    0.17
  -1 -18   3    5.41    0.39
  -1 -18   3    4.91    0.38
   1 -18  -3    4.82    0.37
   1  18  -3    4.83    0.32
   1  18  -3    4.61    0.32
  -1  18   3    5.14    0.37
   1  18  -3    4.37    0.28
   0 -18   3   11.50    0.68
   0 -18  -3   11.27    0.67
   0  18  -3   11.16    0.62
   0  18   3   10.78    0.64
  -1 -18  -3    1.15    0.17
  -1 -18  -3    1.34    0.19
   1 -18   3    1.33    0.20
   1  18   3    1.07    0.17
  -1  18  -3    1.65    0.11
  -2 -18  -3    0.15    0.11
   2  18   3    0.22    0.10
  -2  18  -3    0.17    0.05
  -4 -19   3    5.07    0.29
  -4 -19   3    3.99    0.28
   4  19  -3    4.08    0.27
   4  19  -3    4.69    0.26
  -4  19   3    4.27    0.28
  -4  19   3    4.69    0.28
  -3 -19   3    1.00    0.14
  -3 -19   3    0.94    0.14
  -3  19   3    0.64    0.14
   3  19  -3    1.02    0.12
   3  19  -3    0.81    0.11
  -3  19   3    1.00    0.14
  -2 -19   3    0.42    0.14
  -2 -19   3    0.28    0.10
   2  19  -3    0.38    0.10
   2  19  -3    0.26    0.09
  -2  19   3    0.24    0.11
  -2  19   3    0.36    0.14
   2  19  -3    0.38    0.11
   1 -19  -3    2.69    0.27
  -1 -19   3    3.08    0.29
  -1 -19   3    3.19    0.29
  -1  19   3    3.18    0.28
   1  19  -3    2.70    0.20
   1  19  -3    2.53    0.18
   1  19  -3    2.40    0.20
   0 -19  -3    9.46    0.56
   0 -19   3    8.86    0.54
   0  19   3    9.98    0.55
   0  19  -3    7.54    0.50
   0  19  -3    8.98    0.47
  -1 -19  -3    1.19    0.14
  -1 -19  -3    1.02    0.16
   1 -19   3    0.93    0.16
  -1  19  -3    1.00    0.09
   1  19   3    1.15    0.14
  -2 -19  -3    0.94    0.12
   2  19   3    0.88    0.11
  -4 -20   3    0.31    0.08
   4  20  -3    0.31    0.05
  -4  20   3    0.25    0.08
  -4  20   3    0.34    0.07
  -3 -20   3    0.57    0.11
  -3 -20   3    0.54    0.09
   3  20  -3    0.36    0.07
   3  20  -3    0.39    0.10
  -3  20   3    0.48    0.10
  -3  20   3    0.53    0.09
  -2 -20   3    2.03    0.21
  -2 -20   3    2.25    0.23
  -2  20   3    2.44    0.21
   2  20  -3    2.26    0.20
   2  20  -3    2.63    0.20
   2  20  -3    2.74    0.22
  -2  20   3    2.28    0.20
  -1 -20   3    0.94    0.14
  -1 -20   3    0.84    0.14
   1 -20  -3    0.76    0.15
   1  20  -3    0.99    0.13
   1  20  -3    0.93    0.11
  -1  20   3    1.06    0.15
   0 -20  -3    2.91    0.25
   0  20   3    3.12    0.24
   0  20  -3    3.65    0.23
   0  20  -3    3.01    0.19
  -1 -20  -3    1.79    0.17
  -1 -20  -3    1.91    0.18
   1 -20   3    2.12    0.21
   1  20   3    1.94    0.18
  -2 -20  -3    0.07    0.05
   2  20   3    0.07    0.08
  -3 -21   3    0.31    0.08
   3  21  -3    0.30    0.08
  -3  21   3    0.38    0.10
   3  21  -3    0.32    0.06
  -3  21   3    0.33    0.07
  -2 -21   3    4.05    0.29
  -2 -21   3    3.70    0.28
   2  21  -3    4.16    0.25
  -2  21   3    3.18    0.23
   2  21  -3    4.01    0.26
   2  21  -3    3.78    0.27
  -2  21   3    3.71    0.28
   1 -21  -3    0.37    0.10
  -1 -21   3    0.45    0.11
  -1 -21   3    0.38    0.10
   1  21  -3    0.35    0.09
  -1  21   3    0.35    0.12
   1  21  -3    0.42    0.08
   0 -21   3    0.55    0.11
   0 -21  -3    0.46    0.13
   0  21  -3    0.42    0.06
   0  21  -3    0.61    0.08
   0  21   3    0.44    0.12
   0  21   3    0.49    0.10
  -1 -21  -3    0.70    0.09
  -1 -21  -3    0.59    0.11
   1  21   3    0.62    0.11
  -1  21  -3    0.68    0.09
  -3 -22   3    1.85    0.18
   3  22  -3    1.83    0.14
   3  22  -3    1.90    0.17
  -3  22   3    1.96    0.17
  -2 -22   3    3.53    0.24
  -2 -22   3    3.77    0.25
  -2  22   3    3.26    0.22
   2  22  -3    3.17    0.21
   2  22  -3    3.37    0.21
  -2  22   3    2.68    0.20
  -1 -22   3    0.21    0.08
   1 -22  -3    0.26    0.10
  -1 -22   3    0.28    0.10
   1  22  -3    0.33    0.06
   1  22  -3    0.20    0.07
   1  22  -3    0.10    0.06
  -1  22   3    0.31    0.10
   0 -22   3    0.69    0.12
   0 -22  -3    0.68    0.11
   0  22   3    0.51    0.09
   0  22  -3    0.47    0.07
   2  23  -3    0.42    0.11
  -1 -23   3    1.65    0.16
  -1  23   3    1.68    0.15
   1  23  -3    1.31    0.11
   0 -23  -3    0.07    0.07
  -6   0   4    1.62    0.18
   6   0  -4    1.78    0.20
   5   0  -4   -0.06    0.11
  -5   0   4   -0.01    0.13
   4   0  -4    0.09    0.06
  -4   0   4    0.16    0.21
   3   0  -4   -0.01    0.08
  -3   0   4   -0.04    0.14
   2   0  -4    1.39    0.29
  -2   0   4    1.82    0.37
   1   0  -4    0.01    0.14
   1   0  -4    0.05    0.06
   0   0  -4  117.83    5.67
  -1   0  -4    0.20    0.07
  -2   0  -4    0.62    0.09
   2   0   4    0.69    0.14
   2   0   4    0.58    0.15
   2   0   4    0.55    0.15
  -3   0  -4    0.00    0.05
   3   0   4    0.13    0.11
   4   0   4    0.68    0.09
   6  -1  -4    0.21    0.10
  -6  -1   4    0.07    0.11
   6   1  -4    0.10    0.08
  -6   1   4    0.03    0.07
  -5  -1   4    3.74    0.32
   5  -1  -4    4.18    0.33
  -5   1   4    3.50    0.27
   5   1  -4    4.22    0.33
  -5   1   4    3.86    0.32
  -4  -1   4    5.99    0.62
   4  -1  -4    6.06    0.34
   4   1  -4    6.18    0.36
  -4   1   4    5.79    0.61
  -3  -1   4    6.84    0.63
   3   1  -4    6.75    0.41
  -3   1   4    6.60    0.62
   2  -1  -4    6.71    0.56
  -2  -1   4    7.73    0.65
   2   1  -4    6.93    0.41
  -2   1   4    7.39    0.62
   2   1  -4    7.65    0.59
   1  -1  -4   69.08    3.70
   1  -1  -4   68.99    3.49
   1   1  -4   79.38    3.74
   1   1  -4   70.86    3.49
   0  -1  -4   38.91    1.88
   0   1  -4   37.86    2.13
   0   1  -4   37.65    1.87
  -1  -1  -4   48.70    2.34
  -1   1  -4   46.97    2.33
   2  -1   4    0.91    0.17
   2  -1   4    0.89    0.18
   2  -1   4    1.09    0.17
  -2  -1  -4    1.08    0.11
   2   1   4    1.14    0.18
  -2   1  -4    0.93    0.10
   2   1   4    1.05    0.18
   2   1   4    0.95    0.18
   3  -1   4    1.68    0.19
  -3  -1  -4    1.42    0.13
   3   1   4    1.84    0.19
   4  -1   4    1.22    0.12
   4   1   4    1.43    0.13
   6  -2  -4   -0.05    0.06
  -6  -2   4    0.04    0.08
   6   2  -4    0.00    0.07
  -6   2   4    0.08    0.07
  -5  -2   4    0.26    0.15
   5  -2  -4    0.45    0.15
   5   2  -4    0.23    0.10
  -5   2   4    0.39    0.14
  -4  -2   4   20.32    1.39
  -4   2   4   19.30    1.37
   4   2  -4   22.04    1.06
  -3  -2   4    4.49    0.52
  -3   2   4    4.51    0.50
   3   2  -4    4.20    0.57
   3   2  -4    5.22    0.33
  -2  -2   4    1.98    0.38
   2   2  -4    1.69    0.31
   2   2  -4    1.52    0.29
  -2   2   4    2.28    0.41
   2   2  -4    1.77    0.16
  -1  -2   4   53.15    2.96
   1  -2  -4   55.27    2.72
   1  -2  -4   56.14    2.94
   1   2  -4   59.29    2.96
   1   2  -4   54.97    2.72
   0  -2  -4    0.03    0.06
   0   2  -4    0.01    0.05
   0   2  -4    0.04    0.14
  -1  -2  -4   72.20    3.38
  -1   2  -4   69.19    3.67
  -1   2  -4   67.53    3.36
  -2  -2  -4    1.91    0.17
   2  -2   4    2.15    0.23
   2  -2   4    1.46    0.19
   2   2   4    1.97    0.23
   2   2   4    2.05    0.22
   2   2   4    1.63    0.20
   3  -2   4   11.39    0.63
  -3  -2  -4   10.71    0.56
  -3  -2  -4   10.48    0.58
   3   2   4   11.24    0.63
   3   2   4   11.60    0.63
   4  -2   4    0.26    0.08
   4   2   4    0.07    0.08
   6  -3  -4    0.29    0.09
  -6  -3   4    0.33    0.10
   6   3  -4    0.26    0.07
  -6   3   4    0.24    0.10
   6   3  -4   -0.01    0.11
   5  -3  -4    2.06    0.22
  -5  -3   4    1.23    0.17
  -5  -3   4    1.62    0.21
   5   3  -4    1.14    0.18
  -5   3   4    2.05    0.22
  -4  -3   4   74.80    3.97
   4   3  -4   75.75    3.60
  -4   3   4   71.10    3.58
  -4   3   4   74.52    3.97
   3  -3  -4   13.40    0.71
  -3  -3   4   13.66    0.98
  -3   3   4   12.63    0.95
   3   3  -4   12.80    0.91
   3   3  -4   13.50    0.73
  -2  -3   4    7.91    0.66
  -2   3   4    6.88    0.63
   2   3  -4    8.10    0.62
   2   3  -4    7.62    0.64
   2   3  -4    7.25    0.43
   1  -3  -4    6.58    0.39
  -1  -3   4    6.27    0.58
   1  -3  -4    6.35    0.54
   1   3  -4    6.65    0.38
   1   3  -4    6.64    0.57
   0  -3  -4    8.36    0.47
   0   3  -4    8.59    0.46
   0   3  -4    8.63    0.67
  -1  -3  -4    6.97    0.39
  -1  -3  -4    7.91    0.42
  -1   3  -4    6.98    0.63
  -2  -3  -4    7.70    0.40
   2  -3   4    7.27    0.49
  -2  -3  -4    8.17    0.44
   2   3   4    7.36    0.49
   2   3   4    7.63    0.49
   2   3   4    7.13    0.48
   2   3   4    7.34    0.48
   3  -3   4    3.00    0.27
  -3  -3  -4    3.16    0.19
  -3  -3  -4    3.28    0.22
   3   3   4    3.23    0.28
   3   3   4    3.65    0.28
   4   3   4    3.30    0.23
   4   3   4    3.47    0.22
   6  -4  -4   11.53    0.67
  -6  -4   4   12.71    0.67
   6   4  -4   12.95    0.69
   6   4  -4   11.92    0.64
  -5  -4   4    9.19    0.57
  -5  -4   4   10.72    0.60
   5  -4  -4    9.90    0.59
  -5   4   4    9.38    0.57
   5   4  -4    9.79    0.59
  -4  -4   4    9.13    0.85
  -4   4   4    9.49    0.86
   4   4  -4   11.50    0.59
  -4   4   4   11.42    0.57
   3  -4  -4    1.69    0.17
  -3  -4   4    1.63    0.39
  -3   4   4    0.95    0.28
   3   4  -4    1.36    0.34
   3   4  -4    1.55    0.18
  -2  -4   4    6.69    0.60
   2  -4  -4    5.81    0.39
   2   4  -4    6.08    0.37
   2   4  -4    6.21    0.56
   2   4  -4    6.31    0.55
   1  -4  -4    1.32    0.15
  -1  -4   4    0.97    0.28
   1  -4  -4    1.13    0.27
   1   4  -4    0.95    0.27
   1   4  -4    1.17    0.12
   0  -4  -4    0.36    0.07
   0  -4  -4    0.27    0.07
   0   4  -4    0.27    0.07
   0   4  -4    0.19    0.19
  -1  -4  -4   15.22    0.74
  -1  -4  -4   14.09    0.70
  -1   4  -4   11.36    0.92
  -2  -4  -4   37.41    1.82
   2  -4   4   35.05    1.84
  -2  -4  -4   38.02    1.78
   2   4   4   36.33    1.85
   2   4   4   37.28    1.85
   2   4   4   36.15    1.86
   2   4   4   35.34    1.84
  -3  -4  -4    2.38    0.16
  -3  -4  -4    1.94    0.19
   3  -4   4    2.35    0.22
   3   4   4    2.13    0.21
   3   4   4    2.72    0.24
   4   4   4    9.14    0.59
   4   4   4   12.50    0.58
   6  -5  -4    3.13    0.24
  -6  -5   4    2.44    0.20
  -6  -5   4    2.84    0.25
   6   5  -4    2.84    0.23
   6   5  -4    2.49    0.18
  -5  -5   4   16.20    0.88
  -5  -5   4   16.18    0.89
   5  -5  -4   16.31    0.89
   5   5  -4   16.62    0.90
  -4  -5   4    1.67    0.28
   4  -5  -4    2.70    0.38
  -4  -5   4    3.14    0.55
  -4   5   4    1.85    0.43
  -4   5   4    2.67    0.19
   4   5  -4    2.67    0.20
   3  -5  -4   52.31    2.50
  -3  -5   4   49.89    2.80
   3   5  -4   50.34    2.74
   3   5  -4   50.99    2.52
  -3   5   4   50.10    2.79
   2  -5  -4   15.19    0.80
  -2  -5   4   14.98    1.04
   2   5  -4   14.08    0.99
   2   5  -4   14.36    0.78
   2   5  -4   15.07    0.99
   1  -5  -4    0.37    0.09
  -1  -5   4    0.31    0.21
   1   5  -4    0.18    0.19
   1   5  -4    0.31    0.18
   1   5  -4    0.28    0.08
   0  -5  -4    0.07    0.05
   0  -5  -4    0.09    0.07
   0   5  -4    0.04    0.05
   0   5  -4   -0.06    0.15
  -1  -5  -4    2.14    0.18
  -1  -5  -4    2.06    0.15
  -1   5  -4    1.08    0.29
  -1   5  -4    1.40    0.32
  -2  -5  -4    2.02    0.18
   2  -5   4    1.56    0.21
  -2  -5  -4    2.00    0.15
   2   5   4    1.48    0.20
   2   5   4    2.36    0.24
   2   5   4    2.15    0.24
   3  -5   4    5.23    0.37
  -3  -5  -4    6.47    0.33
   3   5   4    6.20    0.38
   3   5   4    6.45    0.41
   4   5   4    2.54    0.18
  -6  -6   4    0.63    0.11
  -6  -6   4    0.51    0.09
   6  -6  -4    0.50    0.12
  -6   6   4    0.43    0.11
   6   6  -4    0.61    0.09
   6   6  -4    0.57    0.11
  -5  -6   4    2.01    0.21
   5  -6  -4    1.48    0.19
  -5  -6   4    1.62    0.20
   5   6  -4    1.61    0.16
  -5   6   4    1.64    0.21
   5   6  -4    1.96    0.22
  -4  -6   4   67.67    3.33
  -4  -6   4   63.12    3.33
   4   6  -4   71.18    3.36
  -4   6   4   62.96    3.33
   4   6  -4   67.34    3.33
  -4   6   4   71.23    3.30
   4   6  -4   70.76    3.31
  -3  -6   4   31.74    1.89
   3  -6  -4   31.48    1.58
   3   6  -4   32.07    1.83
  -3   6   4   31.08    1.87
  -2  -6   4    0.16    0.21
   2  -6  -4    0.04    0.09
   2   6  -4    0.16    0.09
   2   6  -4    0.17    0.19
   2   6  -4    0.10    0.06
   2   6  -4    0.10    0.20
  -1  -6   4    5.81    0.59
   1   6  -4    6.55    0.37
   1   6  -4    6.26    0.56
   1   6  -4    5.66    0.57
   0  -6  -4    2.72    0.18
   0  -6  -4    3.03    0.22
   0   6  -4    2.84    0.41
   0   6  -4    2.64    0.18
   0   6  -4    2.44    0.41
  -1  -6  -4    0.82    0.13
  -1  -6  -4    0.72    0.09
  -1   6  -4    0.24    0.19
  -2  -6  -4   29.19    1.40
  -2  -6  -4   28.96    1.45
   2   6   4   28.40    1.47
   2   6   4   28.83    1.47
   2   6   4   27.31    1.46
  -3  -6  -4    1.50    0.12
   3   6   4    1.03    0.15
   3   6   4    1.41    0.17
  -6  -7   4    0.68    0.10
   6  -7  -4    0.62    0.11
  -6  -7   4    0.58    0.10
   6   7  -4    0.84    0.12
  -6   7   4    0.58    0.10
   6   7  -4    0.55    0.08
  -5  -7   4    3.36    0.28
   5  -7  -4    2.88    0.26
  -5  -7   4    3.46    0.29
   5   7  -4    2.87    0.23
   5   7  -4    2.82    0.29
  -5   7   4    3.20    0.29
  -4  -7   4   75.61    3.67
  -4  -7   4   75.58    3.63
   4   7  -4   75.12    3.65
  -4   7   4   72.19    3.59
   4   7  -4   73.51    3.62
  -4   7   4   72.19    3.63
   3  -7  -4   28.70    1.39
  -3  -7   4   28.05    1.72
   3   7  -4   28.72    1.43
  -3   7   4   25.74    1.66
   3   7  -4   27.20    1.66
  -2  -7   4   11.65    0.92
   2  -7  -4   12.42    0.67
   2   7  -4   11.65    0.61
   2   7  -4   11.39    0.87
   2   7  -4   11.63    0.87
   2   7  -4   11.94    0.65
   1  -7  -4    6.61    0.61
   1  -7  -4    5.79    0.36
  -1  -7   4    7.40    0.66
   1   7  -4    6.31    0.61
   1   7  -4    7.45    0.40
   1   7  -4    6.36    0.35
   1   7  -4    6.89    0.59
   0  -7  -4    1.65    0.17
   0  -7  -4    1.67    0.14
   0  -7  -4    1.21    0.25
   0   7  -4    1.62    0.14
   0   7  -4    1.17    0.29
   0   7  -4    1.18    0.29
   1  -7   4    0.09    0.20
  -1  -7  -4    0.32    0.11
  -1  -7  -4    0.28    0.08
  -1  -7  -4   -0.02    0.17
   1   7   4    0.20    0.15
  -1   7  -4   -0.04    0.16
   1   7   4    0.37    0.22
   1   7   4    0.40    0.19
  -2  -7  -4    1.00    0.10
  -2  -7  -4    0.91    0.13
   2   7   4    1.14    0.18
   2   7   4    0.78    0.17
   2   7   4    1.02    0.16
  -3  -7  -4    0.20    0.06
   3   7   4    0.31    0.10
   3   7   4    0.23    0.10
   6  -8  -4    1.56    0.15
  -6  -8   4    1.73    0.16
  -6  -8   4    2.07    0.18
  -6   8   4    1.86    0.16
   6   8  -4    1.69    0.19
   6   8  -4    1.70    0.14
  -5  -8   4   14.64    0.80
  -5  -8   4   13.73    0.79
  -5   8   4   14.20    0.80
   5   8  -4   14.94    0.76
   5   8  -4   15.31    0.82
  -4  -8   4    2.55    0.24
  -4   8   4    2.27    0.18
  -4   8   4    2.05    0.24
   4   8  -4    2.09    0.25
   4   8  -4    2.18    0.24
   4   8  -4    2.51    0.21
  -3  -8   4   15.11    1.14
   3  -8  -4   15.66    0.82
   3   8  -4   17.42    0.88
   3   8  -4   15.73    1.10
   2  -8  -4   13.51    0.95
   2  -8  -4   16.31    0.81
  -2  -8   4   15.27    1.09
   2   8  -4   14.49    0.79
   2   8  -4   13.78    1.01
   2   8  -4   15.23    1.05
   2   8  -4   14.35    0.75
  -1  -8   4    6.17    0.60
   1  -8  -4    5.47    0.52
   1   8  -4    6.33    0.57
   1   8  -4    5.95    0.59
   1   8  -4    6.53    0.37
   1   8  -4    5.88    0.33
   0  -8  -4    5.71    0.32
   0  -8  -4    5.52    0.36
   0  -8  -4    5.13    0.50
   0   8  -4    5.13    0.56
   0   8  -4    5.47    0.53
   0   8  -4    6.12    0.33
  -1  -8  -4   11.01    0.59
   1  -8   4    9.81    0.63
  -1  -8  -4   11.15    0.55
   1   8   4    9.77    0.61
   1   8   4   10.36    0.62
   1   8   4    9.82    0.60
  -2  -8  -4    0.18    0.08
  -2  -8  -4    0.21    0.07
   2   8   4    0.32    0.10
   2   8   4    0.36    0.14
  -3  -8  -4    0.43    0.06
   3   8   4    0.57    0.11
   3   8   4    0.47    0.12
   3   8   4    0.36    0.10
   6  -9  -4   12.76    0.75
  -6  -9   4   14.48    0.76
   6   9  -4   14.69    0.76
  -6   9   4   15.53    0.75
   6   9  -4   15.06    0.74
  -6   9   4   14.51    0.76
  -5  -9   4    1.27    0.16
   5   9  -4    1.03    0.18
   5   9  -4    0.80    0.13
  -5   9   4    1.08    0.17
  -4  -9   4    9.31    0.55
  -4  -9   4    9.60    0.56
  -4   9   4    8.98    0.51
   4   9  -4    9.66    0.59
   4   9  -4    9.38    0.53
  -4   9   4    9.41    0.57
   4   9  -4    9.48    0.55
   3  -9  -4    1.18    0.28
   3  -9  -4    1.40    0.31
  -3  -9   4    1.70    0.38
   3   9  -4    2.13    0.20
   3   9  -4    2.31    0.42
  -2  -9   4    7.28    0.70
   2  -9  -4    6.28    0.59
   2  -9  -4    8.18    0.46
   2   9  -4    6.69    0.64
   2   9  -4    6.82    0.66
   2   9  -4    7.99    0.45
   2   9  -4    7.15    0.40
   1  -9  -4    0.22    0.12
   1  -9  -4    0.07    0.18
   1   9  -4    0.62    0.27
   1   9  -4    0.21    0.21
   1   9  -4    0.31    0.06
   1   9  -4    0.19    0.08
   0  -9  -4    0.58    0.19
   0  -9  -4    0.83    0.10
   0   9  -4    0.53    0.23
   0   9  -4    0.50    0.36
   0   9  -4    1.03    0.12
  -1  -9  -4   20.08    1.09
  -1  -9  -4   19.54    1.04
  -1  -9  -4   21.97    1.00
   1  -9   4   19.96    1.09
   1   9   4   20.07    1.06
   1   9   4   19.90    1.05
   1   9   4   17.94    1.03
  -2  -9  -4    3.34    0.26
  -2  -9  -4    4.14    0.23
   2   9   4    3.85    0.30
   2   9   4    3.59    0.31
   2   9   4    3.89    0.29
  -3  -9  -4    8.62    0.46
  -3  -9  -4    8.62    0.50
   3   9   4    9.37    0.51
   3   9   4    9.01    0.51
  -6 -10   4   11.99    0.60
   6 -10  -4   10.53    0.59
  -6  10   4   11.23    0.59
   6  10  -4   10.29    0.59
  -6  10   4   11.65    0.59
   6  10  -4   11.25    0.57
  -5 -10   4    8.58    0.52
   5  10  -4    8.33    0.48
  -5  10   4    9.21    0.53
   5  10  -4    8.87    0.52
  -4 -10   4    0.54    0.14
  -4 -10   4    0.94    0.15
  -4  10   4    1.13    0.18
   4  10  -4    0.83    0.13
   4  10  -4    0.77    0.14
   4  10  -4    0.66    0.16
  -3 -10   4    2.06    0.22
  -3 -10   4    1.95    0.22
   3  10  -4    1.84    0.20
   3  10  -4    1.97    0.23
  -3  10   4    1.85    0.23
   3  10  -4    1.83    0.20
   2 -10  -4    0.11    0.19
  -2 -10   4    0.11    0.16
   2 -10  -4    0.15    0.09
   2  10  -4    0.18    0.25
   2  10  -4    0.12    0.06
   2  10  -4    0.13    0.11
   2  10  -4    0.02    0.20
   1 -10  -4   10.61    0.81
   1 -10  -4   11.93    0.66
   1  10  -4   11.53    0.86
   1  10  -4   11.35    0.90
   1  10  -4   11.65    0.63
   1  10  -4   11.32    0.59
   0 -10   4   12.60    0.73
   0 -10  -4    8.34    0.74
   0 -10  -4    8.43    0.73
   0  10  -4   10.63    0.55
   0  10  -4    9.09    0.81
   0  10   4   10.86    0.76
   1 -10   4    9.78    0.63
  -1 -10  -4    9.92    0.62
  -1 -10  -4   10.24    0.54
   1  10   4   10.86    0.62
   1  10   4   10.82    0.68
  -1  10  -4   10.26    0.54
  -2 -10  -4    0.22    0.06
  -2 -10  -4    0.35    0.17
  -2 -10  -4    0.10    0.11
   2  10   4    0.16    0.12
   2  10   4    0.26    0.13
   2  10   4    0.05    0.12
  -3 -10  -4    2.24    0.20
   3  10   4    2.23    0.19
   3  10   4    2.16    0.20
  -6 -11   4    0.26    0.06
  -6  11   4    0.29    0.07
   6  11  -4    0.22    0.06
   6  11  -4    0.23    0.10
  -6  11   4    0.20    0.07
  -5 -11   4   12.73    0.71
  -5 -11   4   14.13    0.73
   5  11  -4   13.44    0.73
  -5  11   4   13.60    0.72
   5  11  -4   13.45    0.70
  -5  11   4   12.36    0.70
  -4 -11   4    1.56    0.19
  -4 -11   4    1.91    0.21
   4  11  -4    1.73    0.22
  -4  11   4    1.60    0.18
   4  11  -4    1.78    0.19
   4  11  -4    1.76    0.17
  -4  11   4    1.43    0.20
  -3 -11   4   20.55    1.10
  -3 -11   4   20.61    1.13
  -3 -11   4   20.91    1.11
   3  11  -4   21.69    1.15
   3  11  -4   20.74    1.11
   3  11  -4   21.82    1.11
  -3  11   4   22.35    1.13
  -2 -11   4   43.09    1.95
   2 -11  -4   38.35    1.88
   2 -11  -4   33.85    2.09
   2  11  -4   35.77    2.18
   2  11  -4   36.01    1.89
   2  11  -4   36.52    2.15
   2  11  -4   40.04    1.85
   1 -11  -4   32.46    1.62
   1  11  -4   31.43    1.90
   1  11  -4   32.25    1.59
   1  11  -4   28.68    1.82
   1  11  -4   32.88    1.56
   0 -11  -4    2.29    0.26
   0 -11   4    1.69    0.22
   0 -11   4    1.71    0.23
   0  11   4    1.86    0.21
   0  11  -4    2.10    0.18
  -1 -11  -4    7.51    0.43
  -1 -11  -4    7.75    0.51
   1 -11   4    7.51    0.52
   1  11   4    8.34    0.51
  -1  11  -4    8.38    0.43
   1  11   4    8.01    0.51
  -2 -11  -4    8.33    0.51
   2  11   4    7.51    0.47
   2  11   4    8.02    0.50
   2  11   4    7.92    0.50
  -3 -11  -4    0.64    0.10
  -3 -11  -4    0.53    0.09
   3  11   4    0.61    0.11
   3  11   4    0.61    0.10
  -6  12   4   -0.02    0.04
  -5 -12   4    0.25    0.08
  -5 -12   4    0.21    0.10
  -5  12   4    0.26    0.07
  -5  12   4    0.24    0.09
   5  12  -4    0.11    0.08
   5  12  -4    0.15    0.11
  -4 -12   4    3.61    0.28
  -4 -12   4    4.18    0.31
   4  12  -4    4.20    0.34
   4  12  -4    4.19    0.28
  -4  12   4    3.94    0.28
   4  12  -4    3.93    0.30
  -4  12   4    4.32    0.33
  -3 -12   4   36.91    1.87
  -3 -12   4   35.04    1.88
  -3 -12   4   35.06    1.86
   3  12  -4   39.64    1.91
   3  12  -4   36.68    1.87
   3  12  -4   38.77    1.87
  -3  12   4   37.79    1.88
  -2 -12   4   18.83    1.07
  -2 -12   4   19.79    1.06
  -2 -12   4   18.60    1.03
   2 -12  -4   19.71    1.00
  -2  12   4   20.68    1.06
   2  12  -4   20.99    0.99
   2  12  -4   18.52    1.02
  -1 -12   4   21.05    1.18
  -1 -12   4   20.30    1.16
   1 -12  -4   23.96    1.15
  -1 -12   4   20.68    1.14
   1 -12  -4   20.76    1.17
   1  12  -4   23.35    1.13
  -1  12   4   21.51    1.16
   1  12  -4   22.83    1.09
   0 -12  -4    5.06    0.36
   0 -12  -4    5.67    0.41
   0 -12   4    5.29    0.40
   0 -12   4    4.94    0.39
   0  12   4    5.06    0.38
   0  12  -4    5.32    0.33
   0  12   4    4.61    0.38
   1 -12   4    1.25    0.20
  -1 -12  -4    1.24    0.19
  -1 -12  -4    1.58    0.23
   1  12   4    1.86    0.21
  -1  12  -4    1.51    0.15
   1  12   4    1.42    0.20
  -2 -12  -4   21.00    1.08
   2  12   4   19.07    1.06
   2  12   4   21.07    1.07
  -3 -12  -4    8.23    0.42
  -3 -12  -4    7.14    0.42
   3  12   4    7.44    0.42
   3  12   4    7.77    0.43
  -5 -13   4    0.41    0.11
  -5 -13   4    0.51    0.10
   5  13  -4    0.60    0.10
  -5  13   4    0.43    0.09
  -5  13   4    0.53    0.10
   5  13  -4    0.63    0.11
  -4 -13   4    5.36    0.36
  -4 -13   4    5.12    0.35
   4  13  -4    5.55    0.34
   4  13  -4    5.56    0.36
   4  13  -4    6.07    0.39
  -4  13   4    5.45    0.38
  -4  13   4    5.04    0.35
  -3 -13   4   14.49    0.85
  -3 -13   4   14.58    0.82
  -3  13   4   15.66    0.85
   3  13  -4   15.85    0.85
   3  13  -4   14.75    0.80
   3  13  -4   16.11    0.83
  -2 -13   4    0.50    0.14
  -2 -13   4    0.50    0.16
  -2 -13   4    0.47    0.16
   2  13  -4    0.67    0.16
  -2  13   4    0.39    0.14
  -2  13   4    0.46    0.15
   2  13  -4    0.43    0.08
  -1 -13   4    4.13    0.35
  -1 -13   4    4.63    0.38
  -1 -13   4    5.11    0.39
   1 -13  -4    4.10    0.37
   1 -13  -4    4.90    0.33
   1  13  -4    5.14    0.28
  -1  13   4    4.34    0.35
  -1  13   4    3.85    0.34
   1  13  -4    4.99    0.31
   0 -13  -4    0.11    0.15
   0 -13   4    0.16    0.14
   0 -13  -4    0.29    0.17
   0 -13   4    0.22    0.15
   0  13  -4    0.39    0.09
   0  13   4    0.25    0.14
   0  13   4    0.00    0.13
   1 -13   4    5.10    0.40
  -1 -13  -4    4.84    0.36
  -1 -13  -4    5.54    0.39
   1  13   4    5.16    0.38
   1  13   4    5.44    0.36
  -1  13  -4    5.33    0.31
  -2 -13  -4    6.28    0.40
   2  13   4    7.08    0.41
   2  13   4    6.55    0.42
  -3 -13  -4    2.56    0.18
  -5 -14   4    0.20    0.08
  -5 -14   4    0.19    0.09
   5  14  -4    0.17    0.07
   5  14  -4    0.20    0.05
  -5  14   4    0.08    0.06
  -5  14   4    0.04    0.07
  -4 -14   4    0.31    0.09
  -4 -14   4    0.26    0.12
   4  14  -4    0.30    0.11
   4  14  -4    0.29    0.11
  -4  14   4    0.22    0.11
  -4  14   4    0.27    0.10
   4  14  -4    0.23    0.10
  -3 -14   4    0.21    0.14
  -3 -14   4    0.01    0.12
   3  14  -4    0.03    0.09
   3  14  -4   -0.05    0.12
  -3  14   4    0.27    0.12
   3  14  -4    0.02    0.10
  -3  14   4    0.13    0.12
  -3  14   4    0.00    0.12
  -2 -14   4    3.90    0.35
  -2 -14   4    4.27    0.32
  -2 -14   4    4.12    0.35
   2  14  -4    4.14    0.30
   2  14  -4    4.74    0.35
  -2  14   4    4.13    0.31
   2  14  -4    4.07    0.25
  -2  14   4    3.63    0.32
  -1 -14   4    4.31    0.38
   1 -14  -4    4.34    0.33
  -1 -14   4    4.62    0.37
   1 -14  -4    4.27    0.36
   1  14  -4    5.24    0.28
  -1  14   4    4.32    0.35
  -1  14   4    4.71    0.36
   1  14  -4    4.65    0.31
   0 -14   4    6.87    0.48
   0 -14  -4    7.05    0.48
   0 -14  -4    6.91    0.47
   0 -14   4    7.63    0.49
   0  14  -4    6.98    0.41
   0  14   4    7.26    0.47
   0  14   4    7.02    0.47
   0  14  -4    7.13    0.38
  -1 -14  -4   32.50    1.66
   1 -14   4   33.98    1.69
  -1 -14  -4   33.99    1.68
   1  14   4   31.86    1.66
   1  14   4   34.14    1.66
  -1  14  -4   30.92    1.62
  -2 -14  -4    5.51    0.33
  -2 -14  -4    5.50    0.34
   2  14   4    5.04    0.33
   2  14   4    5.18    0.33
  -5 -15   4    0.68    0.08
  -5 -15   4    0.59    0.09
  -5  15   4    0.89    0.10
   5  15  -4    0.71    0.08
   5  15  -4    0.78    0.10
  -5  15   4    0.56    0.09
  -4 -15   4    0.43    0.09
   4  15  -4    0.33    0.08
   4  15  -4    0.48    0.11
  -4  15   4    0.44    0.12
   4  15  -4    0.48    0.09
  -4  15   4    0.31    0.09
  -4  15   4    0.29    0.08
  -3 -15   4    2.58    0.24
  -3 -15   4    2.85    0.26
   3  15  -4    2.55    0.20
   3  15  -4    2.63    0.24
  -3  15   4    2.75    0.27
  -3  15   4    2.62    0.26
   3  15  -4    2.59    0.24
  -3  15   4    3.01    0.24
  -2 -15   4    1.60    0.22
  -2 -15   4    1.97    0.21
  -2 -15   4    1.80    0.19
  -2  15   4    2.04    0.22
   2  15  -4    1.76    0.14
   2  15  -4    1.94    0.18
  -2  15   4    1.81    0.20
   2  15  -4    1.92    0.20
   2  15  -4    1.90    0.22
   1 -15  -4    0.97    0.19
  -1 -15   4    0.92    0.19
  -1 -15   4    0.93    0.16
  -1  15   4    0.77    0.17
   1  15  -4    0.94    0.14
  -1  15   4    0.83    0.17
   1  15  -4    0.88    0.10
   0 -15  -4    6.80    0.44
   0 -15   4    6.50    0.45
   0 -15   4    7.13    0.47
   0 -15  -4    7.24    0.47
   0  15  -4    6.56    0.40
   0  15  -4    7.24    0.37
   0  15   4    6.68    0.43
   0  15   4    6.81    0.45
  -1 -15  -4    5.20    0.36
  -1 -15  -4    4.95    0.34
   1 -15   4    4.58    0.34
   1  15   4    5.20    0.35
   1  15   4    5.57    0.36
  -2 -15  -4   12.39    0.71
  -2 -15  -4   14.37    0.73
   2  15   4   14.91    0.74
   2  15   4   13.95    0.73
  -5 -16   4    0.21    0.08
  -5  16   4    0.20    0.06
   5  16  -4    0.32    0.07
  -5  16   4    0.35    0.07
  -4 -16   4    0.58    0.10
   4  16  -4    0.47    0.10
  -4  16   4    0.48    0.09
  -4  16   4    0.66    0.10
   4  16  -4    0.53    0.08
  -4  16   4    0.36    0.11
   4  16  -4    0.41    0.10
  -3 -16   4   10.81    0.63
  -3 -16   4   10.71    0.59
   3  16  -4   10.75    0.62
  -3  16   4   10.71    0.62
   3  16  -4   11.57    0.61
   3  16  -4   11.00    0.58
  -3  16   4   10.71    0.62
  -3  16   4    9.93    0.59
  -2 -16   4    1.75    0.20
  -2 -16   4    1.57    0.20
  -2 -16   4    1.61    0.22
  -2  16   4    1.34    0.19
   2  16  -4    1.35    0.17
   2  16  -4    1.46    0.15
   2  16  -4    1.31    0.19
  -2  16   4    1.13    0.18
  -1 -16   4    9.87    0.59
  -1 -16   4    9.96    0.60
   1 -16  -4    9.47    0.58
   1  16  -4    9.43    0.55
  -1  16   4    9.91    0.57
   1  16  -4   10.17    0.51
  -1  16   4    9.66    0.59
   0 -16   4    0.18    0.09
   0 -16  -4   -0.04    0.12
   0 -16   4   -0.08    0.12
   0  16  -4    0.00    0.05
   0  16   4   -0.03    0.08
   0  16   4    0.13    0.09
   0  16  -4    0.05    0.06
  -1 -16  -4    6.05    0.39
  -1 -16  -4    6.28    0.39
   1 -16   4    6.18    0.41
  -1  16  -4    5.63    0.32
   1  16   4    6.09    0.39
   1  16   4    6.09    0.37
  -2 -16  -4   24.36    1.17
   2  16   4   21.90    1.16
   2  16   4   23.55    1.17
  -4 -17   4    3.63    0.24
  -4  17   4    3.59    0.25
  -4  17   4    3.73    0.24
  -4  17   4    3.43    0.25
   4  17  -4    3.92    0.25
   4  17  -4    3.43    0.22
   4  17  -4    3.56    0.25
  -3 -17   4    9.48    0.54
  -3 -17   4    9.51    0.52
   3  17  -4    9.55    0.53
  -3  17   4    8.61    0.51
  -3  17   4    9.25    0.53
   3  17  -4    8.71    0.51
  -3  17   4    9.33    0.52
   3  17  -4    9.11    0.50
  -2 -17   4   34.66    1.67
  -2 -17   4   32.70    1.67
  -2 -17   4   29.72    1.63
   2  17  -4   32.15    1.62
   2  17  -4   33.61    1.64
  -2  17   4   33.38    1.66
  -2  17   4   33.40    1.66
   2  17  -4   32.52    1.67
  -1 -17   4    7.95    0.49
   1 -17  -4    7.04    0.46
  -1 -17   4    7.71    0.49
  -1  17   4    7.56    0.46
  -1  17   4    7.45    0.46
   1  17  -4    7.65    0.40
   0 -17   4    6.91    0.45
   0 -17   4    7.82    0.46
   0 -17  -4    7.45    0.45
   0  17   4    6.14    0.40
   0  17  -4    6.48    0.36
   0  17   4    6.24    0.41
   1 -17   4    0.47    0.13
  -1 -17  -4    0.54    0.10
  -1 -17  -4    0.46    0.12
   1  17   4    0.63    0.13
  -1  17  -4    0.48    0.06
   1  17   4    0.53    0.09
  -4 -18   4    1.16    0.12
  -4  18   4    1.02    0.11
   4  18  -4    1.20    0.11
  -4  18   4    1.20    0.14
   4  18  -4    1.25    0.12
   4  18  -4    1.14    0.13
  -4  18   4    1.19    0.12
  -3 -18   4    1.55    0.16
  -3 -18   4    1.16    0.14
  -3  18   4    1.31    0.14
   3  18  -4    1.42    0.14
  -3  18   4    1.52    0.17
  -3  18   4    1.29    0.13
   3  18  -4    1.32    0.12
   3  18  -4    0.90    0.14
  -2 -18   4    3.71    0.28
  -2 -18   4    3.23    0.25
  -2 -18   4    4.03    0.33
   2  18  -4    3.00    0.25
  -2  18   4    3.32    0.25
  -2  18   4    3.76    0.27
   2  18  -4    3.05    0.21
   2  18  -4    3.04    0.24
  -1 -18   4    3.06    0.24
  -1 -18   4    3.00    0.27
   1 -18  -4    3.18    0.27
   1  18  -4    2.81    0.18
   1  18  -4    2.63    0.19
  -1  18   4    3.22    0.27
  -1  18   4    2.97    0.25
   0 -18  -4   10.59    0.61
   0 -18   4   11.41    0.63
   0  18  -4   10.97    0.55
   0  18   4   10.45    0.59
  -1 -18  -4    3.50    0.26
  -1 -18  -4    4.25    0.27
   1  18   4    4.33    0.28
   1  18   4    4.11    0.26
  -3 -19   4    3.07    0.22
  -3 -19   4    3.66    0.25
   3  19  -4    3.72    0.25
   3  19  -4    3.30    0.22
  -3  19   4    3.04    0.22
  -3  19   4    3.58    0.25
   3  19  -4    3.76    0.23
  -2 -19   4    1.73    0.19
  -2 -19   4    1.87    0.21
  -2  19   4    1.68    0.19
   2  19  -4    1.66    0.15
   2  19  -4    1.46    0.17
  -2  19   4    1.68    0.18
   2  19  -4    1.76    0.15
   1 -19  -4    0.58    0.11
  -1 -19   4    0.62    0.13
  -1 -19   4    0.67    0.12
  -1  19   4    0.52    0.09
  -1  19   4    0.58    0.12
   1  19  -4    0.65    0.08
   1  19  -4    0.52    0.10
   1  19  -4    0.43    0.06
   0 -19   4    0.00    0.10
   0 -19  -4    0.11    0.10
   0  19   4   -0.02    0.09
   0  19   4    0.07    0.06
  -1 -19  -4    0.00    0.07
   1  19   4    0.08    0.07
  -3 -20   4    0.20    0.08
   3  20  -4    0.08    0.06
   3  20  -4    0.05    0.05
  -3  20   4    0.19    0.08
   3  20  -4    0.01    0.05
  -2 -20   4    0.10    0.06
  -2 -20   4   -0.03    0.08
  -2  20   4    0.07    0.09
   2  20  -4   -0.05    0.05
  -2  20   4   -0.05    0.04
   2  20  -4    0.01    0.06
   2  20  -4    0.01    0.06
   1 -20  -4    0.68    0.12
  -1 -20   4    0.51    0.10
  -1 -20   4    0.55    0.12
   1  20  -4    0.56    0.07
  -1  20   4    0.67    0.12
   1  20  -4    0.66    0.10
   0 -20   4   -0.05    0.08
   0 -20  -4    0.00    0.06
   0  20   4    0.03    0.08
  -2 -21   4    0.43    0.09
  -2  21   4    0.45    0.09
   2  21  -4    0.38    0.09
   1 -21  -4    0.18    0.15
  -1 -21   4    0.22    0.09
   1  21  -4    0.19    0.08
  -1  21   4    0.07    0.08
   6   0  -5   -0.01    0.08
  -6   0   5    0.02    0.06
  -5   0   5    0.21    0.12
   5   0  -5    0.60    0.12
   4   0  -5    0.02    0.10
   4   0  -5   -0.02    0.07
  -4   0   5   -0.07    0.08
  -3   0   5    5.36    0.39
   3   0  -5    6.09    0.38
  -3   0   5    5.54    0.40
   3   0  -5    5.70    0.38
  -3   0   5    5.93    0.40
   2   0  -5   -0.23    0.17
   2   0  -5   -0.01    0.06
   1   0  -5   20.74    0.98
   1   0  -5   20.54    1.02
   1   0  -5   16.68    1.24
   0   0  -5    0.09    0.09
   0   0  -5    0.12    0.05
   0   0   5   -0.06    0.13
   0   0   5   -0.01    0.15
   0   0   5   -0.07    0.13
   0   0   5    0.04    0.11
   1   0   5   52.55    2.56
  -1   0  -5   50.41    2.50
   1   0   5   53.80    2.57
  -1   0  -5   50.19    2.53
   1   0   5   51.63    2.57
   1   0   5   51.44    2.56
  -2   0  -5    0.00    0.04
   2   0   5    0.00    0.08
   2   0   5   -0.01    0.11
   3   0   5    2.90    0.19
  -6  -1   5    0.04    0.09
   6  -1  -5    0.09    0.08
   6   1  -5   -0.02    0.06
  -6   1   5    0.08    0.06
   5  -1  -5    2.80    0.24
  -5  -1   5    3.55    0.28
  -5   1   5    3.25    0.25
   5   1  -5    3.15    0.25
   4  -1  -5   10.34    0.58
  -4  -1   5   11.03    0.62
  -4  -1   5   11.27    0.64
   4  -1  -5   11.06    0.62
   4   1  -5   10.69    0.60
   4   1  -5   10.09    0.60
  -4   1   5   12.08    0.64
   3  -1  -5    4.83    0.34
  -3  -1   5    5.02    0.37
  -3  -1   5    4.83    0.36
  -3   1   5    4.63    0.36
  -3   1   5    5.37    0.37
   3   1  -5    5.20    0.34
   3   1  -5    5.14    0.36
   2  -1  -5    1.13    0.11
   2   1  -5    1.05    0.10
   2   1  -5    0.80    0.13
   2   1  -5    0.75    0.27
   1  -1  -5    3.31    0.44
   1  -1  -5    3.52    0.22
   1  -1  -5    3.97    0.27
   1   1  -5    3.45    0.22
   1   1  -5    3.35    0.45
   1   1  -5    3.60    0.26
   0  -1  -5   83.01    3.83
   0  -1   5   77.49    3.86
   0  -1   5   77.03    3.86
   0  -1   5   75.85    3.87
   0  -1  -5   81.42    3.79
   0  -1   5   78.21    3.86
   0  -1   5   78.05    3.85
   0   1  -5   83.90    3.83
   0   1   5   78.03    3.85
   0   1   5   74.87    3.85
   0   1   5   76.15    3.85
   0   1   5   78.30    3.86
   0   1  -5   80.16    3.79
  -1  -1  -5    3.69    0.22
  -1  -1  -5    3.52    0.25
   1  -1   5    3.68    0.28
   1  -1   5    3.86    0.32
   1  -1   5    3.82    0.33
   1  -1   5    4.09    0.31
   1   1   5    3.63    0.32
  -1   1  -5    4.01    0.24
   1   1   5    3.63    0.32
   1   1   5    3.26    0.31
   1   1   5    3.66    0.31
  -1   1  -5    3.58    0.24
   2  -1   5   10.48    0.60
  -2  -1  -5   10.05    0.56
   2  -1   5   11.77    0.63
   2   1   5   12.20    0.64
   2   1   5   11.52    0.63
   3  -1   5    0.08    0.08
   3   1   5    0.03    0.05
   6  -2  -5    0.63    0.11
  -6  -2   5    0.49    0.09
  -6   2   5    0.77    0.10
   6   2  -5    0.62    0.12
  -5  -2   5    1.69    0.20
  -5  -2   5    1.70    0.19
  -5   2   5    2.17    0.20
   5   2  -5    2.03    0.23
  -4  -2   5    0.05    0.12
   4  -2  -5    0.25    0.11
  -4  -2   5    0.07    0.12
   4  -2  -5    0.13    0.07
   4   2  -5    0.03    0.06
  -4   2   5    0.14    0.13
   4   2  -5    0.07    0.11
   3  -2  -5    0.09    0.10
  -3  -2   5   -0.01    0.12
   3  -2  -5    0.01    0.08
  -3  -2   5   -0.04    0.11
   3   2  -5    0.01    0.10
  -3   2   5   -0.02    0.12
  -3   2   5   -0.12    0.11
   3   2  -5    0.13    0.09
   2  -2  -5    0.72    0.09
   2   2  -5    0.39    0.23
   2   2  -5    0.63    0.10
   2   2  -5    0.48    0.11
   1  -2  -5    2.80    0.47
   1  -2  -5    2.69    0.22
   1  -2  -5    2.71    0.18
   1   2  -5    2.64    0.22
   1   2  -5    2.60    0.17
   1   2  -5    1.76    0.39
   0  -2  -5   13.84    0.69
   0  -2   5   13.23    0.72
   0  -2   5   12.01    0.71
   0  -2   5   12.24    0.72
   0  -2   5   12.55    0.71
   0  -2  -5   12.57    0.64
   0   2   5   12.28    0.72
   0   2  -5   11.61    0.63
   0   2  -5   13.84    0.68
   0   2   5   11.43    0.70
   0   2   5   12.80    0.71
   0   2   5   12.39    0.72
   1  -2   5    2.99    0.28
   1  -2   5    3.27    0.28
   1  -2   5    2.84    0.26
  -1  -2  -5    2.89    0.22
  -1  -2  -5    2.86    0.19
   1  -2   5    3.23    0.28
  -1   2  -5    2.90    0.21
   1   2   5    2.95    0.28
   1   2   5    3.15    0.29
   1   2   5    3.10    0.28
  -2  -2  -5   10.18    0.53
   2  -2   5   11.26    0.61
   2   2   5   10.53    0.59
   2   2   5   10.24    0.59
   3  -2   5    7.48    0.40
   3   2   5    7.28    0.40
   6  -3  -5    2.36    0.19
  -6  -3   5    2.28    0.18
   6   3  -5    2.24    0.18
  -6   3   5    2.08    0.18
  -5  -3   5   12.31    0.68
  -5  -3   5   11.87    0.66
  -5   3   5   11.61    0.66
   5   3  -5   12.36    0.69
  -4  -3   5    0.98    0.17
   4  -3  -5    1.03    0.15
  -4  -3   5    1.07    0.17
   4   3  -5    1.32    0.17
   4   3  -5    1.32    0.16
  -4   3   5    1.16    0.18
   4   3  -5    1.37    0.19
   3  -3  -5    0.46    0.12
   3  -3  -5    0.25    0.10
  -3  -3   5    0.64    0.15
  -3  -3   5    0.46    0.15
  -3   3   5    0.57    0.15
   3   3  -5    0.29    0.11
   3   3  -5    0.31    0.12
  -2  -3   5    7.26    0.75
   2   3  -5    9.05    0.52
   2   3  -5    8.36    0.70
   2   3  -5    9.86    0.48
  -1  -3   5    0.11    0.22
   1  -3  -5    0.22    0.21
   1  -3  -5    0.12    0.06
   1  -3  -5    0.21    0.08
  -1   3   5   -0.07    0.13
   1   3  -5    0.27    0.10
   1   3  -5    0.23    0.22
   1   3  -5    0.24    0.06
   1   3  -5    0.15    0.19
   0  -3  -5    2.14    0.20
   0  -3  -5    2.11    0.15
   0  -3   5    1.96    0.23
   0  -3   5    2.02    0.23
   0  -3   5    1.82    0.22
   0   3  -5    1.71    0.16
   0   3   5    1.41    0.19
   0   3   5    2.02    0.22
   0   3   5    1.97    0.23
   0   3   5    1.83    0.21
   0   3  -5    1.58    0.12
   1  -3   5   23.27    1.25
  -1  -3  -5   25.39    1.20
  -1  -3  -5   24.39    1.23
   1  -3   5   23.14    1.25
   1  -3   5   24.68    1.26
   1   3   5   24.18    1.25
   1   3   5   25.16    1.26
  -1   3  -5   22.98    1.21
   1   3   5   24.32    1.26
  -2  -3  -5    0.33    0.06
   2  -3   5    0.21    0.12
   2   3   5    0.39    0.10
   2   3   5    0.33    0.13
   3   3   5    6.90    0.38
  -6  -4   5    4.07    0.26
   6  -4  -5    3.53    0.23
  -6   4   5    3.44    0.23
   6   4  -5    3.84    0.25
  -5  -4   5    0.08    0.11
  -5  -4   5    0.12    0.11
   5   4  -5    0.04    0.11
  -5   4   5    0.17    0.11
  -4  -4   5    5.25    0.36
  -4  -4   5    4.88    0.34
   4  -4  -5    4.77    0.34
   4   4  -5    5.07    0.37
  -4   4   5    5.34    0.37
   3  -4  -5   37.80    1.79
  -3  -4   5   35.20    1.79
  -3  -4   5   34.17    1.79
  -3  -4   5   34.67    1.78
   3  -4  -5   35.47    1.78
  -3   4   5   35.06    1.79
   3   4  -5   35.37    1.78
  -2  -4   5    4.43    0.45
  -2  -4   5    4.94    0.60
  -2  -4   5    7.01    0.46
   2   4  -5    6.43    0.38
   2   4  -5    6.28    0.33
   2   4  -5    4.83    0.56
  -1  -4   5   10.37    0.63
   1  -4  -5   10.37    0.60
  -1  -4   5   10.84    0.67
   1  -4  -5   10.92    0.56
  -1  -4   5   10.26    0.62
  -1  -4   5   10.42    0.65
  -1  -4   5   10.27    0.62
   1   4  -5   11.37    0.60
  -1   4   5   10.63    0.62
   1   4  -5   11.31    0.56
  -1   4   5   10.52    0.64
   0  -4   5    5.99    0.45
   0  -4   5    6.98    0.45
   0  -4  -5    6.75    0.36
   0  -4  -5    7.16    0.41
   0  -4   5    6.02    0.43
   0  -4   5    6.04    0.42
   0   4   5    6.05    0.42
   0   4  -5    6.95    0.39
   0   4   5    6.79    0.43
   0   4  -5    5.71    0.34
   0   4   5    6.41    0.43
   0   4   5    6.72    0.44
  -1  -4  -5    1.59    0.17
  -1  -4  -5    1.60    0.13
   1  -4   5    1.27    0.18
   1  -4   5    1.70    0.20
   1  -4   5    1.93    0.22
   1   4   5    1.14    0.17
  -1   4  -5    1.30    0.13
   1   4   5    1.18    0.19
   1   4   5    1.47    0.17
   2  -4   5    2.61    0.22
  -2  -4  -5    2.62    0.17
   2   4   5    2.98    0.22
   2   4   5    2.94    0.24
  -6  -5   5    0.64    0.10
  -6  -5   5    0.65    0.09
   6   5  -5    0.55    0.10
  -5  -5   5    0.81    0.14
  -5  -5   5    1.08    0.14
   5   5  -5    1.09    0.16
  -5   5   5    0.80    0.12
  -4  -5   5    0.57    0.14
  -4  -5   5    0.72    0.12
   4  -5  -5    0.83    0.14
  -4   5   5    0.68    0.15
   4   5  -5    0.70    0.15
   3  -5  -5    1.73    0.19
  -3  -5   5    1.93    0.22
  -3  -5   5    1.89    0.19
   3  -5  -5    1.46    0.17
  -3  -5   5    1.74    0.19
   3   5  -5    1.76    0.19
  -3   5   5    1.13    0.17
   2  -5  -5   11.82    0.66
  -2  -5   5   10.19    0.61
  -2  -5   5   11.00    0.63
  -2  -5   5   10.19    0.63
  -2  -5   5   10.71    0.62
   2  -5  -5    9.98    0.59
   2   5  -5    9.61    0.59
  -2   5   5   10.21    0.61
   2   5  -5   10.83    0.55
  -1  -5   5    2.10    0.23
  -1  -5   5    2.09    0.22
   1  -5  -5    1.85    0.19
   1  -5  -5    1.86    0.16
  -1  -5   5    1.89    0.22
  -1  -5   5    1.89    0.22
  -1   5   5    1.53    0.20
   1   5  -5    1.96    0.19
   1   5  -5    1.80    0.14
  -1   5   5    1.82    0.21
   0  -5   5    6.46    0.44
   0  -5   5    6.45    0.46
   0  -5   5    6.37    0.42
   0  -5  -5    6.22    0.35
   0  -5   5    6.25    0.43
   0  -5  -5    6.30    0.39
   0   5   5    6.41    0.42
   0   5  -5    6.44    0.34
   0   5   5    6.29    0.42
   0   5   5    6.21    0.42
   0   5  -5    6.73    0.38
   0   5   5    6.55    0.43
   1  -5   5    2.94    0.27
  -1  -5  -5    3.20    0.24
  -1  -5  -5    3.44    0.20
   1  -5   5    3.11    0.29
   1   5   5    3.25    0.29
   1   5   5    3.48    0.29
   1   5   5    3.14    0.28
  -1   5  -5    2.90    0.21
   2  -5   5    0.09    0.07
  -2  -5  -5    0.05    0.05
   2   5   5    0.00    0.11
   2   5   5   -0.01    0.10
   2   5   5   -0.05    0.06
  -6  -6   5    0.30    0.07
  -6  -6   5    0.12    0.07
   6   6  -5    0.33    0.10
  -6   6   5    0.23    0.06
  -5  -6   5    7.34    0.45
  -5  -6   5    7.97    0.46
   5   6  -5    8.04    0.48
  -4  -6   5    9.08    0.53
  -4  -6   5    8.38    0.51
   4  -6  -5    8.43    0.57
   4   6  -5    9.16    0.52
   4   6  -5    8.61    0.54
  -4   6   5    8.43    0.52
  -3  -6   5    4.15    0.33
   3  -6  -5    4.05    0.30
  -3  -6   5    4.15    0.30
   3  -6  -5    4.54    0.32
  -3   6   5    4.43    0.32
   3   6  -5    4.25    0.31
  -2  -6   5    0.46    0.14
  -2  -6   5    0.62    0.15
  -2  -6   5    0.67    0.16
  -2  -6   5    0.38    0.14
   2  -6  -5    0.45    0.11
   2  -6  -5    0.22    0.10
   2   6  -5    0.41    0.07
   2   6  -5    0.41    0.10
  -2   6   5    0.35    0.13
   1  -6  -5    0.12    0.06
  -1  -6   5    0.31    0.13
  -1  -6   5    0.12    0.12
  -1  -6   5    0.13    0.13
   1  -6  -5    0.15    0.10
  -1  -6   5    0.03    0.12
  -1  -6   5    0.23    0.15
  -1   6   5    0.04    0.08
   1   6  -5    0.05    0.06
   1   6  -5    0.10    0.07
   0  -6   5    1.15    0.18
   0  -6   5    0.93    0.18
   0  -6   5    1.43    0.22
   0  -6   5    0.74    0.17
   0  -6  -5    1.15    0.11
   0  -6   5    1.05    0.19
   0  -6  -5    0.81    0.14
   0   6  -5    1.06    0.13
   0   6   5    1.04    0.18
   0   6   5    1.11    0.17
   0   6  -5    1.03    0.10
   1  -6   5    1.48    0.18
  -1  -6  -5    1.51    0.12
   1  -6   5    1.28    0.18
   1  -6   5    1.49    0.18
  -1  -6  -5    1.54    0.17
   1   6   5    1.51    0.19
  -1   6  -5    1.36    0.13
   1   6   5    1.13    0.18
   1   6   5    1.25    0.18
   1   6   5    1.72    0.19
   2  -6   5    0.08    0.07
  -2  -6  -5    0.08    0.05
   2   6   5    0.07    0.07
   2   6   5    0.00    0.09
   2   6   5    0.24    0.11
  -6  -7   5    2.15    0.17
  -6  -7   5    2.39    0.17
   6   7  -5    2.22    0.17
  -6   7   5    1.58    0.17
  -5  -7   5   10.20    0.60
  -5  -7   5   10.74    0.61
   5   7  -5   12.45    0.64
   5   7  -5   11.09    0.61
  -4  -7   5    1.17    0.17
   4   7  -5    1.40    0.16
  -3  -7   5   11.26    0.65
   3  -7  -5   11.33    0.63
   3  -7  -5   10.99    0.61
  -3  -7   5   11.68    0.64
  -3  -7   5   10.96    0.63
   3   7  -5   10.49    0.65
   3   7  -5   11.84    0.63
  -3   7   5    9.72    0.67
  -2  -7   5    7.65    0.48
  -2  -7   5    7.60    0.48
  -2  -7   5    7.27    0.49
  -2  -7   5    7.12    0.50
   2  -7  -5    7.85    0.48
   2  -7  -5    7.46    0.46
  -2  -7   5    6.95    0.49
   2   7  -5    7.68    0.45
   2   7  -5    7.68    0.41
   2   7  -5    7.49    0.46
  -1  -7   5    0.14    0.13
  -1  -7   5    0.20    0.14
  -1  -7   5    0.02    0.12
  -1  -7   5    0.28    0.13
  -1  -7   5    0.11    0.15
   1  -7  -5    0.02    0.09
   1   7  -5    0.13    0.07
  -1   7   5    0.18    0.13
   1   7  -5    0.09    0.06
  -1   7   5    0.16    0.13
   0  -7   5    6.64    0.47
   0  -7  -5    6.27    0.41
   0  -7  -5    7.37    0.37
   0  -7   5    6.37    0.42
   0  -7   5    6.55    0.43
   0  -7   5    6.50    0.45
   0   7  -5    6.96    0.39
   0   7   5    6.92    0.45
   0   7   5    6.40    0.41
   0   7   5    7.01    0.44
   0   7  -5    6.27    0.35
   1  -7   5   17.64    1.02
  -1  -7  -5   18.55    1.00
  -1  -7  -5   17.58    0.97
  -1  -7  -5   18.58    0.93
   1  -7   5   18.70    1.00
  -1   7  -5   17.80    0.93
   1   7   5   19.99    0.98
   1   7   5   20.32    0.99
   1   7   5   18.61    0.99
  -2  -7  -5    1.83    0.13
   2   7   5    2.06    0.20
   2   7   5    1.63    0.17
  -6  -8   5    4.48    0.26
   6   8  -5    4.09    0.26
  -5  -8   5    0.65    0.11
   5   8  -5    0.61    0.12
   5   8  -5    0.88    0.13
  -4  -8   5    8.69    0.51
  -4  -8   5    8.75    0.52
   4   8  -5    8.77    0.53
   4   8  -5    8.53    0.50
  -4   8   5    8.30    0.52
   3  -8  -5    8.27    0.49
  -3  -8   5    8.14    0.51
  -3  -8   5    8.78    0.52
  -3  -8   5    8.48    0.51
   3   8  -5    8.35    0.50
   3   8  -5    7.89    0.52
  -3   8   5    7.72    0.50
   2  -8  -5   24.64    1.24
   2  -8  -5   24.48    1.25
  -2  -8   5   24.85    1.26
  -2  -8   5   24.36    1.26
  -2  -8   5   22.28    1.27
  -2  -8   5   24.49    1.25
  -2  -8   5   23.97    1.27
   2   8  -5   24.54    1.24
   2   8  -5   23.04    1.23
  -2   8   5   22.32    1.25
   2   8  -5   25.52    1.20
  -1  -8   5    3.61    0.31
   1  -8  -5    3.72    0.29
  -1  -8   5    4.18    0.34
  -1  -8   5    3.73    0.32
  -1  -8   5    3.87    0.36
  -1  -8   5    3.46    0.31
  -1   8   5    3.70    0.31
   1   8  -5    4.24    0.24
   1   8  -5    4.01    0.27
  -1   8   5    3.19    0.31
   0  -8  -5    3.08    0.20
   0  -8   5    3.12    0.31
   0  -8   5    3.36    0.32
   0  -8   5    2.83    0.25
   0   8  -5    3.15    0.22
   0   8  -5    2.90    0.18
   0   8   5    2.94    0.28
   0   8   5    3.05    0.29
  -1  -8  -5    0.31    0.07
  -1  -8  -5    0.35    0.13
   1  -8   5    0.40    0.13
  -1  -8  -5    0.30    0.11
   1   8   5    0.23    0.11
   1   8   5    0.35    0.13
  -2  -8  -5    3.90    0.27
  -2  -8  -5    3.61    0.24
   2   8   5    4.09    0.27
   2   8   5    4.25    0.26
  -5  -9   5    2.91    0.23
   5   9  -5    2.45    0.20
  -5   9   5    2.49    0.20
   5   9  -5    3.19    0.25
  -4  -9   5    0.43    0.11
  -4  -9   5    0.45    0.11
  -4   9   5    0.64    0.12
   4   9  -5    0.63    0.15
   4   9  -5    0.39    0.10
   3  -9  -5    0.08    0.10
  -3  -9   5    0.16    0.13
  -3  -9   5    0.00    0.11
  -3  -9   5    0.14    0.11
   3   9  -5    0.16    0.13
   3   9  -5    0.06    0.10
  -3   9   5    0.22    0.12
  -2  -9   5    4.76    0.36
  -2  -9   5    4.29    0.35
  -2  -9   5    4.93    0.36
  -2  -9   5    4.92    0.36
  -2  -9   5    4.38    0.36
   2  -9  -5    5.02    0.34
   2  -9  -5    4.76    0.33
  -2   9   5    4.53    0.35
   2   9  -5    4.97    0.33
   2   9  -5    4.36    0.32
   2   9  -5    5.23    0.28
  -1  -9   5   22.75    1.22
   1  -9  -5   22.51    1.21
   1  -9  -5   22.94    1.25
  -1  -9   5   24.53    1.28
  -1  -9   5   23.00    1.25
   1   9  -5   24.68    1.17
  -1   9   5   23.51    1.23
   1   9  -5   23.98    1.21
   0  -9   5   14.06    0.82
   0  -9   5   14.92    0.83
   0  -9  -5   14.97    0.77
   0  -9   5   13.89    0.79
   0  -9  -5   14.95    0.84
   0   9  -5   14.44    0.77
   0   9   5   15.47    0.82
   0   9   5   14.29    0.80
   0   9  -5   14.62    0.73
   1  -9   5    0.97    0.16
  -1  -9  -5    0.87    0.09
  -1  -9  -5    0.88    0.14
   1   9   5    0.92    0.13
   1   9   5    0.83    0.15
  -2  -9  -5    0.44    0.12
   2   9   5    0.24    0.08
  -5 -10   5    9.60    0.51
   5  10  -5    8.58    0.51
  -5  10   5    8.80    0.50
   5  10  -5    9.11    0.50
  -4 -10   5   -0.04    0.07
  -4 -10   5    0.01    0.07
   4  10  -5    0.07    0.08
  -4  10   5    0.04    0.08
   4  10  -5    0.04    0.10
  -3 -10   5    0.29    0.13
  -3 -10   5    0.11    0.09
   3 -10  -5    0.22    0.10
  -3 -10   5    0.08    0.11
  -3  10   5    0.22    0.13
   3  10  -5    0.19    0.11
   3  10  -5    0.18    0.10
  -2 -10   5    5.51    0.42
  -2 -10   5    5.49    0.37
   2 -10  -5    5.64    0.36
  -2 -10   5    5.65    0.39
  -2 -10   5    5.40    0.42
  -2  10   5    6.03    0.40
   2  10  -5    5.76    0.36
   2  10  -5    5.48    0.36
   2  10  -5    5.11    0.39
   2  10  -5    5.60    0.32
  -1 -10   5   19.10    1.01
  -1 -10   5   17.09    0.95
   1 -10  -5   17.29    0.99
  -1 -10   5   17.47    0.99
   1  10  -5   18.29    0.95
  -1  10   5   17.79    0.97
   1  10  -5   18.92    0.91
   0 -10   5    2.13    0.24
   0 -10   5    2.52    0.28
   0 -10   5    2.46    0.24
   0 -10  -5    2.43    0.26
   0  10  -5    1.83    0.17
   0  10   5    1.58    0.26
   0  10   5    1.70    0.22
   0  10  -5    2.10    0.15
  -1 -10  -5    1.91    0.19
   1  10   5    2.02    0.22
   1  10   5    1.69    0.17
  -2 -10  -5    6.02    0.36
   2  10   5    6.14    0.36
  -5 -11   5    4.94    0.30
  -5 -11   5    4.20    0.29
   5  11  -5    4.57    0.29
  -5  11   5    4.59    0.30
   5  11  -5    4.65    0.31
  -4 -11   5    1.78    0.17
  -4 -11   5    1.93    0.21
  -4 -11   5    1.98    0.18
  -4  11   5    1.91    0.19
   4  11  -5    1.93    0.21
   4  11  -5    1.69    0.17
  -3 -11   5    0.19    0.12
   3 -11  -5    0.15    0.07
  -3 -11   5    0.14    0.10
  -3 -11   5    0.18    0.11
  -3  11   5    0.15    0.09
   3  11  -5    0.03    0.09
   3  11  -5    0.12    0.12
  -2 -11   5    3.39    0.29
  -2 -11   5    3.73    0.29
  -2 -11   5    3.57    0.32
   2  11  -5    3.07    0.25
   2  11  -5    3.63    0.30
   2  11  -5    3.38    0.21
  -2  11   5    3.37    0.27
   2  11  -5    2.94    0.25
  -1 -11   5    6.16    0.44
  -1 -11   5    6.41    0.42
   1 -11  -5    6.21    0.44
  -1 -11   5    6.44    0.46
   1  11  -5    6.21    0.34
   1  11  -5    6.34    0.39
  -1  11   5    6.08    0.42
   0 -11  -5   28.39    1.41
   0 -11   5   26.16    1.40
   0  11  -5   25.84    1.35
   0  11   5   28.69    1.39
   0  11  -5   25.80    1.32
  -1 -11  -5    2.40    0.25
  -1 -11  -5    2.30    0.23
   1  11   5    2.69    0.21
  -2 -11  -5    1.98    0.17
   2  11   5    1.57    0.14
  -5 -12   5    1.39    0.15
  -5 -12   5    1.90    0.15
  -5  12   5    1.83    0.17
   5  12  -5    1.76    0.15
   5  12  -5    1.73    0.15
  -4 -12   5    5.98    0.36
  -4 -12   5    5.26    0.34
  -4  12   5    5.98    0.37
   4  12  -5    5.52    0.34
   4  12  -5    5.14    0.35
  -3 -12   5    0.05    0.12
  -3 -12   5   -0.12    0.11
  -3 -12   5   -0.13    0.10
   3  12  -5    0.03    0.11
  -3  12   5    0.06    0.09
   3  12  -5    0.00    0.07
  -2 -12   5    0.17    0.12
  -2 -12   5    0.15    0.14
  -2 -12   5    0.02    0.13
  -2  12   5    0.06    0.08
   2  12  -5   -0.02    0.05
   2  12  -5    0.04    0.09
   2  12  -5   -0.02    0.11
  -1 -12   5    0.02    0.13
   1 -12  -5   -0.07    0.13
  -1 -12   5    0.09    0.14
  -1 -12   5    0.10    0.11
   1  12  -5    0.01    0.05
   1  12  -5    0.07    0.07
  -1  12   5    0.07    0.12
   0 -12   5    2.58    0.27
   0 -12  -5    2.08    0.21
   0 -12  -5    2.10    0.24
   0 -12   5    2.35    0.26
   0  12  -5    2.18    0.15
   0  12   5    2.21    0.24
  -1 -12  -5    4.05    0.30
  -1 -12  -5    3.68    0.28
   1  12   5    3.90    0.28
  -5 -13   5    0.37    0.06
   5  13  -5    0.36    0.09
   5  13  -5    0.32    0.09
  -5  13   5    0.34    0.08
  -4 -13   5    3.13    0.24
  -4 -13   5    3.47    0.24
   4  13  -5    3.36    0.23
  -4  13   5    3.72    0.25
   4  13  -5    3.09    0.24
  -3 -13   5   11.22    0.65
  -3 -13   5   11.46    0.63
  -3  13   5   12.10    0.65
   3  13  -5   11.18    0.64
   3  13  -5   11.27    0.62
  -2 -13   5    1.85    0.21
  -2 -13   5    2.13    0.24
  -2 -13   5    1.36    0.18
  -2  13   5    1.82    0.19
   2  13  -5    1.52    0.19
   2  13  -5    1.42    0.22
   2  13  -5    1.51    0.13
  -1 -13   5    2.45    0.23
  -1 -13   5    2.60    0.24
  -1 -13   5    2.51    0.28
   1 -13  -5    2.69    0.26
   1  13  -5    2.41    0.17
  -1  13   5    2.36    0.25
   1  13  -5    2.34    0.20
   0 -13   5    0.24    0.10
   0 -13  -5    0.14    0.12
   0 -13   5    0.20    0.13
   0 -13  -5    0.32    0.11
   0  13   5    0.13    0.11
   0  13  -5    0.25    0.05
  -1 -13  -5    7.51    0.45
  -1 -13  -5    8.21    0.46
   1  13   5    7.78    0.45
  -4 -14   5    3.36    0.24
  -4 -14   5    4.19    0.26
   4  14  -5    4.57    0.27
  -4  14   5    4.18    0.27
   4  14  -5    3.84    0.27
  -3 -14   5   12.16    0.65
  -3 -14   5   10.07    0.65
   3  14  -5   12.77    0.67
   3  14  -5   11.48    0.63
  -3  14   5   13.16    0.66
  -2 -14   5    2.41    0.22
  -2 -14   5    2.28    0.22
  -2 -14   5    2.42    0.23
   2  14  -5    1.87    0.15
  -2  14   5    2.21    0.23
   2  14  -5    2.36    0.21
   1 -14  -5    4.85    0.35
  -1 -14   5    4.77    0.34
  -1 -14   5    4.67    0.34
  -1 -14   5    4.90    0.33
  -1  14   5    4.65    0.34
   1  14  -5    4.83    0.27
   1  14  -5    4.74    0.33
   0 -14  -5    1.18    0.16
   0 -14   5    0.80    0.14
   0 -14   5    1.19    0.15
   0 -14  -5    0.99    0.14
   0  14  -5    1.11    0.09
   0  14   5    0.76    0.13
  -1 -14  -5    1.53    0.16
  -1 -14  -5    1.31    0.13
   1  14   5    1.44    0.14
  -4 -15   5    0.72    0.09
  -4  15   5    0.59    0.09
   4  15  -5    0.46    0.10
   4  15  -5    0.71    0.09
  -3 -15   5    1.70    0.16
  -3 -15   5    1.82    0.20
   3  15  -5    1.81    0.17
   3  15  -5    1.75    0.17
  -3  15   5    1.55    0.17
  -2 -15   5    8.37    0.50
  -2 -15   5    8.34    0.48
  -2 -15   5    8.50    0.50
  -2  15   5    8.47    0.48
   2  15  -5    7.32    0.47
   1 -15  -5   12.62    0.67
  -1 -15   5   11.44    0.67
  -1 -15   5   11.23    0.65
   1  15  -5   11.93    0.65
   1  15  -5   11.62    0.60
  -1  15   5   12.34    0.65
   0 -15   5    0.50    0.12
   0 -15   5    0.51    0.13
   0 -15  -5    0.59    0.12
   0  15  -5    0.51    0.10
   0  15   5    0.58    0.10
  -1 -15  -5    0.31    0.10
   1  15   5    0.56    0.09
  -4 -16   5    0.05    0.07
   4  16  -5    0.02    0.05
  -4  16   5    0.04    0.05
   4  16  -5    0.01    0.04
  -3 -16   5    0.63    0.11
  -3 -16   5    0.48    0.11
   3  16  -5    0.37    0.08
  -3  16   5    0.72    0.10
   3  16  -5    0.38    0.09
  -2 -16   5    0.18    0.11
  -2 -16   5    0.16    0.10
  -2 -16   5    0.15    0.07
   2  16  -5    0.05    0.07
  -2  16   5    0.10    0.08
  -1 -16   5    4.49    0.30
   1 -16  -5    3.78    0.26
  -1 -16   5    3.89    0.28
   1  16  -5    3.46    0.21
   1  16  -5    3.72    0.27
  -1  16   5    3.70    0.26
   0 -16   5    0.06    0.09
   0 -16  -5    0.09    0.06
   0 -16   5   -0.01    0.08
   0  16   5    0.07    0.08
  -3 -17   5    0.15    0.07
  -3 -17   5    0.22    0.09
  -3  17   5    0.13    0.08
   3  17  -5    0.06    0.04
   3  17  -5    0.14    0.08
  -2 -17   5    0.34    0.10
  -2 -17   5    0.53    0.12
  -2 -17   5    0.49    0.08
   2  17  -5    0.36    0.08
  -2  17   5    0.45    0.09
  -1 -17   5    2.47    0.20
   1 -17  -5    2.85    0.22
  -1 -17   5    2.42    0.20
  -1  17   5    2.52    0.19
   1  17  -5    2.44    0.19
   0 -17  -5    4.46    0.28
   0 -17   5    4.27    0.28
   0  17   5    4.14    0.26
  -2 -18   5    6.89    0.42
  -2 -18   5    7.29    0.40
  -2  18   5    7.09    0.39
   2  18  -5    7.22    0.40
  -1 -18   5   12.59    0.67
  -1 -18   5   12.95    0.67
   1 -18  -5   13.13    0.70
  -1  18   5   11.97    0.65
  -5   0   6    0.10    0.07
   5   0  -6    0.07    0.07
  -5   0   6    0.03    0.06
  -4   0   6    2.03    0.20
   4   0  -6    2.17    0.20
  -4   0   6    2.00    0.21
  -4   0   6    1.80    0.18
  -3   0   6   -0.06    0.10
  -3   0   6   -0.03    0.08
  -3   0   6    0.05    0.12
   3   0  -6    0.06    0.06
   2   0  -6    3.94    0.28
  -2   0   6    3.93    0.29
   2   0  -6    3.77    0.24
  -2   0   6    4.25    0.31
  -2   0   6    4.37    0.32
  -2   0   6    3.54    0.27
  -1   0   6    0.06    0.11
   1   0  -6    0.03    0.05
  -1   0   6    0.02    0.10
  -1   0   6    0.06    0.09
  -1   0   6   -0.05    0.12
   1   0  -6   -0.01    0.06
   0   0  -6    6.97    0.38
   0   0   6    6.81    0.42
   0   0   6    7.08    0.43
   0   0   6    6.99    0.42
   0   0   6    7.51    0.45
   1   0   6    0.00    0.06
   1   0   6    0.03    0.09
   1   0   6   -0.02    0.09
  -5  -1   6    4.37    0.29
  -5  -1   6    4.89    0.32
  -5   1   6    5.33    0.32
  -4  -1   6    0.27    0.10
  -4  -1   6    0.16    0.09
  -4  -1   6    0.29    0.08
   4  -1  -6    0.21    0.09
  -4   1   6    0.29    0.09
  -4   1   6    0.23    0.12
   4   1  -6    0.25    0.11
  -3  -1   6    1.27    0.16
   3  -1  -6    1.43    0.16
  -3  -1   6    1.19    0.18
  -3  -1   6    1.34    0.16
  -3   1   6    1.02    0.16
  -3   1   6    1.23    0.17
   3   1  -6    1.41    0.15
  -3   1   6    1.61    0.18
  -2  -1   6    4.52    0.32
  -2  -1   6    3.66    0.29
   2  -1  -6    3.99    0.29
  -2  -1   6    4.64    0.33
  -2  -1   6    4.94    0.33
  -2   1   6    3.65    0.29
  -2   1   6    4.47    0.32
   2   1  -6    3.88    0.25
   2   1  -6    4.18    0.29
  -2   1   6    4.27    0.33
  -1  -1   6    7.25    0.44
  -1  -1   6    6.32    0.40
  -1  -1   6    6.77    0.43
   1  -1  -6    6.54    0.35
  -1  -1   6    6.87    0.43
   1  -1  -6    5.10    0.37
   1   1  -6    5.63    0.38
  -1   1   6    6.51    0.42
   1   1  -6    6.51    0.35
  -1   1   6    7.19    0.43
  -1   1   6    7.03    0.43
  -1   1   6    6.73    0.41
   0  -1   6    0.90    0.12
   0  -1  -6    0.62    0.08
   0  -1   6    0.61    0.14
   0  -1   6    0.62    0.14
   0  -1   6    0.65    0.14
   0   1  -6    0.63    0.08
   0   1   6    0.66    0.13
   0   1   6    0.90    0.16
   0   1   6    0.88    0.13
   0   1   6    0.78    0.14
   1  -1   6    0.55    0.09
   1  -1   6    0.77    0.11
   1  -1   6    0.64    0.12
   1   1   6    0.62    0.10
   1   1   6    0.76    0.11
   1   1   6    0.72    0.12
  -5  -2   6   20.38    1.01
  -5  -2   6   20.27    1.00
  -5   2   6   18.50    0.99
   5   2  -6   19.11    0.99
  -4  -2   6    6.81    0.42
  -4  -2   6    7.42    0.43
   4  -2  -6    7.64    0.43
  -4  -2   6    6.84    0.44
   4   2  -6    6.78    0.41
  -4   2   6    7.55    0.45
  -3  -2   6    0.03    0.11
   3  -2  -6    0.02    0.06
  -3  -2   6    0.02    0.12
  -3  -2   6   -0.10    0.07
  -3   2   6    0.00    0.07
   3   2  -6    0.20    0.10
  -3   2   6   -0.04    0.09
  -3   2   6   -0.09    0.12
  -2  -2   6    1.57    0.18
  -2  -2   6    1.89    0.21
  -2  -2   6    1.34    0.22
   2  -2  -6    1.65    0.17
  -2  -2   6    1.67    0.18
  -2  -2   6    1.49    0.18
  -2   2   6    1.83    0.20
   2   2  -6    1.75    0.14
   2   2  -6    1.54    0.16
  -2   2   6    1.87    0.20
  -2   2   6    1.54    0.17
  -1  -2   6    0.01    0.09
   1  -2  -6    0.01    0.05
  -1  -2   6   -0.01    0.10
   1  -2  -6    0.04    0.07
  -1  -2   6   -0.06    0.09
  -1  -2   6   -0.04    0.08
  -1   2   6   -0.06    0.07
  -1   2   6    0.03    0.09
  -1   2   6    0.02    0.09
   1   2  -6    0.09    0.07
   1   2  -6    0.10    0.05
  -1   2   6    0.07    0.11
   0  -2   6   10.11    0.58
   0  -2  -6   10.02    0.52
   0  -2   6    9.00    0.56
   0  -2   6   10.60    0.58
   0  -2   6   10.19    0.57
   0   2   6   10.67    0.59
   0   2   6   10.59    0.58
   0   2   6    9.96    0.57
   0   2  -6   10.49    0.53
   1  -2   6    8.04    0.46
   1  -2   6    8.51    0.47
   1   2   6    8.95    0.48
   1   2   6    8.15    0.47
   1   2   6    8.56    0.47
  -5  -3   6    3.83    0.26
  -5  -3   6    3.77    0.26
  -5  -3   6    4.46    0.28
   5   3  -6    3.84    0.26
  -5   3   6    4.04    0.28
   4  -3  -6    1.17    0.14
  -4  -3   6    0.90    0.13
  -4  -3   6    0.88    0.15
  -4  -3   6    1.22    0.14
  -4   3   6    1.00    0.16
   3  -3  -6    2.08    0.21
  -3  -3   6    2.32    0.24
  -3  -3   6    2.23    0.23
  -3  -3   6    2.45    0.24
  -3   3   6    2.24    0.24
  -2  -3   6    1.39    0.18
  -2  -3   6    1.85    0.19
  -2  -3   6    1.84    0.19
  -2  -3   6    1.73    0.20
   2  -3  -6    1.90    0.18
  -2  -3   6    1.70    0.20
   2   3  -6    1.56    0.17
   2   3  -6    1.42    0.13
  -2   3   6    1.68    0.18
  -2   3   6    1.08    0.16
  -2   3   6    1.36    0.19
   1  -3  -6    1.95    0.14
  -1  -3   6    2.17    0.22
  -1  -3   6    1.68    0.20
  -1  -3   6    2.18    0.22
  -1  -3   6    1.87    0.21
   1   3  -6    1.67    0.13
   1   3  -6    1.73    0.17
  -1   3   6    1.98    0.21
  -1   3   6    1.60    0.19
  -1   3   6    1.66    0.20
  -1   3   6    1.69    0.18
   0  -3   6    2.05    0.20
   0  -3  -6    1.84    0.14
   0  -3   6    1.57    0.18
   0  -3   6    2.05    0.18
   0   3  -6    1.95    0.14
   0   3   6    1.89    0.18
   0   3   6    1.88    0.19
   0   3   6    2.32    0.21
   1  -3   6   11.41    0.58
   1  -3   6   11.29    0.58
   1   3   6   10.22    0.57
   1   3   6   10.00    0.57
  -5  -4   6    1.33    0.13
  -5  -4   6    0.98    0.13
  -5  -4   6    1.37    0.14
   5   4  -6    1.19    0.12
  -5   4   6    1.57    0.16
   4  -4  -6    0.13    0.09
  -4  -4   6    0.28    0.11
  -4  -4   6    0.10    0.11
  -4  -4   6    0.11    0.11
  -4   4   6    0.20    0.11
   3  -4  -6    0.09    0.09
  -3  -4   6   -0.08    0.07
  -3  -4   6    0.09    0.11
  -3  -4   6    0.10    0.11
  -3  -4   6   -0.03    0.12
  -3   4   6    0.02    0.12
   3   4  -6    0.01    0.07
   2  -4  -6    2.43    0.21
  -2  -4   6    2.26    0.23
  -2  -4   6    2.29    0.23
  -2  -4   6    2.42    0.24
  -2  -4   6    2.40    0.25
  -2  -4   6    1.83    0.21
  -2   4   6    2.45    0.24
   2   4  -6    2.15    0.15
  -2   4   6    1.85    0.19
   2   4  -6    2.04    0.21
  -1  -4   6    6.49    0.39
  -1  -4   6    5.85    0.38
   1  -4  -6    5.60    0.33
  -1  -4   6    6.44    0.40
  -1  -4   6    6.64    0.42
   1  -4  -6    5.47    0.36
  -1   4   6    5.48    0.38
  -1   4   6    5.42    0.37
  -1   4   6    5.68    0.38
  -1   4   6    6.51    0.40
   1   4  -6    5.73    0.36
   1   4  -6    6.11    0.33
   0  -4   6    0.40    0.13
   0  -4  -6    0.54    0.07
   0  -4   6    0.46    0.10
   0  -4   6    0.68    0.11
   0   4  -6    0.65    0.07
   0   4   6    0.63    0.14
   0   4   6    0.79    0.12
   0   4   6    0.45    0.12
  -1  -4  -6    0.55    0.11
   1  -4   6    0.42    0.10
   1  -4   6    0.40    0.10
   1   4   6    0.40    0.09
   1   4   6    0.36    0.10
  -5  -5   6    9.98    0.55
  -5  -5   6   10.34    0.55
  -5  -5   6    9.96    0.55
   5   5  -6   10.82    0.55
   5   5  -6   10.27    0.56
  -5   5   6   10.39    0.55
  -4  -5   6    3.43    0.25
  -4  -5   6    3.41    0.24
   4  -5  -6    2.74    0.22
  -4  -5   6    3.47    0.27
   4   5  -6    3.30    0.24
  -4   5   6    3.21    0.24
  -3  -5   6    7.57    0.48
  -3  -5   6    8.25    0.49
  -3  -5   6    9.04    0.51
  -3  -5   6    8.64    0.50
   3  -5  -6    8.24    0.48
  -3   5   6    8.42    0.49
   3   5  -6    8.25    0.48
  -2  -5   6    6.28    0.39
  -2  -5   6    5.88    0.41
   2  -5  -6    5.89    0.36
  -2  -5   6    5.90    0.38
  -2  -5   6    6.00    0.40
  -2   5   6    5.86    0.38
   2   5  -6    5.63    0.33
  -1  -5   6    0.71    0.13
   1  -5  -6    0.75    0.12
  -1  -5   6    0.73    0.15
   1  -5  -6    0.55    0.08
  -1  -5   6    0.81    0.14
  -1  -5   6    1.01    0.14
  -1   5   6    0.84    0.15
   1   5  -6    0.65    0.11
   1   5  -6    0.78    0.09
  -1   5   6    0.63    0.11
   0  -5   6    1.27    0.14
   0  -5   6    1.12    0.14
   0  -5  -6    1.12    0.11
   0  -5   6    1.16    0.15
   0   5   6    1.22    0.16
   0   5  -6    1.26    0.10
   0   5   6    1.42    0.16
   0   5   6    1.46    0.16
   1  -5   6    0.98    0.11
  -1  -5  -6    1.18    0.13
   1   5   6    0.98    0.11
   1   5   6    0.74    0.10
  -5  -6   6    6.07    0.34
  -5  -6   6    5.32    0.32
  -5  -6   6    5.93    0.34
   5   6  -6    5.56    0.34
   5   6  -6    6.19    0.34
  -4  -6   6    0.54    0.10
  -4  -6   6    0.37    0.10
  -4  -6   6    0.28    0.12
   4  -6  -6    0.39    0.09
   4   6  -6    0.43    0.11
  -4   6   6    0.38    0.09
  -3  -6   6    0.21    0.09
   3  -6  -6    0.15    0.10
  -3  -6   6    0.24    0.11
  -3  -6   6    0.16    0.12
   3   6  -6    0.09    0.09
  -3   6   6    0.15    0.11
  -2  -6   6   12.86    0.73
   2  -6  -6   13.99    0.74
  -2  -6   6   14.35    0.75
  -2  -6   6   13.63    0.76
  -2  -6   6   14.21    0.77
  -2   6   6   13.72    0.75
   2   6  -6   13.03    0.69
  -1  -6   6    1.39    0.18
  -1  -6   6    1.59    0.19
  -1  -6   6    1.72    0.18
  -1  -6   6    1.58    0.19
   1   6  -6    1.54    0.12
  -1   6   6    1.59    0.17
  -1   6   6    1.80    0.19
   0  -6   6    0.87    0.14
   0  -6  -6    0.96    0.09
   0  -6  -6    1.02    0.17
   0  -6   6    1.06    0.13
   0  -6   6    0.91    0.13
   0   6  -6    0.96    0.09
   0   6   6    1.04    0.14
   0   6   6    1.00    0.15
   1  -6   6    0.32    0.08
  -1  -6  -6    0.24    0.09
   1   6   6    0.26    0.09
  -5  -7   6    0.07    0.05
  -5  -7   6    0.01    0.08
   5   7  -6   -0.06    0.04
   5   7  -6   -0.03    0.05
  -4  -7   6    1.04    0.13
  -4  -7   6    1.08    0.13
   4  -7  -6    0.99    0.13
   4   7  -6    1.41    0.14
  -4   7   6    1.06    0.15
  -3  -7   6    2.82    0.23
  -3  -7   6    2.91    0.25
  -3  -7   6    2.73    0.22
   3  -7  -6    3.03    0.22
  -3   7   6    2.61    0.24
   3   7  -6    3.00    0.23
  -2  -7   6    0.99    0.15
  -2  -7   6    0.88    0.15
  -2  -7   6    1.24    0.17
  -2  -7   6    0.89    0.14
   2  -7  -6    1.34    0.17
   2  -7  -6    1.06    0.13
   2   7  -6    0.94    0.10
  -2   7   6    1.13    0.15
  -1  -7   6    1.50    0.20
  -1  -7   6    2.05    0.19
  -1  -7   6    2.50    0.25
   1  -7  -6    2.34    0.25
  -1  -7   6    2.14    0.22
   1   7  -6    1.93    0.14
  -1   7   6    2.60    0.22
   0  -7   6    2.43    0.20
   0  -7  -6    2.47    0.22
   0  -7   6    2.97    0.24
   0   7   6    2.84    0.21
   0   7   6    2.71    0.20
   0   7  -6    2.70    0.17
  -1  -7  -6    2.47    0.18
   1   7   6    2.93    0.20
  -5  -8   6    7.74    0.40
  -5  -8   6    6.71    0.39
   5   8  -6    7.04    0.39
   4  -8  -6    0.02    0.07
  -4  -8   6    0.02    0.06
  -4  -8   6   -0.07    0.08
  -4  -8   6    0.05    0.09
   4   8  -6    0.00    0.05
   3  -8  -6    0.24    0.07
  -3  -8   6    0.22    0.08
  -3  -8   6    0.24    0.09
  -3  -8   6    0.16    0.10
   3   8  -6    0.34    0.09
  -2  -8   6    0.10    0.08
  -2  -8   6    0.28    0.09
  -2  -8   6    0.10    0.11
   2  -8  -6    0.19    0.12
  -2  -8   6    0.19    0.12
   2  -8  -6    0.15    0.09
  -2   8   6    0.15    0.08
   2   8  -6    0.22    0.06
  -1  -8   6   12.70    0.66
  -1  -8   6   10.96    0.66
  -1  -8   6   12.50    0.67
  -1  -8   6   12.00    0.66
   1  -8  -6   12.33    0.68
   1   8  -6   12.21    0.61
  -1   8   6   11.00    0.64
   0  -8   6    5.25    0.34
   0  -8   6    5.48    0.33
   0  -8  -6    5.65    0.35
   0   8   6    4.74    0.31
   0   8  -6    4.78    0.29
  -1  -8  -6    0.11    0.09
  -4  -9   6    3.39    0.23
  -4  -9   6    3.11    0.23
  -4  -9   6    3.55    0.24
   4   9  -6    3.64    0.23
   4   9  -6    3.09    0.23
   3  -9  -6    5.74    0.34
  -3  -9   6    5.77    0.35
  -3  -9   6    5.32    0.33
  -3  -9   6    5.23    0.33
   3   9  -6    4.58    0.31
  -2  -9   6    2.27    0.20
   2  -9  -6    2.65    0.25
  -2  -9   6    2.68    0.23
  -2  -9   6    2.61    0.20
  -2  -9   6    2.83    0.25
   2   9  -6    2.18    0.16
   1  -9  -6    0.28    0.09
  -1  -9   6    0.12    0.10
  -1  -9   6    0.02    0.11
   1   9  -6    0.13    0.05
  -1   9   6    0.24    0.10
   0  -9  -6    0.06    0.10
   0  -9   6   -0.01    0.07
   0  -9   6   -0.01    0.06
   0   9   6    0.01    0.06
  -4 -10   6    1.75    0.16
  -4 -10   6    1.42    0.14
  -4 -10   6    1.44    0.13
   4  10  -6    1.89    0.15
   4  10  -6    1.28    0.15
  -3 -10   6    0.09    0.09
  -3 -10   6    0.14    0.07
  -3 -10   6    0.00    0.05
   3  10  -6    0.10    0.07
  -2 -10   6    0.92    0.15
  -2 -10   6    0.83    0.11
  -2 -10   6    1.16    0.13
  -2  10   6    0.72    0.12
   2  10  -6    0.90    0.09
   1 -10  -6    1.32    0.15
  -1 -10   6    1.32    0.15
  -1 -10   6    0.98    0.14
   1  10  -6    1.16    0.10
  -1  10   6    1.02    0.12
   0 -10  -6    2.64    0.21
   0 -10   6    2.40    0.19
   0 -10  -6    2.31    0.19
   0  10   6    2.37    0.19
   0  10   6    2.54    0.18
  -4 -11   6    8.18    0.44
  -4 -11   6    8.02    0.44
   4  11  -6    8.44    0.44
   4  11  -6    7.52    0.44
  -3 -11   6    2.77    0.20
  -3 -11   6    3.08    0.23
  -3 -11   6    2.97    0.24
  -3  11   6    3.00    0.22
   3  11  -6    2.96    0.21
  -2 -11   6    2.96    0.23
  -2 -11   6    3.23    0.23
  -2  11   6    2.64    0.21
  -1 -11   6    1.43    0.15
   1 -11  -6    1.36    0.15
  -1 -11   6    1.33    0.15
  -1  11   6    1.01    0.13
   0 -11  -6    0.44    0.12
   0 -11  -6    0.55    0.09
   0  11   6    0.38    0.08
  -4 -12   6    9.39    0.57
   4  12  -6   11.80    0.55
  -3 -12   6    4.76    0.28
  -3 -12   6    4.44    0.29
  -3 -12   6    4.61    0.30
   3  12  -6    3.98    0.25
  -3  12   6    4.65    0.28
  -2 -12   6    5.37    0.30
  -2 -12   6    4.16    0.30
  -2  12   6    4.87    0.29
   1 -12  -6    2.84    0.21
  -1 -12   6    3.19    0.24
  -1 -12   6    3.09    0.21
  -1  12   6    2.85    0.21
   0 -12  -6    0.14    0.09
  -3 -13   6    4.79    0.28
   3  13  -6    4.62    0.26
  -3  13   6    4.63    0.28
  -2 -13   6    0.97    0.11
  -2 -13   6    0.91    0.13
  -2  13   6    0.94    0.12
  -1 -13   6    1.10    0.12
   1 -13  -6    1.23    0.14
  -1  13   6    1.15    0.13
  -2 -14   6    0.03    0.07
  -2  14   6    0.09    0.05
   4   0  -7    0.01    0.04
  -4   0   7   -0.03    0.07
   3   0  -7    1.16    0.12
  -3   0   7    1.10    0.13
  -3   0   7    1.03    0.11
  -3   0   7    0.93    0.11
  -2   0   7    0.05    0.08
  -2   0   7   -0.12    0.07
  -2   0   7    0.01    0.08
  -1   0   7   44.03    2.27
  -1   0   7   44.48    2.24
  -1   0   7   49.30    2.24
   4  -1  -7    0.15    0.06
  -4  -1   7    0.20    0.10
  -4   1   7    0.15    0.06
   4   1  -7    0.12    0.06
  -3  -1   7    0.12    0.08
   3  -1  -7    0.14    0.06
  -3  -1   7    0.01    0.07
  -3  -1   7    0.08    0.06
  -3   1   7    0.16    0.07
  -3   1   7   -0.01    0.05
   3   1  -7    0.22    0.05
  -3   1   7    0.08    0.08
  -2  -1   7    2.88    0.20
  -2  -1   7    2.74    0.19
  -2  -1   7    2.92    0.20
  -2  -1   7    3.22    0.22
  -2   1   7    2.81    0.21
  -2   1   7    2.73    0.20
  -2   1   7    3.01    0.22
  -1  -1   7    0.68    0.10
  -1  -1   7    0.52    0.08
  -1   1   7    0.53    0.10
  -1   1   7    0.50    0.08
  -1   1   7    0.53    0.09
   4  -2  -7    0.09    0.07
   4   2  -7    0.14    0.04
  -4   2   7    0.13    0.10
   3  -2  -7    0.93    0.10
  -3  -2   7    0.92    0.12
  -3  -2   7    0.81    0.11
  -3  -2   7    0.85    0.10
   3   2  -7    1.11    0.11
  -3   2   7    1.12    0.12
  -2  -2   7    2.99    0.20
  -2  -2   7    2.76    0.19
  -2  -2   7    2.47    0.19
   2  -2  -7    2.49    0.17
  -2  -2   7    2.53    0.18
  -2   2   7    2.56    0.19
  -2   2   7    2.31    0.18
  -2   2   7    2.76    0.19
  -1  -2   7    1.05    0.11
  -1  -2   7    0.92    0.10
  -1   2   7    1.03    0.10
  -1   2   7    1.05    0.12
   4   3  -7    6.46    0.39
   3  -3  -7    3.69    0.22
  -3  -3   7    3.29    0.23
  -3  -3   7    3.46    0.24
  -3  -3   7    3.29    0.22
  -3   3   7    3.20    0.22
   3   3  -7    3.70    0.22
  -2  -3   7    0.16    0.08
  -2  -3   7    0.21    0.09
  -2  -3   7    0.09    0.07
  -2  -3   7    0.14    0.07
  -2   3   7    0.11    0.06
  -2   3   7    0.12    0.05
  -1  -3   7    0.45    0.07
  -1  -3   7    0.49    0.08
  -1  -3   7    0.49    0.07
  -1   3   7    0.51    0.08
  -1   3   7    0.31    0.09
   3  -4  -7    3.94    0.24
  -3  -4   7    4.23    0.26
  -3  -4   7    4.23    0.25
   3   4  -7    4.04    0.24
  -3   4   7    4.11    0.25
   2  -4  -7    2.04    0.19
  -2  -4   7    2.13    0.16
  -2  -4   7    2.51    0.19
  -2  -4   7    2.18    0.17
  -2   4   7    2.11    0.18
  -1  -4   7    5.55    0.33
  -3  -5   7    0.44    0.07
  -3  -5   7    0.42    0.07
   3  -5  -7    0.56    0.08
  -3   5   7    0.52    0.09
  -2  -5   7    3.07    0.20
  -2  -5   7    2.98    0.20
  -2  -5   7    3.30    0.21
  -2   5   7    3.05    0.20
  -3  -6   7    0.01    0.05
  -2  -6   7    0.36    0.07
  -2  -6   7    0.17    0.09
   0   0   0    0.00    0.00
;
_shelx_hkl_checksum              36066
_shelx_res_file
;
    tcd595b.res created by SHELXL-2014/7
TITL TCD595b_a.res in P2(1)/n
CELL 1.54184 5.874 21.0774 5.9744 90 110.372 90
ZERR 2 0.0019 0.0067 0.002 0 0.013 0
LATT 1
SYMM 0.5-X,0.5+Y,0.5-Z
SFAC C H N
UNIT 28 40 8
L.S. 4
PLAN  -2 0 0
TEMP -173.15
HTAB
BOND $H
CONF
HTAB
WPDB -2
MORE -1
fmap 2
acta
REM <olex2.extras>
REM <HklSrc "%.\\TCD595b.hkl">
REM </olex2.extras>
WGHT    0.087500    0.407800
FVAR       0.40850
C2    1    0.545805    0.420303    0.406904    11.00000    0.02263    0.02942 =
         0.02539   -0.00047    0.00788    0.00121
C3    1    0.772107    0.409382    0.614256    11.00000    0.02551    0.03309 =
         0.02907   -0.00079    0.01183    0.00100
C5    1    0.341774    0.375945    0.418842    11.00000    0.02150    0.03568 =
         0.03333   -0.00086    0.01197   -0.00100
AFIX  23
H5A   2    0.320080    0.381417    0.574776    11.00000   -1.20000
H5B   2    0.187562    0.387849    0.291951    11.00000   -1.20000
AFIX   0
C6    1    0.398112    0.306541    0.388018    11.00000    0.02522    0.03155 =
         0.03642    0.00201    0.01140   -0.00153
AFIX  23
H6A   2    0.540354    0.293015    0.526108    11.00000   -1.20000
H6B   2    0.257967    0.279970    0.384614    11.00000   -1.20000
AFIX   0
C7    1    0.451326    0.296346    0.158465    11.00000    0.03064    0.02947 =
         0.03413   -0.00227    0.00886   -0.00020
AFIX  23
H7A   2    0.302686    0.304940    0.019442    11.00000   -1.20000
H7B   2    0.498153    0.251561    0.149345    11.00000   -1.20000
AFIX   0
C8    1    0.655379    0.339733    0.148010    11.00000    0.03074    0.03359 =
         0.02978   -0.00098    0.01331    0.00154
AFIX  23
H8A   2    0.808259    0.328052    0.277183    11.00000   -1.20000
H8B   2    0.679675    0.333696   -0.006474    11.00000   -1.20000
AFIX   0
C9    1    0.597727    0.409193    0.174916    11.00000    0.02470    0.03466 =
         0.02550   -0.00053    0.00986   -0.00116
AFIX  23
H9A   2    0.454424    0.422102    0.036767    11.00000   -1.20000
H9B   2    0.736844    0.435821    0.175711    11.00000   -1.20000
AFIX   0
N1    3    0.454363    0.485738    0.404928    11.00000    0.02472    0.03196 =
         0.03008   -0.00227    0.01109   -0.00083
N4    3    0.950155    0.398817    0.767434    11.00000    0.02842    0.05048 =
         0.03233    0.00123    0.00631    0.00560
HKLF 4
REM  TCD595b_a.res in P2(1)/n
REM R1 =  0.0585 for    1213 Fo > 4sig(Fo)  and  0.0610 for all    1299 data
REM     82 parameters refined using      0 restraints
END
WGHT      0.0875      0.4078
REM No hydrogen bonds found for HTAB generation
REM Highest difference peak  0.465,  deepest hole -0.160,  1-sigma level  0.059
Q1    1   0.4359  0.3340  0.2550  11.00000  0.05    0.46
Q2    1   0.4142  0.3435  0.4726  11.00000  0.05    0.45
;
_shelx_res_checksum              85061
loop_
_space_group_symop_operation_xyz
'x, y, z'
'-x+1/2, y+1/2, -z+1/2'
'-x, -y, -z'
'x-1/2, -y-1/2, z-1/2'
loop_
_atom_site_type_symbol
_atom_site_label
_atom_site_fract_x
_atom_site_fract_y
_atom_site_fract_z
_atom_site_U_iso_or_equiv
_atom_site_adp_type
_atom_site_calc_flag
_atom_site_occupancy
C C2 0.5458(3) 0.42030(8) 0.4069(3) 0.0259(4) Uani d 1
C C3 0.7721(3) 0.40938(8) 0.6143(3) 0.0286(4) Uani d 1
C C5 0.3418(3) 0.37594(8) 0.4188(3) 0.0295(4) Uani d 1
H H5A 0.3201 0.3814 0.5748 0.035 Uiso calc 1
H H5B 0.1876 0.3878 0.2920 0.035 Uiso calc 1
C C6 0.3981(3) 0.30654(8) 0.3880(3) 0.0309(5) Uani d 1
H H6A 0.5404 0.2930 0.5261 0.037 Uiso calc 1
H H6B 0.2580 0.2800 0.3846 0.037 Uiso calc 1
C C7 0.4513(3) 0.29635(8) 0.1585(3) 0.0320(5) Uani d 1
H H7A 0.3027 0.3049 0.0194 0.038 Uiso calc 1
H H7B 0.4982 0.2516 0.1493 0.038 Uiso calc 1
C C8 0.6554(3) 0.33973(8) 0.1480(3) 0.0306(5) Uani d 1
H H8A 0.8083 0.3281 0.2772 0.037 Uiso calc 1
H H8B 0.6797 0.3337 -0.0065 0.037 Uiso calc 1
C C9 0.5977(3) 0.40919(8) 0.1749(3) 0.0280(4) Uani d 1
H H9A 0.4544 0.4221 0.0368 0.034 Uiso calc 1
H H9B 0.7368 0.4358 0.1757 0.034 Uiso calc 1
N N1 0.4544(3) 0.48574(7) 0.4049(3) 0.0285(4) Uani d 1
N N4 0.9502(3) 0.39882(8) 0.7674(3) 0.0382(5) Uani d 1
loop_
_atom_site_aniso_label
_atom_site_aniso_U_11
_atom_site_aniso_U_22
_atom_site_aniso_U_33
_atom_site_aniso_U_12
_atom_site_aniso_U_13
_atom_site_aniso_U_23
C2 0.0226(8) 0.0294(9) 0.0254(8) 0.0012(6) 0.0079(7) -0.0005(6)
C3 0.0255(9) 0.0331(9) 0.0291(9) 0.0010(7) 0.0118(8) -0.0008(7)
C5 0.0215(8) 0.0357(10) 0.0333(9) -0.0010(7) 0.0120(7) -0.0009(7)
C6 0.0252(9) 0.0316(10) 0.0364(10) -0.0015(7) 0.0114(7) 0.0020(7)
C7 0.0306(9) 0.0295(9) 0.0341(9) -0.0002(7) 0.0089(7) -0.0023(7)
C8 0.0307(9) 0.0336(10) 0.0298(9) 0.0015(7) 0.0133(7) -0.0010(7)
C9 0.0247(9) 0.0347(10) 0.0255(9) -0.0012(6) 0.0099(7) -0.0005(7)
N1 0.0247(8) 0.0320(8) 0.0301(7) -0.0008(5) 0.0111(6) -0.0023(5)
N4 0.0284(9) 0.0505(10) 0.0323(8) 0.0056(7) 0.0063(7) 0.0012(7)
loop_
_atom_type_symbol
_atom_type_description
_atom_type_scat_dispersion_real
_atom_type_scat_dispersion_imag
_atom_type_scat_source
C C 0.0181 0.0091 'International Tables Vol C Tables 4.2.6.8 and 6.1.1.4'
H H 0.0000 0.0000 'International Tables Vol C Tables 4.2.6.8 and 6.1.1.4'
N N 0.0311 0.0180 'International Tables Vol C Tables 4.2.6.8 and 6.1.1.4'
loop_
_geom_angle_atom_site_label_1
_geom_angle_atom_site_label_2
_geom_angle_atom_site_label_3
_geom_angle_site_symmetry_1
_geom_angle
C3 C2 C5 . 110.60(14)
C3 C2 C9 . 109.11(14)
C9 C2 C5 . 110.54(14)
N1 C2 C3 . 111.60(13)
N1 C2 C5 . 106.26(13)
N1 C2 C9 . 108.69(13)
N4 C3 C2 . 176.58(18)
C2 C5 H5A . 109.3
C2 C5 H5B . 109.3
H5A C5 H5B . 107.9
C6 C5 C2 . 111.80(14)
C6 C5 H5A . 109.3
C6 C5 H5B . 109.3
C5 C6 H6A . 109.3
C5 C6 H6B . 109.3
H6A C6 H6B . 108.0
C7 C6 C5 . 111.41(14)
C7 C6 H6A . 109.3
C7 C6 H6B . 109.3
C6 C7 H7A . 109.4
C6 C7 H7B . 109.4
C6 C7 C8 . 111.24(14)
H7A C7 H7B . 108.0
C8 C7 H7A . 109.4
C8 C7 H7B . 109.4
C7 C8 H8A . 109.3
C7 C8 H8B . 109.3
H8A C8 H8B . 108.0
C9 C8 C7 . 111.40(14)
C9 C8 H8A . 109.3
C9 C8 H8B . 109.3
C2 C9 H9A . 109.4
C2 C9 H9B . 109.4
C8 C9 C2 . 111.26(14)
C8 C9 H9A . 109.4
C8 C9 H9B . 109.4
H9A C9 H9B . 108.0
N1 N1 C2 3_666 114.07(18)
loop_
_geom_bond_atom_site_label_1
_geom_bond_atom_site_label_2
_geom_bond_site_symmetry_2
_geom_bond_distance
C2 C3 . 1.486(2)
C2 C5 . 1.541(2)
C2 C9 . 1.537(2)
C2 N1 . 1.479(2)
C3 N4 . 1.147(2)
C5 H5A . 0.9900
C5 H5B . 0.9900
C5 C6 . 1.525(2)
C6 H6A . 0.9900
C6 H6B . 0.9900
C6 C7 . 1.524(3)
C7 H7A . 0.9900
C7 H7B . 0.9900
C7 C8 . 1.526(2)
C8 H8A . 0.9900
C8 H8B . 0.9900
C8 C9 . 1.524(2)
C9 H9A . 0.9900
C9 H9B . 0.9900
N1 N1 3_666 1.231(3)
loop_
_geom_torsion_atom_site_label_1
_geom_torsion_atom_site_label_2
_geom_torsion_atom_site_label_3
_geom_torsion_atom_site_label_4
_geom_torsion_site_symmetry_4
_geom_torsion
C2 C5 C6 C7 . -54.82(19)
C3 C2 C5 C6 . -66.44(18)
C3 C2 C9 C8 . 66.81(18)
C3 C2 N1 N1 3_666 -15.1(2)
C5 C2 C9 C8 . -55.02(19)
C5 C2 N1 N1 3_666 105.57(19)
C5 C6 C7 C8 . 55.17(19)
C6 C7 C8 C9 . -56.00(19)
C7 C8 C9 C2 . 56.17(19)
C9 C2 C5 C6 . 54.51(19)
C9 C2 N1 N1 3_666 -135.45(18)
N1 C2 C5 C6 . 172.27(13)
N1 C2 C9 C8 . -171.28(13)

_cod_database_fobs_code 1545554
