#------------------------------------------------------------------------------
#$Date: 2017-02-22 05:49:53 +0200 (Wed, 22 Feb 2017) $
#$Revision: 192432 $
#$URL: file:///home/coder/svn-repositories/cod/cif/1/54/53/1545305.cif $
#------------------------------------------------------------------------------
#
# This file is available in the Crystallography Open Database (COD),
# http://www.crystallography.net/. The original data for this entry
# were provided by IUCr Journals, http://journals.iucr.org/.
#
# The file may be used within the scientific community so long as
# proper attribution is given to the journal article from which the
# data were obtained.
#
data_1545305
loop_
_publ_author_name
'Weil, Matthias'
'Siebert, David Chan Bodin'
'Schn\"urch, Michael'
_publ_section_title
;
 (<i>Z</i>)-4,6-Dichloro-<i>N</i>-(4-chlorophenyl)quinoline-3-carbimidoyl
 chloride
;
_journal_coeditor_code           BT4044
_journal_issue                   2
_journal_name_full               IUCrData
_journal_page_first              x170274
_journal_paper_doi               10.1107/S2414314617002747
_journal_volume                  2
_journal_year                    2017
_chemical_formula_moiety         'C16 H8 Cl4 N2'
_chemical_formula_sum            'C16 H8 Cl4 N2'
_chemical_formula_weight         370.04
_chemical_name_systematic
;
(<i>Z</i>)-4,6-Dichloro-<i>N</i>-(4-chlorophenyl)quinoline-3-carbimidoyl
chloride
;
_space_group_crystal_system      triclinic
_space_group_IT_number           2
_space_group_name_Hall           '-P 1'
_space_group_name_H-M_alt        'P -1'
_symmetry_space_group_name_Hall  '-P 1'
_symmetry_space_group_name_H-M   'P -1'
_atom_sites_solution_hydrogens   geom
_audit_creation_method           SHELXL-2014/7
_cell_angle_alpha                64.259(4)
_cell_angle_beta                 72.322(5)
_cell_angle_gamma                64.093(4)
_cell_formula_units_Z            2
_cell_length_a                   9.2595(14)
_cell_length_b                   9.9204(15)
_cell_length_c                   10.1731(15)
_cell_measurement_reflns_used    9901
_cell_measurement_temperature    100(2)
_cell_measurement_theta_max      29.906
_cell_measurement_theta_min      2.245
_cell_volume                     749.6(2)
_computing_cell_refinement
;
SAINT (Bruker, 2015)
;
_computing_data_collection
;
APEX3 (Bruker, 2015)
;
_computing_data_reduction
;
SAINT (Bruker, 2015)
;
_computing_molecular_graphics
;
XP (Sheldrick, 2008) and Mercury (Macrae <i>et al.</i>, 2006)
;
_computing_publication_material
;
publCIF (Westrip, 2010)
;
_computing_structure_refinement
;
SHELXL2014 (Sheldrick, 2015b)
;
_computing_structure_solution
;
SHELXT (Sheldrick, 2015a)
;
_diffrn_ambient_temperature      100(2)
_diffrn_measured_fraction_theta_full 1.000
_diffrn_measured_fraction_theta_max 0.997
_diffrn_measurement_device_type  'Bruker APEXII CCD'
_diffrn_measurement_method       '\w- and \f-scans'
_diffrn_radiation_type           MoK\a
_diffrn_radiation_wavelength     0.71073
_diffrn_reflns_av_R_equivalents  0.0328
_diffrn_reflns_limit_h_max       13
_diffrn_reflns_limit_h_min       -12
_diffrn_reflns_limit_k_max       13
_diffrn_reflns_limit_k_min       -13
_diffrn_reflns_limit_l_max       14
_diffrn_reflns_limit_l_min       -14
_diffrn_reflns_number            26858
_diffrn_reflns_theta_full        25.242
_diffrn_reflns_theta_max         29.956
_diffrn_reflns_theta_min         2.245
_exptl_absorpt_coefficient_mu    0.784
_exptl_absorpt_correction_T_max  .746
_exptl_absorpt_correction_T_min  .689
_exptl_absorpt_correction_type   multi-scan
_exptl_absorpt_process_details
;
(<i>SADABS</i>; Bruker, 2015)
;
_exptl_crystal_colour            'light yellow'
_exptl_crystal_density_diffrn    1.639
_exptl_crystal_description       plate
_exptl_crystal_F_000             372
_exptl_crystal_size_max          0.300
_exptl_crystal_size_mid          0.200
_exptl_crystal_size_min          0.050
_refine_diff_density_max         0.457
_refine_diff_density_min         -0.204
_refine_ls_extinction_method     none
_refine_ls_goodness_of_fit_ref   1.038
_refine_ls_hydrogen_treatment    constr
_refine_ls_matrix_type           full
_refine_ls_number_parameters     199
_refine_ls_number_reflns         4335
_refine_ls_number_restraints     0
_refine_ls_restrained_S_all      1.038
_refine_ls_R_factor_all          0.0315
_refine_ls_R_factor_gt           0.0247
_refine_ls_shift/su_max          0.001
_refine_ls_shift/su_mean         0.000
_refine_ls_structure_factor_coef Fsqd
_refine_ls_weighting_details
'w=1/[\s^2^(Fo^2^)+(0.0357P)^2^+0.2338P] where P=(Fo^2^+2Fc^2^)/3'
_refine_ls_weighting_scheme      calc
_refine_ls_wR_factor_gt          0.0649
_refine_ls_wR_factor_ref         0.0683
_reflns_number_gt                3750
_reflns_number_total             4335
_reflns_threshold_expression     'I > 2\s(I)'
_cod_data_source_file            bt4044sup1.cif
_cod_data_source_block           I
_cod_database_code               1545305
_shelx_space_group_comment
;
The symmetry employed for this shelxl refinement is uniquely defined
by the following loop, which should always be used as a source of
symmetry information in preference to the above space-group names.
They are only intended as comments.
;
_shelx_estimated_absorpt_t_min   0.799
_shelx_estimated_absorpt_t_max   0.962
_shelx_hkl_file
;
  -1   0   0   25.10    1.10
  -1   0   0   24.20    1.00
  -1   0   0   27.40    1.20
  -1   0   0   26.90    1.00
   1   0   0   27.70    1.20
   1   0   0   24.50    1.00
   1   0   0   25.50    1.00
   1   0   0   27.40    1.10
   1   0   0   27.00    1.10
   1   0   0   26.60    1.20
   1   0   0   26.40    1.00
  -2   0   0  672.43   22.00
  -2   0   0  674.43   22.10
  -2   0   0  685.63   21.90
  -2   0   0  681.63   21.90
  -2   0   0  662.53   21.80
  -2   0   0  696.93   22.10
  -2   0   0  709.83   22.10
   2   0   0  670.53   22.10
   2   0   0  717.83   22.10
   2   0   0  712.93   22.10
   2   0   0  674.23   21.90
   2   0   0  656.23   21.80
   2   0   0  674.33   21.90
   2   0   0  676.13   22.00
  -3   0   0 1019.40   33.30
  -3   0   0 1011.80   33.50
  -3   0   0 1038.40   33.20
  -3   0   0 1009.70   33.10
  -3   0   0 1054.79   33.50
  -3   0   0 1031.40   33.10
  -3   0   0 1054.19   33.50
   3   0   0  957.20   33.20
   3   0   0 1027.40   33.00
   3   0   0 1014.60   33.20
   3   0   0 1096.89   33.50
   3   0   0 1069.89   33.50
   3   0   0 1051.09   33.30
   3   0   0 1053.89   33.50
  -4   0   0    0.50    1.00
  -4   0   0    0.10    0.80
  -4   0   0    0.90    0.60
  -4   0   0    1.20    0.50
  -4   0   0   -0.20    0.90
  -4   0   0    1.00    0.60
  -4   0   0    0.10    1.00
   4   0   0    1.20    0.90
   4   0   0    0.20    0.70
   4   0   0    0.30    0.50
   4   0   0    0.40    0.30
   4   0   0    1.40    0.30
   4   0   0    0.50    0.70
   4   0   0   -0.10    0.60
   4   0   0   -0.20    1.10
  -5   0   0  191.98    6.70
  -5   0   0  193.98    7.50
  -5   0   0  189.08    7.50
  -5   0   0  197.38    7.50
  -5   0   0  205.08    7.20
  -5   0   0  204.98    6.90
   5   0   0  206.08    6.70
   5   0   0  205.18    7.10
   5   0   0  199.58    7.40
   5   0   0  187.28    6.50
   5   0   0  197.58    6.50
  -6   0   0   36.80    2.30
  -6   0   0   35.50    2.90
  -6   0   0   32.40    1.70
  -6   0   0   33.30    2.70
  -6   0   0   37.60    1.80
   6   0   0   34.70    2.40
   6   0   0   33.30    1.60
   6   0   0   33.40    2.20
  -7   0   0    1.40    0.70
  -7   0   0    1.50    0.50
  -7   0   0    2.30    1.60
  -7   0   0    1.20    1.20
   7   0   0    2.90    1.20
   7   0   0    1.20    1.10
   7   0   0   -0.20    1.40
  -8   0   0    2.10    1.50
  -8   0   0    2.30    1.90
   8   0   0    3.50    1.70
   8   0   0    3.00    1.30
   8   0   0    1.70    1.40
  -9   0   0    5.70    2.30
  -9   0   0    3.70    1.70
   9   0   0    6.50    1.60
   9   0   0    6.40    2.30
   9   0   0    4.60    1.70
 -10   0   0   25.20    3.50
 -10   0   0   29.70    3.00
  10   0   0   36.70    4.00
 -11   0   0  119.89    5.80
 -11   0   0  100.59    6.90
  11   0   0  114.89    7.00
  11  -1   0   48.30    5.00
 -11   1   0   56.19    4.10
 -11   1   0   42.30    4.70
  10  -1   0   41.20    4.50
 -10   1   0   40.10    4.30
 -10   1   0   37.10    3.60
   9  -1   0  310.67   13.20
   9  -1   0  326.37   12.20
  -9   1   0  327.17   12.90
  -9   1   0  337.17   12.30
   8  -1   0   95.99    5.60
   8  -1   0   91.49    4.50
   8  -1   0   89.29    4.40
  -8   1   0   82.59    5.10
  -8   1   0   94.99    4.90
   7  -1   0  130.79    5.60
   7  -1   0  137.29    5.70
   7  -1   0  131.29    6.60
  -7   1   0  138.69    5.90
  -7   1   0  147.19    5.10
  -7   1   0  129.99    6.20
  -7   1   0  134.49    4.90
   6  -1   0  266.77    9.30
   6  -1   0  259.97    9.30
   6  -1   0  249.48   10.00
   6  -1   0  257.17    8.40
  -6   1   0  270.47    9.60
  -6   1   0  269.07    8.90
  -6   1   0  247.18    9.40
  -6   1   0  248.98    8.80
  -6   1   0  256.07    8.70
  -6   1   0  245.78    9.70
   5  -1   0    8.20    1.50
   5  -1   0   12.00    1.30
   5  -1   0    8.80    0.90
   5  -1   0   11.10    1.20
  -5   1   0    9.20    1.60
  -5   1   0   11.50    1.10
  -5   1   0    9.10    1.10
  -5   1   0   12.40    1.10
  -5   1   0   11.00    1.50
  -5   1   0   11.60    1.30
   4  -1   0   30.30    1.90
   4  -1   0   39.00    2.60
   4  -1   0   34.00    1.90
   4  -1   0   34.20    2.00
   4  -1   0   33.40    1.60
  -4   1   0   35.40    2.00
  -4   1   0   36.50    1.70
  -4   1   0   34.80    1.90
  -4   1   0   32.30    2.30
  -4   1   0   34.10    1.80
  -4   1   0   33.50    2.10
   3  -1   0   57.79    2.30
   3  -1   0   61.49    2.70
   3  -1   0   53.49    3.00
   3  -1   0   58.89    2.70
   3  -1   0   57.29    2.70
   3  -1   0   56.89    2.40
   3  -1   0   61.09    2.60
   3  -1   0   57.49    2.50
  -3   1   0   55.89    2.30
  -3   1   0   61.59    2.40
  -3   1   0   56.99    2.50
  -3   1   0   57.09    2.80
  -3   1   0   55.99    2.70
  -3   1   0   60.39    2.50
   2  -1   0    8.50    0.90
   2  -1   0   11.80    1.10
   2  -1   0    9.30    1.00
   2  -1   0   11.30    0.80
   2  -1   0   12.70    1.10
   2  -1   0    9.70    0.90
   2  -1   0   11.50    1.20
  -2   1   0    9.90    0.80
  -2   1   0   10.40    1.10
  -2   1   0    9.00    0.90
  -2   1   0    9.30    1.10
  -2   1   0    7.80    0.80
  -2   1   0    9.40    0.80
  -2   1   0   10.40    0.90
   1  -1   0  330.47   10.60
   1  -1   0  329.57   10.60
   1  -1   0  323.97   10.60
   1  -1   0  303.87   10.50
   1  -1   0  320.27   10.60
   1  -1   0  326.47   10.70
  -1   1   0  330.27   10.30
  -1   1   0  322.17   10.60
  -1   1   0  320.57   10.60
  -1   1   0  316.57   10.70
  -1   1   0  326.47   10.50
  -1   1   0  325.17   10.60
  -1   1   0  318.47   10.60
   0  -1   0   65.79    2.40
   0  -1   0   58.89    2.40
   0  -1   0   67.39    2.30
   0  -1   0   63.99    2.40
   0  -1   0   66.59    2.30
   0  -1   0   65.39    2.40
   0   1   0   65.39    2.30
   0   1   0   68.99    2.40
   0   1   0   64.69    2.50
   0   1   0   63.09    2.40
   0   1   0   69.89    2.30
   0   1   0   67.69    2.40
  -1  -1   0  240.08    7.70
  -1  -1   0  231.48    7.70
  -1  -1   0  228.08    7.80
  -1  -1   0  240.08    7.80
  -1  -1   0  234.88    7.80
  -1  -1   0  227.88    7.80
  -1  -1   0  251.87    8.00
  -1  -1   0  253.57    7.90
   1   1   0  237.08    7.80
   1   1   0  232.78    7.80
   1   1   0  247.38    7.80
   1   1   0  229.68    7.80
   1   1   0  237.18    8.00
   1   1   0  237.68    7.90
   1   1   0  245.18    7.70
  -2  -1   0  703.03   22.90
  -2  -1   0  730.73   23.30
  -2  -1   0  677.73   22.90
  -2  -1   0  698.83   23.10
  -2  -1   0  706.63   22.80
  -2  -1   0  732.53   23.00
  -2  -1   0  699.53   22.90
   2   1   0  703.23   23.00
   2   1   0  670.03   22.90
   2   1   0  733.33   22.90
   2   1   0  726.43   22.90
   2   1   0  741.33   23.10
   2   1   0  720.03   23.10
   2   1   0  714.13   23.00
   2   1   0  725.23   22.80
   2   1   0  735.43   23.30
  -3  -1   0  269.37    9.20
  -3  -1   0  262.37    8.60
  -3  -1   0  276.17    9.00
  -3  -1   0  254.17    8.60
  -3  -1   0  255.87    9.00
  -3  -1   0  252.77    8.60
   3   1   0  263.27    9.00
   3   1   0  268.87    8.60
   3   1   0  260.17    8.60
   3   1   0  254.17    8.70
   3   1   0  251.67    8.80
   3   1   0  268.17    9.20
   3   1   0  248.18    8.90
   3   1   0  252.87    8.60
  -4  -1   0 1123.99   34.60
  -4  -1   0 1048.30   34.60
  -4  -1   0 1051.69   34.00
  -4  -1   0 1022.90   34.00
  -4  -1   0 1049.09   34.80
  -4  -1   0 1071.09   34.10
   4   1   0 1001.10   34.20
   4   1   0 1045.10   34.20
   4   1   0 1076.69   34.20
   4   1   0 1075.69   34.00
   4   1   0 1064.09   34.60
   4   1   0 1074.49   34.00
   4   1   0 1113.99   34.60
   4   1   0 1081.49   34.70
   4   1   0 1026.50   34.40
  -5  -1   0  290.07   10.60
  -5  -1   0  291.47   10.50
  -5  -1   0  296.47    9.80
  -5  -1   0  287.57   10.80
  -5  -1   0  316.07    9.90
  -5  -1   0  306.37   10.10
   5   1   0  301.37    9.70
   5   1   0  294.57   10.10
   5   1   0  296.27   10.70
   5   1   0  296.67    9.80
   5   1   0  286.47   10.10
   5   1   0  291.97   10.20
  -6  -1   0   42.70    1.90
  -6  -1   0   34.10    2.60
  -6  -1   0   41.00    2.20
  -6  -1   0   40.90    1.80
  -6  -1   0   34.30    2.80
   6   1   0   39.00    2.20
   6   1   0   37.80    1.50
   6   1   0   37.80    1.80
   6   1   0   44.60    3.00
  -7  -1   0    0.90    1.60
  -7  -1   0    1.00    1.40
  -7  -1   0    1.00    0.60
  -7  -1   0    1.40    1.10
  -7  -1   0    1.80    0.50
   7   1   0    1.00    0.60
   7   1   0    0.10    1.30
   7   1   0    1.00    1.00
  -8  -1   0  120.49    5.90
  -8  -1   0  128.99    5.30
  -8  -1   0  116.79    5.90
   8   1   0  125.29    5.20
   8   1   0  122.79    5.90
  -9  -1   0   -0.40    1.80
  -9  -1   0    0.90    1.40
   9   1   0    1.20    1.60
   9   1   0    0.80    1.20
 -10  -1   0    0.70    2.10
 -10  -1   0    2.00    1.40
  10   1   0   -1.60    1.50
  10   1   0   -1.00    1.70
  10   1   0   -1.20    1.60
 -11  -1   0    2.20    1.70
 -11  -1   0   -0.70    2.30
  11   1   0    1.60    2.30
  10  -2   0    3.60    2.60
 -10   2   0    4.70    2.90
 -10   2   0    3.30    2.30
   9  -2   0    4.40    2.40
   9  -2   0    7.60    1.90
  -9   2   0   11.30    2.40
  -9   2   0    8.40    2.70
   8  -2   0  164.28    8.00
   8  -2   0  164.78    7.00
  -8   2   0  155.68    7.50
  -8   2   0  167.58    7.30
   7  -2   0  180.08    7.20
   7  -2   0  170.58    8.00
   7  -2   0  181.28    6.70
  -7   2   0  168.78    7.70
  -7   2   0  174.28    6.30
  -7   2   0  168.28    7.40
  -7   2   0  193.38    6.60
   6  -2   0  322.37   13.00
   6  -2   0  341.47   12.30
   6  -2   0  359.86   11.80
   6  -2   0  341.67   11.60
   6  -2   0  348.77   12.00
  -6   2   0  332.17   11.70
  -6   2   0  345.57   12.50
  -6   2   0  334.67   12.70
  -6   2   0  359.46   11.70
  -6   2   0  366.16   11.90
   5  -2   0   10.90    1.50
   5  -2   0   12.90    2.00
   5  -2   0   10.70    1.10
   5  -2   0   13.10    1.30
  -5   2   0   12.30    1.90
  -5   2   0   14.80    1.30
  -5   2   0   11.50    1.40
  -5   2   0   13.90    1.30
  -5   2   0   13.80    1.30
  -5   2   0   11.60    1.70
   4  -2   0    9.50    1.50
   4  -2   0   11.80    1.30
   4  -2   0   13.20    1.00
   4  -2   0   11.10    1.30
  -4   2   0    9.00    1.50
  -4   2   0   11.00    1.10
  -4   2   0   12.00    1.30
  -4   2   0    9.20    1.50
  -4   2   0   11.00    1.10
  -4   2   0   12.60    1.10
   3  -2   0    4.70    1.00
   3  -2   0    3.20    1.20
   3  -2   0    4.30    0.90
   3  -2   0    4.10    0.90
   3  -2   0    3.70    0.50
   3  -2   0    3.00    0.90
  -3   2   0    4.30    1.20
  -3   2   0    3.50    1.00
  -3   2   0    2.90    0.80
  -3   2   0    2.90    1.10
  -3   2   0    4.30    0.60
  -3   2   0    2.80    0.80
  -3   2   0    2.70    0.80
   2  -2   0    1.70    0.80
   2  -2   0    2.10    0.70
   2  -2   0    2.00    0.90
   2  -2   0    2.50    1.00
   2  -2   0    2.20    0.80
   2  -2   0    1.00    0.70
  -2   2   0    1.90    0.90
  -2   2   0    2.40    0.70
  -2   2   0    2.80    0.80
  -2   2   0    2.20    0.80
  -2   2   0    3.30    0.40
  -2   2   0    2.30    1.00
  -2   2   0    2.50    0.90
  -2   2   0    1.80    0.90
   1  -2   0  159.98    5.30
   1  -2   0  145.19    5.30
   1  -2   0  149.69    5.20
   1  -2   0  146.09    5.30
   1  -2   0  158.38    5.50
   1  -2   0  155.58    5.50
  -1   2   0  148.39    5.50
  -1   2   0  140.59    5.40
  -1   2   0  140.89    5.30
  -1   2   0  147.49    5.30
  -1   2   0  145.39    5.20
  -1   2   0  147.49    5.30
   0  -2   0  246.38    8.00
   0  -2   0  237.68    8.40
   0  -2   0  246.58    8.10
   0  -2   0  243.48    8.30
   0  -2   0  241.98    8.20
   0  -2   0  244.68    8.10
   0  -2   0  249.97    8.20
   0  -2   0  241.68    7.90
   0   2   0  242.48    8.40
   0   2   0  232.98    8.20
   0   2   0  244.58    8.20
   0   2   0  232.18    8.20
   0   2   0  230.18    8.00
  -1  -2   0   -0.40    0.60
  -1  -2   0   -0.10    0.70
  -1  -2   0   -0.90    0.60
  -1  -2   0   -0.70    0.70
  -1  -2   0   -0.90    0.40
  -1  -2   0   -0.40    0.60
  -1  -2   0    0.30    0.80
   1   2   0   -1.50    0.70
   1   2   0    0.00    0.70
   1   2   0    0.10    0.80
   1   2   0   -0.70    0.60
   1   2   0   -1.10    0.40
   1   2   0    0.40    0.90
   1   2   0    0.30    0.50
   1   2   0   -0.50    0.60
  -2  -2   0   33.80    1.60
  -2  -2   0   35.70    1.70
  -2  -2   0   31.90    1.50
  -2  -2   0   34.00    1.80
  -2  -2   0   32.80    1.80
  -2  -2   0   35.40    1.70
  -2  -2   0   30.60    1.80
  -2  -2   0   36.70    2.00
   2   2   0   33.30    1.80
   2   2   0   36.30    1.90
   2   2   0   33.60    1.60
   2   2   0   32.60    1.70
   2   2   0   34.90    2.20
   2   2   0   32.80    1.60
   2   2   0   33.90    1.20
   2   2   0   35.60    1.70
  -3  -2   0 1371.36   43.50
  -3  -2   0 1356.96   43.10
  -3  -2   0 1297.77   43.30
  -3  -2   0 1261.67   43.10
  -3  -2   0 1378.96   43.80
  -3  -2   0 1349.77   43.30
  -3  -2   0 1353.16   42.90
  -3  -2   0 1309.57   43.40
   3   2   0 1345.97   43.20
   3   2   0 1343.47   43.20
   3   2   0 1374.96   43.40
   3   2   0 1266.17   43.30
   3   2   0 1394.46   42.90
   3   2   0 1349.66   43.20
   3   2   0 1363.06   43.50
   3   2   0 1436.86   43.30
   3   2   0 1353.66   43.80
  -4  -2   0  101.59    4.30
  -4  -2   0  116.19    4.20
  -4  -2   0  115.59    4.10
  -4  -2   0  117.59    5.10
  -4  -2   0  125.19    4.80
  -4  -2   0  109.49    4.50
  -4  -2   0  113.79    4.20
   4   2   0  115.49    4.50
   4   2   0  124.69    4.40
   4   2   0  120.39    4.50
   4   2   0  120.59    4.80
   4   2   0  119.49    4.10
   4   2   0  118.09    5.10
   4   2   0  121.89    4.40
   4   2   0  120.39    4.70
   4   2   0  113.29    4.40
  -5  -2   0  158.48    5.60
  -5  -2   0  162.08    5.70
  -5  -2   0  164.48    6.30
  -5  -2   0  155.48    6.30
  -5  -2   0  160.18    5.60
   5   2   0  161.28    5.70
   5   2   0  161.18    6.60
   5   2   0  164.48    5.90
   5   2   0  172.58    5.90
   5   2   0  162.98    5.90
   5   2   0  160.18    5.80
  -6  -2   0  527.55   17.10
  -6  -2   0  541.55   16.90
  -6  -2   0  504.65   17.90
  -6  -2   0  521.85   16.90
  -6  -2   0  489.85   17.70
   6   2   0  524.75   17.40
   6   2   0  518.95   18.20
   6   2   0  517.95   17.10
   6   2   0  522.25   17.10
  -7  -2   0    0.80    0.90
  -7  -2   0    2.30    0.60
  -7  -2   0    1.50    1.60
  -7  -2   0    2.10    0.50
  -7  -2   0    2.00    1.40
   7   2   0    2.30    0.70
   7   2   0    4.00    1.60
   7   2   0    2.10    0.60
   7   2   0    2.90    1.00
  -8  -2   0   78.79    4.60
  -8  -2   0   82.09    3.70
  -8  -2   0   73.29    4.40
   8   2   0   84.09    3.90
   8   2   0   85.49    5.00
  -9  -2   0  359.36   13.70
  -9  -2   0  372.16   13.90
  -9  -2   0  375.46   12.70
   9   2   0  361.96   13.00
   9   2   0  342.37   13.80
 -10  -2   0    0.20    2.20
 -10  -2   0   -0.80    1.20
 -10  -2   0    0.90    1.90
  10   2   0   -0.20    1.90
  10   2   0    1.30    1.30
 -11  -2   0   18.60    3.20
  11   2   0   17.50    3.10
 -12  -2   0    0.30    2.80
  12   2   0    1.60    2.20
  10  -3   0    8.30    3.10
 -10   3   0   12.50    3.40
 -10   3   0    8.50    2.60
   9  -3   0   33.50    3.30
   9  -3   0   34.00    4.00
  -9   3   0   39.30    3.80
  -9   3   0   32.30    3.90
   8  -3   0  139.69    7.30
   8  -3   0  141.29    6.50
  -8   3   0  136.19    7.00
  -8   3   0  142.69    6.80
   7  -3   0    2.80    1.90
   7  -3   0    1.50    1.40
  -7   3   0    4.20    2.00
  -7   3   0    2.30    1.10
  -7   3   0    2.60    0.90
  -7   3   0    1.80    1.80
   6  -3   0  203.18    7.80
   6  -3   0  199.78    8.50
  -6   3   0  185.08    8.00
  -6   3   0  183.48    7.90
  -6   3   0  197.48    7.10
  -6   3   0  192.98    7.30
   5  -3   0  104.99    4.50
   5  -3   0  106.99    5.30
   5  -3   0  110.79    4.90
   5  -3   0  107.29    4.00
  -5   3   0  109.49    5.10
  -5   3   0  112.99    4.70
  -5   3   0  108.29    4.30
  -5   3   0  107.89    4.30
  -5   3   0  102.69    4.90
   4  -3   0   34.60    2.70
   4  -3   0   37.50    1.50
   4  -3   0   34.00    2.30
   4  -3   0   38.90    2.50
   4  -3   0   36.40    1.50
  -4   3   0   34.10    2.50
  -4   3   0   32.70    2.00
  -4   3   0   35.10    2.10
  -4   3   0   37.70    2.40
  -4   3   0   33.10    2.50
   3  -3   0 1020.40   34.00
   3  -3   0 1030.00   34.00
   3  -3   0 1017.70   34.30
  -3   3   0 1077.79   34.00
  -3   3   0 1048.50   33.80
  -3   3   0 1045.00   33.80
  -3   3   0 1054.29   34.00
  -3   3   0  992.50   34.00
  -3   3   0 1082.29   34.10
   2  -3   0   81.79    3.80
   2  -3   0   86.59    4.00
   2  -3   0   87.39    3.80
   2  -3   0   86.89    3.60
  -2   3   0   83.89    3.70
  -2   3   0   86.49    3.80
  -2   3   0   88.39    3.90
  -2   3   0   88.79    3.80
  -2   3   0   88.09    2.90
  -2   3   0   85.49    3.60
  -2   3   0   89.29    3.70
  -2   3   0   91.39    2.90
   1  -3   0  472.95   17.40
   1  -3   0  543.75   17.20
   1  -3   0  496.35   17.40
   1  -3   0  507.55   17.30
   1  -3   0  527.75   17.30
   1  -3   0  530.65   17.10
  -1   3   0  543.55   17.60
  -1   3   0  541.95   17.10
  -1   3   0  524.55   17.30
  -1   3   0  501.85   17.20
  -1   3   0  542.35   16.90
  -1   3   0  525.35   17.40
  -1   3   0  509.05   17.20
   0  -3   0  430.86   13.90
   0  -3   0  422.06   14.10
   0  -3   0  406.56   14.30
   0  -3   0  400.36   14.10
   0  -3   0  421.26   13.80
   0  -3   0  430.96   14.00
   0  -3   0  410.96   14.10
   0   3   0  440.76   14.00
   0   3   0  428.46   14.40
   0   3   0  405.26   14.10
   0   3   0  433.46   13.80
   0   3   0  410.06   14.10
   0   3   0  430.76   14.10
   0   3   0  422.56   13.90
  -1  -3   0   17.70    1.60
  -1  -3   0   13.20    1.40
  -1  -3   0   12.20    1.30
  -1  -3   0   14.20    1.50
  -1  -3   0   13.00    1.10
  -1  -3   0   15.40    1.60
  -1  -3   0   16.40    1.40
   1   3   0   16.70    1.60
   1   3   0   15.90    1.90
   1   3   0   13.40    1.20
   1   3   0   14.90    1.50
   1   3   0   14.40    1.70
   1   3   0   14.70    1.40
   1   3   0   14.40    1.10
   1   3   0   16.00    1.20
  -2  -3   0  183.48    6.50
  -2  -3   0  172.28    6.50
  -2  -3   0  178.98    6.50
  -2  -3   0  183.08    6.20
  -2  -3   0  176.98    6.50
  -2  -3   0  180.98    6.40
  -2  -3   0  184.18    6.90
   2   3   0  182.78    6.90
   2   3   0  178.58    6.80
   2   3   0  180.28    6.50
   2   3   0  198.78    6.30
   2   3   0  174.68    6.50
   2   3   0  192.58    6.00
   2   3   0  197.58    6.50
   2   3   0  181.98    6.50
  -3  -3   0  514.25   17.90
  -3  -3   0  551.74   17.50
  -3  -3   0  522.65   17.60
  -3  -3   0  550.24   17.60
  -3  -3   0  555.24   18.30
  -3  -3   0  534.85   17.80
  -3  -3   0  507.45   17.50
  -3  -3   0  540.45   17.90
   3   3   0  549.74   17.70
   3   3   0  539.65   17.80
   3   3   0  526.55   17.80
   3   3   0  551.94   18.30
   3   3   0  551.94   18.00
   3   3   0  521.65   17.50
   3   3   0  512.35   17.80
   3   3   0  557.04   17.70
  -4  -3   0   11.80    1.10
  -4  -3   0    8.60    1.20
  -4  -3   0    9.70    1.40
  -4  -3   0    9.80    1.20
  -4  -3   0    7.90    1.30
  -4  -3   0   10.60    1.00
   4   3   0    9.30    1.20
   4   3   0   12.80    1.20
   4   3   0   10.20    0.70
   4   3   0    9.40    1.10
   4   3   0   10.50    1.40
   4   3   0   10.40    1.70
   4   3   0    8.20    1.30
  -5  -3   0  389.86   12.60
  -5  -3   0  385.66   12.90
  -5  -3   0  387.66   12.90
  -5  -3   0  358.96   13.20
  -5  -3   0  372.36   13.20
  -5  -3   0  392.86   13.60
   5   3   0  406.66   13.20
   5   3   0  390.26   14.10
   5   3   0  415.56   13.40
  -6  -3   0  107.09    4.70
  -6  -3   0  108.19    5.00
  -6  -3   0  111.09    4.00
  -6  -3   0  108.79    4.10
  -6  -3   0  110.89    4.50
  -6  -3   0  109.69    4.10
   6   3   0  103.89    5.40
   6   3   0  116.59    4.60
   6   3   0  108.99    4.50
  -7  -3   0    0.90    0.70
  -7  -3   0    0.30    1.30
  -7  -3   0    0.90    1.50
  -7  -3   0    2.50    0.60
  -7  -3   0    1.10    0.60
   7   3   0    4.20    1.90
   7   3   0    2.30    0.90
   7   3   0    1.80    1.00
   7   3   0    2.70    1.00
  -8  -3   0  380.16   14.00
  -8  -3   0  373.56   14.20
  -8  -3   0  387.26   12.40
  -8  -3   0  395.56   13.00
   8   3   0  364.76   13.40
   8   3   0  402.86   14.80
   8   3   0  380.66   12.90
  -9  -3   0   -1.60    1.90
  -9  -3   0    0.70    1.80
  -9  -3   0    0.20    0.90
   9   3   0   -0.30    1.20
   9   3   0    1.10    2.20
 -10  -3   0   32.60    2.30
 -10  -3   0   28.00    3.30
 -10  -3   0   28.10    3.30
  10   3   0   34.00    2.80
  10   3   0   36.60    4.00
 -11  -3   0  102.19    6.30
 -11  -3   0  114.09    6.60
  11   3   0   91.69    6.40
 -12  -3   0    0.70    2.50
  12   3   0   -3.20    2.60
   9  -4   0    3.10    2.40
   9  -4   0    3.00    2.00
  -9   4   0    5.00    2.40
  -9   4   0    3.30    2.70
   8  -4   0   10.00    2.20
   8  -4   0   10.70    2.70
  -8   4   0   10.30    2.60
  -8   4   0   10.60    2.80
   7  -4   0    8.90    1.90
   7  -4   0    9.30    2.30
  -7   4   0   10.90    2.40
  -7   4   0   11.60    2.60
  -7   4   0   11.80    1.60
   6  -4   0  151.88    7.20
   6  -4   0  151.88    6.50
  -6   4   0  148.89    6.10
  -6   4   0  137.19    6.70
  -6   4   0  148.09    5.80
  -6   4   0  141.29    6.70
   5  -4   0    0.20    1.50
   5  -4   0    0.60    1.20
  -5   4   0    1.20    1.60
  -5   4   0   -0.80    1.50
  -5   4   0   -0.20    1.00
  -5   4   0    0.30    1.20
   4  -4   0  139.69    5.90
   4  -4   0  141.19    6.40
  -4   4   0  145.59    5.80
  -4   4   0  139.29    6.00
  -4   4   0  136.19    6.00
  -4   4   0  136.29    5.60
   3  -4   0  312.07   10.90
   3  -4   0  290.57   11.20
  -3   4   0  311.77   10.80
  -3   4   0  307.17   11.00
  -3   4   0  304.57   10.80
  -3   4   0  295.87   10.90
  -3   4   0  300.97   10.80
   2  -4   0   15.40    1.80
   2  -4   0   19.40    1.80
   2  -4   0   18.80    1.80
  -2   4   0   14.50    1.70
  -2   4   0   17.90    1.80
  -2   4   0   19.70    0.90
  -2   4   0   18.20    0.80
  -2   4   0   17.10    1.90
  -2   4   0   16.40    1.70
  -2   4   0   18.50    1.70
   1  -4   0 1173.58   38.50
   1  -4   0 1201.18   38.00
   1  -4   0 1187.18   38.30
   1  -4   0 1161.28   38.60
  -1   4   0 1231.98   37.80
  -1   4   0 1135.19   38.30
  -1   4   0 1142.69   38.20
  -1   4   0 1157.38   38.60
  -1   4   0 1180.38   37.50
  -1   4   0 1185.18   38.20
   0  -4   0  399.46   13.40
   0  -4   0  379.56   14.10
   0  -4   0  422.26   13.80
   0  -4   0  400.46   13.80
   0  -4   0  396.36   13.60
   0  -4   0  430.76   14.00
   0   4   0  424.86   13.70
   0   4   0  396.66   13.60
   0   4   0  406.76   14.30
   0   4   0  378.66   13.70
   0   4   0  407.26   13.40
   0   4   0  424.96   14.30
   0   4   0  413.26   13.90
  -1  -4   0  103.39    3.90
  -1  -4   0  102.89    4.60
  -1  -4   0  107.39    4.20
  -1  -4   0  103.09    4.30
  -1  -4   0  101.29    4.30
  -1  -4   0  104.39    4.50
   1   4   0  106.49    4.00
   1   4   0  107.59    4.30
   1   4   0  108.39    4.40
   1   4   0  102.89    4.40
   1   4   0  111.39    4.00
   1   4   0  106.89    4.40
   1   4   0  102.09    4.20
   1   4   0  110.09    4.90
  -2  -4   0  700.13   24.30
  -2  -4   0  781.32   24.00
  -2  -4   0  716.53   23.90
  -2  -4   0  703.43   23.50
  -2  -4   0  720.23   23.90
  -2  -4   0  725.33   24.00
  -2  -4   0  753.72   23.90
  -2  -4   0  741.53   24.30
   2   4   0  734.83   23.80
   2   4   0  708.43   24.40
   2   4   0  703.53   23.90
   2   4   0  692.03   23.90
   2   4   0  700.23   23.50
   2   4   0  747.43   24.30
   2   4   0  744.53   23.90
   2   4   0  760.42   23.40
  -3  -4   0  397.76   13.60
  -3  -4   0  380.76   14.00
  -3  -4   0  380.86   13.60
  -3  -4   0  391.36   13.80
  -3  -4   0  389.96   13.30
  -3  -4   0  386.46   13.70
  -3  -4   0  413.56   14.40
  -3  -4   0  390.76   13.30
   3   4   0  419.96   13.00
   3   4   0  411.16   14.20
   3   4   0  438.56   14.00
   3   4   0  425.26   13.40
   3   4   0  402.96   14.30
   3   4   0  416.46   13.70
   3   4   0  402.86   13.70
  -4  -4   0   27.40    1.80
  -4  -4   0   27.60    1.90
  -4  -4   0   31.20    2.30
  -4  -4   0   27.70    2.30
  -4  -4   0   29.20    1.70
  -4  -4   0   25.60    2.10
  -4  -4   0   30.30    1.80
   4   4   0   29.60    2.70
   4   4   0   29.10    1.90
   4   4   0   27.30    1.80
   4   4   0   30.70    2.40
  -5  -4   0   47.10    2.50
  -5  -4   0   45.00    2.20
  -5  -4   0   42.40    2.30
  -5  -4   0   40.10    2.70
  -5  -4   0   40.70    2.70
  -5  -4   0   43.00    2.60
   5   4   0   41.40    2.90
   5   4   0   41.40    3.30
   5   4   0   45.80    2.50
  -6  -4   0  284.87   10.40
  -6  -4   0  283.87    9.90
  -6  -4   0  297.37   10.00
  -6  -4   0  269.37   10.30
  -6  -4   0  290.37   10.80
   6   4   0  298.37   10.30
   6   4   0  305.47   10.60
   6   4   0  290.77   11.40
  -7  -4   0  143.29    5.30
  -7  -4   0  137.09    5.80
  -7  -4   0  147.19    5.00
  -7  -4   0  150.48    6.20
  -7  -4   0  143.59    6.40
  -7  -4   0  147.99    5.30
   7   4   0  146.69    7.00
   7   4   0  143.09    6.00
   7   4   0  144.89    5.80
  -8  -4   0    0.80    0.70
  -8  -4   0    0.40    0.60
  -8  -4   0    0.00    0.60
  -8  -4   0    1.70    1.70
  -8  -4   0    0.50    1.60
   8   4   0    1.80    1.30
   8   4   0    0.40    1.90
   8   4   0   -0.20    1.10
  -9  -4   0   89.89    3.50
  -9  -4   0   82.49    4.80
  -9  -4   0   76.09    4.90
   9   4   0   86.39    4.40
   9   4   0   89.49    6.00
 -10  -4   0   -0.80    2.00
 -10  -4   0    1.60    2.10
  10   4   0    0.80    2.60
  10   4   0    1.60    1.40
 -11  -4   0    9.10    2.60
 -11  -4   0    3.70    2.20
  11   4   0    1.60    2.70
 -12  -4   0   66.19    5.50
 -12  -4   0   64.59    5.30
  12   4   0   65.99    5.60
   8  -5   0    6.80    2.30
   8  -5   0    8.00    2.80
  -8   5   0   11.00    2.90
  -8   5   0    7.60    2.70
   7  -5   0   79.49    4.70
   7  -5   0   75.49    5.40
  -7   5   0   77.29    4.00
  -7   5   0   76.49    5.10
  -7   5   0   77.29    5.00
   6  -5   0    6.40    1.90
   6  -5   0    3.70    2.10
  -6   5   0    6.20    1.60
  -6   5   0    6.70    1.40
  -6   5   0   10.70    2.40
  -6   5   0    3.50    2.10
   5  -5   0   28.90    2.80
   5  -5   0   26.10    3.00
  -5   5   0   24.00    2.40
  -5   5   0   29.40    2.50
  -5   5   0   28.10    3.00
  -5   5   0   30.50    3.10
   4  -5   0   29.90    2.80
   4  -5   0   37.30    3.40
  -4   5   0   28.60    2.80
  -4   5   0   32.70    2.90
  -4   5   0   32.70    2.90
  -4   5   0   33.80    2.80
  -4   5   0   32.30    2.70
   3  -5   0  229.58    9.40
   3  -5   0  243.18    9.20
  -3   5   0  250.97    9.40
  -3   5   0  259.27    9.10
  -3   5   0  229.98    9.10
  -3   5   0  239.38    9.10
  -3   5   0  234.58    9.10
   2  -5   0  158.68    6.70
   2  -5   0  150.68    6.50
  -2   5   0  165.68    6.90
  -2   5   0  165.68    5.30
  -2   5   0  157.48    6.40
  -2   5   0  158.88    6.50
  -2   5   0  154.18    6.50
  -2   5   0  156.48    5.30
   1  -5   0    8.70    1.50
   1  -5   0    5.10    1.30
   1  -5   0   10.90    1.20
   1  -5   0    9.30    1.40
  -1   5   0   10.00    1.60
  -1   5   0    9.60    1.00
  -1   5   0    9.10    1.80
  -1   5   0   10.00    0.70
  -1   5   0    9.10    1.50
   0  -5   0  828.92   26.40
   0  -5   0  735.53   26.40
   0  -5   0  790.02   26.60
   0  -5   0  795.32   25.90
   0  -5   0  849.12   26.20
   0   5   0  747.43   26.50
   0   5   0  793.52   25.90
   0   5   0  839.12   26.20
   0   5   0  817.32   26.30
   0   5   0  782.42   26.90
  -1  -5   0  177.48    6.40
  -1  -5   0  168.68    7.00
  -1  -5   0  176.68    6.70
  -1  -5   0  174.78    6.80
  -1  -5   0  178.18    6.30
   1   5   0  174.48    6.90
   1   5   0  196.58    6.60
   1   5   0  185.48    7.50
   1   5   0  188.18    7.00
   1   5   0  183.58    6.60
  -2  -5   0  104.89    4.60
  -2  -5   0  107.29    4.70
  -2  -5   0  109.79    4.50
  -2  -5   0  116.19    4.20
   2   5   0  101.99    4.60
   2   5   0  115.09    5.00
   2   5   0  111.79    4.10
   2   5   0  106.99    4.20
   2   5   0  114.09    4.50
   2   5   0  109.49    5.20
  -3  -5   0  392.66   13.70
  -3  -5   0  411.76   13.10
  -3  -5   0  387.36   13.60
  -3  -5   0  364.96   13.40
  -3  -5   0  402.26   13.60
   3   5   0  400.06   12.80
   3   5   0  389.86   13.60
   3   5   0  381.06   14.10
   3   5   0  400.96   14.20
   3   5   0  398.66   13.10
  -4  -5   0    0.60    0.80
  -4  -5   0    0.90    1.10
  -4  -5   0    1.60    0.90
  -4  -5   0    0.40    0.70
  -4  -5   0    0.10    0.90
  -4  -5   0    0.50    1.00
   4   5   0    1.70    1.60
   4   5   0    2.00    1.50
   4   5   0    0.60    0.70
   4   5   0    1.80    1.10
  -5  -5   0   87.79    4.20
  -5  -5   0   82.59    3.70
  -5  -5   0   78.79    4.10
  -5  -5   0   82.19    3.60
  -5  -5   0   89.49    3.70
   5   5   0   87.29    4.00
   5   5   0   87.59    4.60
   5   5   0   80.09    4.80
  -6  -5   0  268.27   10.20
  -6  -5   0  275.17   10.20
  -6  -5   0  269.47    9.50
  -6  -5   0  274.77    9.60
  -6  -5   0  261.07    9.80
   6   5   0  276.17   10.40
   6   5   0  253.77   10.90
   6   5   0  285.67    9.90
  -7  -5   0  221.38    9.20
  -7  -5   0  231.88    8.20
  -7  -5   0  233.28    8.20
  -7  -5   0  223.18    8.70
   7   5   0  225.18   10.10
   7   5   0  233.88    9.00
   7   5   0  239.68    8.70
  -8  -5   0    2.40    1.50
  -8  -5   0    1.20    0.80
  -8  -5   0    0.30    1.60
   8   5   0    1.40    1.40
   8   5   0    2.40    1.50
   8   5   0    0.00    2.20
  -9  -5   0   10.40    2.30
  -9  -5   0    9.60    2.10
   9   5   0    6.90    1.70
   9   5   0    5.40    1.70
   9   5   0    7.50    2.90
 -10  -5   0    3.10    2.00
 -10  -5   0    0.70    1.80
  10   5   0    0.30    2.60
  10   5   0    0.00    1.40
 -11  -5   0   40.30    4.00
 -11  -5   0   40.40    4.30
  11   5   0   36.70    4.60
 -12  -5   0   26.50    3.60
 -12  -5   0   22.00    3.40
  12   5   0   22.40    4.10
   8  -6   0   49.90    4.50
   8  -6   0   56.39    5.50
  -8   6   0   60.39    4.90
  -8   6   0   47.20    4.70
   7  -6   0    4.00    2.50
   7  -6   0    6.30    2.20
  -7   6   0    3.90    2.50
  -7   6   0    5.20    2.80
   6  -6   0  165.28    7.60
   6  -6   0  142.49    8.00
  -6   6   0  164.38    6.80
  -6   6   0  163.88    7.60
  -6   6   0  147.89    7.40
   5  -6   0   33.80    3.60
   5  -6   0   42.70    3.60
  -5   6   0   38.70    3.20
  -5   6   0   41.10    3.10
  -5   6   0   33.60    3.40
  -5   6   0   37.80    3.60
   4  -6   0  126.49    6.20
   4  -6   0  128.39    6.60
  -4   6   0  124.29    6.20
  -4   6   0  125.49    5.90
  -4   6   0  129.19    6.10
  -4   6   0  130.99    6.00
  -4   6   0  134.19    5.90
   3  -6   0   10.90    2.30
   3  -6   0   11.30    2.00
  -3   6   0   10.00    2.10
  -3   6   0   11.60    2.20
  -3   6   0    8.90    1.80
  -3   6   0    7.20    1.90
   2  -6   0   34.40    2.80
   2  -6   0   32.60    2.60
   2  -6   0   34.30    3.10
  -2   6   0   32.80    1.30
  -2   6   0   36.60    3.00
  -2   6   0   35.10    3.20
  -2   6   0   31.70    3.00
  -2   6   0   30.20    2.70
  -2   6   0   31.80    1.30
   1  -6   0   31.00    2.60
   1  -6   0   33.50    2.40
   1  -6   0   30.80    2.70
   1  -6   0   30.40    2.50
  -1   6   0   29.30    2.50
  -1   6   0   31.60    2.00
  -1   6   0   33.10    2.70
  -1   6   0   30.30    3.00
   0  -6   0  287.97    9.80
   0  -6   0  263.37   10.10
   0  -6   0  271.27    9.50
   0  -6   0  280.17   10.00
   0  -6   0  260.17   10.40
   0   6   0  288.07    9.90
   0   6   0  260.57   10.20
   0   6   0  270.17   10.70
   0   6   0  292.77    9.90
   0   6   0  267.77    9.40
  -1  -6   0   69.19    3.50
  -1  -6   0   67.79    3.10
  -1  -6   0   63.69    3.50
  -1  -6   0   66.79    2.80
  -1  -6   0   67.39    3.80
   1   6   0   63.69    3.60
   1   6   0   71.09    3.20
   1   6   0   68.39    3.60
   1   6   0   70.69    4.40
   1   6   0   67.29    3.20
  -2  -6   0  754.52   24.00
  -2  -6   0  700.63   24.50
  -2  -6   0  672.83   24.60
  -2  -6   0  720.13   24.40
   2   6   0  716.03   24.60
   2   6   0  722.53   24.00
   2   6   0  747.93   25.20
   2   6   0  753.92   24.90
   2   6   0  796.82   24.00
  -3  -6   0  500.15   17.40
  -3  -6   0  501.25   16.70
  -3  -6   0  510.25   17.20
  -3  -6   0  481.85   17.40
  -3  -6   0  483.85   17.10
   3   6   0  510.65   18.00
   3   6   0  481.15   17.30
   3   6   0  520.05   16.70
   3   6   0  501.85   17.80
   3   6   0  533.75   16.50
  -4  -6   0    1.40    1.10
  -4  -6   0    0.10    0.90
  -4  -6   0    0.50    0.70
  -4  -6   0   -1.50    1.00
  -4  -6   0    0.50    0.70
   4   6   0   -1.30    1.60
   4   6   0   -1.10    1.60
   4   6   0    0.40    1.30
   4   6   0    0.40    0.80
   4   6   0    0.70    0.40
  -5  -6   0  674.03   22.40
  -5  -6   0  645.44   22.40
  -5  -6   0  666.83   21.70
  -5  -6   0  648.94   21.70
  -5  -6   0  637.94   21.90
   5   6   0  648.74   23.20
   5   6   0  679.93   22.30
   5   6   0  642.84   22.80
  -6  -6   0    1.30    1.40
  -6  -6   0    1.70    1.10
  -6  -6   0    1.30    1.40
  -6  -6   0    0.00    1.10
   6   6   0    1.50    2.00
   6   6   0    1.10    1.70
   6   6   0    1.40    1.40
  -7  -6   0  323.97   12.70
  -7  -6   0  337.27   11.80
  -7  -6   0  352.46   12.30
   7   6   0  337.37   12.80
   7   6   0  357.66   12.50
   7   6   0  327.07   13.60
  -8  -6   0   11.80    2.00
  -8  -6   0    9.30    2.20
  -8  -6   0   13.10    1.40
   8   6   0   12.20    1.80
   8   6   0    7.30    2.10
   8   6   0   10.00    2.80
  -9  -6   0   22.40    3.00
  -9  -6   0   25.10    1.70
  -9  -6   0   33.60    3.10
   9   6   0   25.00    2.70
   9   6   0   25.10    3.80
   9   6   0   28.60    2.80
 -10  -6   0    8.60    2.40
 -10  -6   0   14.60    2.70
  10   6   0   17.50    2.40
  10   6   0   11.90    3.60
 -11  -6   0    5.20    2.60
 -11  -6   0    4.40    2.30
  11   6   0    2.40    3.10
 -12  -6   0   -3.60    2.40
 -12  -6   0   -1.60    1.90
  12   6   0   -5.60    2.80
   7  -7   0    1.40    2.70
   7  -7   0   11.30    2.60
  -7   7   0    8.60    2.80
   6  -7   0  111.69    6.90
   6  -7   0  120.79    6.50
  -6   7   0  112.59    6.40
  -6   7   0  107.29    5.60
   5  -7   0   30.60    3.90
   5  -7   0   34.50    3.50
  -5   7   0   27.60    2.90
  -5   7   0   27.10    3.40
  -5   7   0   28.20    2.90
   4  -7   0   43.10    3.70
   4  -7   0   48.10    4.40
   4  -7   0   44.20    3.70
  -4   7   0   43.10    3.50
  -4   7   0   39.20    3.70
  -4   7   0   41.30    3.50
   3  -7   0   39.70    4.00
   3  -7   0   43.90    3.40
   3  -7   0   39.80    3.30
  -3   7   0   40.20    3.80
  -3   7   0   41.30    3.40
  -3   7   0   45.00    3.50
  -3   7   0   36.40    3.50
   2  -7   0    0.60    1.30
   2  -7   0    0.20    1.70
   2  -7   0    0.80    1.40
   2  -7   0    1.20    1.50
  -2   7   0    3.90    1.70
  -2   7   0    5.20    1.80
  -2   7   0    0.80    1.70
  -2   7   0    0.80    1.80
   1  -7   0   -2.40    1.20
   1  -7   0   -0.40    1.10
   1  -7   0    0.10    1.20
   1  -7   0    0.20    1.20
  -1   7   0   -0.60    0.80
  -1   7   0    0.40    1.80
  -1   7   0    0.10    1.40
  -1   7   0    0.20    1.50
   0  -7   0  181.68    6.80
   0  -7   0  172.38    7.30
   0  -7   0  175.48    7.10
   0  -7   0  154.58    7.30
   0   7   0  174.38    6.30
   0   7   0  174.58    7.90
   0   7   0  179.98    7.40
   0   7   0  182.28    6.90
   0   7   0  173.48    6.90
  -1  -7   0   51.99    2.50
  -1  -7   0   56.39    3.30
  -1  -7   0   46.30    3.40
  -1  -7   0   53.49    2.80
  -1  -7   0   54.19    3.60
   1   7   0   51.59    2.80
   1   7   0   46.10    3.60
   1   7   0   52.49    4.30
   1   7   0   53.09    3.00
   1   7   0   59.29    3.60
  -2  -7   0  598.34   21.00
  -2  -7   0  595.44   20.30
  -2  -7   0  614.74   20.90
  -2  -7   0  614.04   20.10
  -2  -7   0  613.94   21.20
   2   7   0  641.74   21.30
   2   7   0  586.44   21.10
   2   7   0  630.54   20.40
   2   7   0  619.84   21.80
  -3  -7   0   56.99    3.40
  -3  -7   0   57.69    3.50
  -3  -7   0   54.39    3.60
  -3  -7   0   52.49    3.40
  -3  -7   0   57.69    2.80
   3   7   0   57.79    2.80
   3   7   0   57.49    3.70
   3   7   0   59.69    4.00
   3   7   0   58.49    2.70
   3   7   0   53.69    4.20
  -4  -7   0   11.80    1.30
  -4  -7   0    9.60    1.70
  -4  -7   0   12.60    1.30
  -4  -7   0   10.10    1.60
  -4  -7   0   12.30    2.00
   4   7   0   13.30    1.10
   4   7   0   11.70    2.40
   4   7   0   13.10    2.00
   4   7   0   12.60    1.30
   4   7   0    8.40    2.20
  -5  -7   0   34.80    2.90
  -5  -7   0   40.80    2.30
  -5  -7   0   34.90    2.20
  -5  -7   0   33.20    2.90
  -5  -7   0   36.70    2.70
   5   7   0   29.90    3.40
   5   7   0   38.30    3.00
   5   7   0   37.30    3.70
  -6  -7   0  250.37   10.20
  -6  -7   0  276.97    9.50
  -6  -7   0  260.67    9.70
  -6  -7   0  256.07   10.20
   6   7   0  269.97   10.90
   6   7   0  244.98   11.10
   6   7   0  274.77   10.20
  -7  -7   0    1.60    1.80
  -7  -7   0    1.40    1.20
  -7  -7   0    2.30    1.30
  -7  -7   0    1.90    1.60
   7   7   0    1.20    1.90
   7   7   0    0.60    2.30
   7   7   0    2.20    1.60
  -8  -7   0    2.10    1.80
  -8  -7   0    1.80    1.40
   8   7   0   -1.20    2.30
   8   7   0    1.00    1.90
   8   7   0    2.70    1.80
  -9  -7   0  116.19    5.90
  -9  -7   0  121.89    4.90
  -9  -7   0  126.29    6.70
   9   7   0  125.29    6.00
   9   7   0  129.29    6.40
   9   7   0  111.99    7.40
 -10  -7   0    3.90    1.90
 -10  -7   0    2.00    2.30
  10   7   0    4.80    2.00
  10   7   0    0.90    2.90
 -11  -7   0    2.40    2.40
 -11  -7   0    2.20    2.00
  11   7   0   -0.20    3.10
 -12  -7   0    1.70    2.00
 -12  -7   0    0.60    2.40
  12   7   0   -1.90    3.60
   6  -8   0   44.10    4.80
   6  -8   0   41.40    4.30
   6  -8   0   43.70    4.50
  -6   8   0   43.80    4.50
   5  -8   0   99.29    6.10
   5  -8   0  103.69    6.20
   5  -8   0  102.59    7.00
  -5   8   0   95.29    6.20
  -5   8   0  105.89    5.70
  -5   8   0  127.89    8.50
   4  -8   0    8.10    2.60
   4  -8   0    5.40    2.00
   4  -8   0    3.70    1.90
  -4   8   0    4.30    2.00
  -4   8   0    6.20    2.50
  -4   8   0    2.90    2.00
   3  -8   0  250.67   10.40
   3  -8   0  249.88   10.10
   3  -8   0  249.88   10.70
   3  -8   0  245.68   10.20
  -3   8   0  250.67   10.70
  -3   8   0  229.48    9.90
  -3   8   0  239.58   10.10
  -3   8   0  255.07   10.20
   2  -8   0   78.59    4.90
   2  -8   0   82.69    5.20
   2  -8   0   81.19    4.80
   2  -8   0   77.49    4.50
  -2   8   0   90.79    5.10
  -2   8   0   90.19    5.20
  -2   8   0   83.09    5.30
  -2   8   0   82.59    4.90
   1  -8   0   57.29    4.30
   1  -8   0   54.09    3.60
   1  -8   0   54.99    4.00
   1  -8   0   56.79    3.40
  -1   8   0   51.19    3.80
  -1   8   0   55.19    3.30
  -1   8   0   58.39    3.70
  -1   8   0   54.69    4.70
  -1   8   0   55.79    4.30
   0  -8   0   37.40    3.30
   0  -8   0   35.90    3.00
   0  -8   0   35.40    3.40
   0  -8   0   37.20    2.60
   0   8   0   30.40    3.10
   0   8   0   37.10    2.70
   0   8   0   39.40    3.00
   0   8   0   31.00    3.70
  -1  -8   0  115.09    4.90
  -1  -8   0  112.99    5.60
  -1  -8   0  123.99    5.60
  -1  -8   0  109.19    5.70
   1   8   0  125.39    5.30
   1   8   0  105.99    5.70
   1   8   0  119.79    6.50
   1   8   0  118.59    5.60
  -2  -8   0  117.29    5.40
  -2  -8   0  119.29    4.80
  -2  -8   0  105.69    5.80
  -2  -8   0  121.19    5.60
  -2  -8   0  115.29    4.50
   2   8   0  116.99    4.90
   2   8   0  121.19    6.50
   2   8   0  119.79    5.90
   2   8   0  119.79    5.80
  -3  -8   0    2.90    1.00
  -3  -8   0    2.90    1.70
  -3  -8   0    0.00    1.30
  -3  -8   0    1.00    1.40
  -3  -8   0    4.40    1.50
   3   8   0    2.50    2.20
   3   8   0    2.80    1.10
   3   8   0    1.70    1.80
   3   8   0    2.30    1.70
  -4  -8   0    6.30    1.60
  -4  -8   0    6.40    1.90
  -4  -8   0    5.90    1.10
  -4  -8   0    3.60    1.60
  -4  -8   0    5.00    1.00
  -4  -8   0    4.30    1.70
   4   8   0    4.70    1.00
   4   8   0    8.80    2.50
   4   8   0    4.10    2.00
   4   8   0    4.30    2.50
  -5  -8   0  175.38    7.50
  -5  -8   0  185.28    7.40
  -5  -8   0  173.38    6.60
  -5  -8   0  170.58    7.60
  -5  -8   0  175.38    6.50
   5   8   0  170.78    8.60
   5   8   0  174.98    8.30
   5   8   0  167.78    7.70
  -6  -8   0  260.47    9.90
  -6  -8   0  276.87   10.40
  -6  -8   0  260.97   10.90
  -6  -8   0  291.17   10.90
   6   8   0  276.77   12.00
   6   8   0  291.17   11.00
   6   8   0  279.97   11.60
  -7  -8   0   17.10    2.70
  -7  -8   0   18.50    2.10
  -7  -8   0   16.40    2.70
  -7  -8   0   16.60    1.90
   7   8   0   16.50    3.30
   7   8   0   15.20    2.90
   7   8   0   13.30    2.30
  -8  -8   0  156.98    6.40
  -8  -8   0  151.88    7.40
  -8  -8   0  149.09    6.50
  -8  -8   0  155.98    7.40
   8   8   0  164.78    7.40
   8   8   0  153.38    7.80
   8   8   0  150.28    8.50
  -9  -8   0   81.49    4.70
  -9  -8   0   94.09    4.20
  -9  -8   0   84.19    5.70
   9   8   0   80.19    6.60
   9   8   0   86.39    5.70
   9   8   0   90.29    5.00
 -10  -8   0    4.30    2.50
 -10  -8   0    2.70    1.80
  10   8   0   -0.70    2.90
  10   8   0    0.30    1.90
 -11  -8   0  104.59    5.90
 -11  -8   0  110.29    6.60
  11   8   0   88.39    7.70
   4  -9   0  254.97   10.60
   4  -9   0  228.88   10.40
   4  -9   0  236.08   10.90
   4  -9   0  233.28   10.20
  -4   9   0  239.28   10.30
  -4   9   0  238.28   10.10
  -4   9   0  236.68   10.30
   3  -9   0  407.96   15.40
   3  -9   0  396.26   15.10
   3  -9   0  385.96   14.90
   3  -9   0  366.76   15.50
  -3   9   0  388.86   15.00
  -3   9   0  411.86   15.20
  -3   9   0  413.86   15.90
  -3   9   0  383.46   14.90
   2  -9   0   15.00    2.90
   2  -9   0   19.80    2.90
   2  -9   0   16.60    2.30
   2  -9   0   17.40    2.60
  -2   9   0   19.50    3.30
  -2   9   0   13.30    2.60
  -2   9   0   19.20    2.80
  -2   9   0   14.40    2.80
   1  -9   0  273.07   11.50
   1  -9   0  274.57   10.50
   1  -9   0  280.87   11.00
   1  -9   0  264.87   11.10
  -1   9   0  267.17   11.80
  -1   9   0  273.67   11.20
  -1   9   0  288.07   10.80
  -1   9   0  285.57   11.50
   0  -9   0  218.68    8.50
   0  -9   0  226.68    9.00
   0  -9   0  210.68    9.20
   0  -9   0  217.68    9.50
   0   9   0  207.38    9.30
   0   9   0  219.18    8.70
   0   9   0  204.68    9.60
   0   9   0  234.68   10.30
  -1  -9   0    0.20    1.40
  -1  -9   0   -1.90    1.40
  -1  -9   0    2.20    1.50
  -1  -9   0    0.60    1.00
   1   9   0   -0.70    2.00
   1   9   0    0.20    1.50
   1   9   0   -2.00    1.40
   1   9   0   -1.20    2.10
  -2  -9   0  139.69    6.20
  -2  -9   0  132.69    5.40
  -2  -9   0  131.39    6.30
  -2  -9   0  127.29    6.50
   2   9   0  121.19    7.10
   2   9   0  132.89    6.50
   2   9   0  132.89    5.60
   2   9   0  138.69    6.60
  -3  -9   0    1.00    1.40
  -3  -9   0    1.50    1.70
  -3  -9   0    3.70    1.90
  -3  -9   0    1.30    0.90
  -3  -9   0    2.10    1.50
   3   9   0   -1.60    2.20
   3   9   0    0.30    2.00
   3   9   0    2.40    1.30
   3   9   0    0.60    2.00
  -4  -9   0    5.30    1.80
  -4  -9   0    5.70    1.20
  -4  -9   0    6.20    2.00
  -4  -9   0    6.10    1.70
  -4  -9   0    7.60    1.10
  -4  -9   0    2.50    1.80
   4   9   0    4.70    2.30
   4   9   0    6.80    2.90
   4   9   0    7.60    2.30
   4   9   0    6.90    1.30
  -5  -9   0   27.90    3.20
  -5  -9   0   33.00    2.10
  -5  -9   0   30.40    2.10
  -5  -9   0   32.60    3.20
  -5  -9   0   31.40    2.90
   5   9   0   29.60    3.80
   5   9   0   26.90    3.80
   5   9   0   26.00    3.10
  -6  -9   0    8.30    2.10
  -6  -9   0    5.70    1.80
  -6  -9   0    7.10    1.30
  -6  -9   0    5.50    2.00
  -6  -9   0    9.70    1.40
   6   9   0    7.70    2.30
   6   9   0    7.50    2.80
   6   9   0    5.90    2.80
  -7  -9   0    2.00    2.00
  -7  -9   0    2.20    1.90
  -7  -9   0    2.40    1.20
  -7  -9   0    1.60    1.60
   7   9   0    3.30    2.00
   7   9   0   -1.50    2.50
   7   9   0   -0.30    2.70
  -8  -9   0   51.59    3.40
  -8  -9   0   46.40    4.20
  -8  -9   0   45.20    3.10
  -8  -9   0   49.10    4.10
   8   9   0   45.20    4.90
   8   9   0   41.40    4.90
   8   9   0   35.70    3.60
  -9  -9   0    3.70    2.30
  -9  -9   0    1.90    1.60
   9   9   0    2.50    2.50
   9   9   0   -0.90    3.00
   9   9   0   -1.70    2.10
 -10  -9   0   18.40    2.60
 -10  -9   0   16.10    3.10
  10   9   0   17.60    3.00
  10   9   0   18.00    4.30
 -11  -9   0   15.60    3.20
  11   9   0    3.30    3.80
   3 -10   0    5.20    2.60
   3 -10   0    6.50    2.40
   3 -10   0    7.10    3.60
   3 -10   0    3.40    2.10
  -3  10   0    6.30    2.80
  -3  10   0    8.70    2.70
  -3  10   0    7.30    2.50
  -3  10   0    6.50    2.70
   2 -10   0    0.70    2.10
   2 -10   0    0.20    1.60
   2 -10   0    2.50    2.10
   2 -10   0   -2.10    1.50
  -2  10   0    3.70    2.40
  -2  10   0    1.20    2.20
  -2  10   0    3.60    2.40
  -2  10   0    1.00    2.50
   1 -10   0  116.19    6.80
   1 -10   0  131.69    6.40
   1 -10   0  124.19    6.00
   1 -10   0  119.19    6.70
  -1  10   0  120.19    7.30
  -1  10   0  133.09    7.20
  -1  10   0  131.49    6.90
  -1  10   0  129.89    6.30
   0 -10   0  105.49    5.60
   0 -10   0  106.59    5.10
   0 -10   0  105.49    6.30
   0 -10   0   94.09    5.70
   0  10   0  111.39    6.60
   0  10   0   98.29    6.10
   0  10   0  109.59    5.60
   0  10   0  108.19    6.80
  -1 -10   0   32.40    3.50
  -1 -10   0   30.50    3.00
  -1 -10   0   22.50    3.10
  -1 -10   0   31.60    2.50
   1  10   0   36.40    3.10
   1  10   0   28.20    3.90
   1  10   0   34.50    3.60
  -2 -10   0   78.39    5.00
  -2 -10   0   79.89    4.00
  -2 -10   0   73.69    4.50
  -2 -10   0   78.49    5.30
   2  10   0   69.19    5.60
   2  10   0   81.19    5.40
   2  10   0   80.79    4.20
   2  10   0   73.59    4.80
  -3 -10   0  288.07   12.20
  -3 -10   0  299.07   12.10
  -3 -10   0  297.47   11.60
  -3 -10   0  305.77   12.00
   3  10   0  304.97   10.90
   3  10   0  299.27   12.20
   3  10   0  298.57   12.90
   3  10   0  294.17   12.10
  -4 -10   0    0.30    1.80
  -4 -10   0   -0.80    1.60
  -4 -10   0    1.00    1.80
  -4 -10   0    2.70    1.60
   4  10   0    1.50    2.10
   4  10   0    2.50    2.80
   4  10   0    3.10    2.50
  -5 -10   0   -0.90    1.70
  -5 -10   0   -1.40    1.60
  -5 -10   0    0.10    1.60
   5  10   0   -0.60    2.10
   5  10   0    2.80    2.70
   5  10   0    0.50    2.30
  -6 -10   0   13.20    2.60
  -6 -10   0   12.80    2.30
  -6 -10   0   16.40    2.80
   6  10   0   12.50    3.00
   6  10   0    9.40    3.10
   6  10   0   15.70    3.60
  -7 -10   0    7.30    2.30
  -7 -10   0    3.00    2.10
  -7 -10   0    5.40    1.90
   7  10   0    7.50    2.70
   7  10   0    6.00    2.90
   7  10   0    2.90    3.00
  -8 -10   0    4.90    2.30
  -8 -10   0    1.80    2.00
  -8 -10   0    5.50    1.90
   8  10   0    7.50    3.70
   8  10   0    5.40    2.30
   8  10   0    4.10    2.80
  -9 -10   0   34.30    4.00
   9  10   0   31.90    4.90
   9  10   0   40.40    4.70
   9  10   0   29.40    3.70
 -10 -10   0    4.50    2.70
  10  10   0    3.20    3.70
  10  10   0    2.70    2.40
  10  10   0    1.40    4.80
   1 -11   0   26.80    3.70
   1 -11   0   19.70    3.20
  -1  11   0   20.70    3.80
  -1  11   0   21.00    3.80
  -1  11   0   27.80    3.50
  -1  11   0   18.40    3.20
   0 -11   0   24.30    3.40
   0 -11   0   20.70    3.10
   0  11   0   15.80    3.60
   0  11   0   22.30    3.30
   0  11   0   19.10    3.80
   0  11   0   22.60    2.90
  -1 -11   0    3.00    2.00
  -1 -11   0    5.80    2.30
  -1 -11   0    4.00    1.80
   1  11   0    3.70    2.90
   1  11   0    6.30    3.30
   1  11   0    2.10    2.40
   1  11   0    4.90    2.10
  -2 -11   0   71.79    5.30
  -2 -11   0   81.29    5.00
  -2 -11   0   87.29    5.60
  -2 -11   0   85.09    5.50
   2  11   0   86.79    6.40
   2  11   0   77.99    5.50
  -3 -11   0  346.27   13.50
  -3 -11   0  346.27   13.90
  -3 -11   0  336.67   13.60
  -3 -11   0  329.37   13.00
   3  11   0  327.47   13.50
   3  11   0  336.37   14.50
   3  11   0  335.57   13.80
  -4 -11   0    0.20    1.90
  -4 -11   0   -0.70    1.60
  -4 -11   0    2.40    2.10
  -4 -11   0    0.50    1.90
   4  11   0   -1.10    2.40
   4  11   0    1.20    3.10
   4  11   0    1.70    2.60
  -5 -11   0  265.87   11.00
  -5 -11   0  239.78   11.10
  -5 -11   0  253.47   10.80
   5  11   0  276.07   12.50
   5  11   0  258.57   11.90
   5  11   0  281.77   11.50
  -6 -11   0   52.29    4.30
  -6 -11   0   43.50    4.30
  -6 -11   0   48.60    4.60
   6  11   0   44.10    5.10
   6  11   0   57.59    5.60
   6  11   0   41.70    4.40
  -7 -11   0    1.50    2.00
  -7 -11   0    3.00    2.10
  -7 -11   0    0.40    2.00
   7  11   0    1.80    3.10
   7  11   0    2.10    2.50
   7  11   0    0.60    3.20
  -8 -11   0   75.79    5.60
  -8 -11   0   74.79    4.90
  -8 -11   0   80.89    5.50
   8  11   0   89.99    5.80
   8  11   0   78.39    6.90
   8  11   0   78.29    6.40
  -9 -11   0    6.60    2.60
   9  11   0    0.80    2.70
   9  11   0    0.90    3.50
   9  11   0    0.10    3.10
  -1 -12   0    2.10    2.30
  -1 -12   0    0.70    2.20
   1  12   0    1.70    3.40
   1  12   0    0.70    3.10
  -2 -12   0   97.39    6.40
  -2 -12   0   89.99    6.00
  -2 -12   0   88.49    5.90
   2  12   0   79.99    6.80
   2  12   0   88.29    6.00
   2  12   0   78.69    6.80
  -3 -12   0   14.30    2.90
  -3 -12   0   17.70    3.30
  -3 -12   0   18.10    3.30
   3  12   0   11.50    3.60
   3  12   0   15.80    3.30
  -4 -12   0    4.90    2.40
  -4 -12   0    3.20    2.30
  -4 -12   0   10.30    2.80
   4  12   0    3.10    3.50
   4  12   0   -0.70    3.00
   4  12   0    4.90    3.00
  -5 -12   0   22.00    3.60
  -5 -12   0   26.90    3.50
   5  12   0   21.60    3.60
   5  12   0   16.80    3.80
   5  12   0   17.50    4.20
  -6 -12   0   34.50    3.80
  -6 -12   0   38.10    4.40
   6  12   0   34.50    4.90
   6  12   0   33.20    4.20
   6  12   0   24.90    4.40
  -7 -12   0   15.80    3.40
  -7 -12   0   19.40    3.10
   7  12   0   18.10    4.10
   7  12   0   17.40    3.60
   7  12   0   10.00    4.00
   5  12  -1   -1.90    2.80
   5  12  -1    0.40    3.50
  -5 -12   1   -0.80    2.00
  -5 -12   1   -1.70    2.00
   4  12  -1   12.50    4.30
   4  12  -1   11.40    3.20
  -4 -12   1   13.80    2.80
  -4 -12   1   15.80    3.20
   3  12  -1   17.10    4.10
  -3 -12   1   20.60    3.30
  -3 -12   1   14.00    3.00
  -3 -12   1   11.70    2.70
   8  11  -1   62.79    5.80
   8  11  -1   59.89    6.70
   8  11  -1   69.99    6.30
  -8 -11   1   78.69    5.90
  -8 -11   1   79.69    5.90
   7  11  -1    1.80    3.40
   7  11  -1   12.00    3.20
   7  11  -1   17.30    4.00
  -7 -11   1   15.30    2.90
  -7 -11   1   19.70    3.30
  -7 -11   1   19.00    2.70
   6  11  -1   76.49    6.50
   6  11  -1   72.19    6.30
   6  11  -1   75.99    5.90
  -6 -11   1   67.89    4.70
  -6 -11   1   76.49    5.30
  -6 -11   1   68.69    5.60
   5  11  -1   82.49    7.10
   5  11  -1   89.59    6.30
   5  11  -1   87.49    6.80
  -5 -11   1   88.49    5.60
  -5 -11   1   83.59    5.40
  -5 -11   1   80.79    5.60
   4  11  -1   -0.70    2.60
   4  11  -1   -1.00    3.00
   4  11  -1    0.00    2.40
  -4 -11   1   -0.90    1.80
  -4 -11   1    1.20    1.90
  -4 -11   1    2.00    2.30
   3  11  -1  142.79    9.20
   3  11  -1  155.48    8.30
   3  11  -1  157.68    8.30
  -3 -11   1  173.38    8.40
  -3 -11   1  167.38    7.90
  -3 -11   1  156.68    7.80
  -3 -11   1  174.78    8.40
   2  11  -1   39.40    5.00
   2  11  -1   30.70    3.90
  -2 -11   1   39.90    4.00
  -2 -11   1   43.20    4.40
  -2 -11   1   40.40    4.00
  -2 -11   1   43.40    4.20
   1  11  -1  286.57   12.90
   1  11  -1  251.17   11.80
   1  11  -1  279.57   11.90
  -1 -11   1  280.67   12.10
  -1 -11   1  286.77   11.60
  -1 -11   1  279.17   11.80
  -1 -11   1  265.57   11.60
   0  11  -1  123.69    8.10
   0  11  -1  114.79    7.40
   0  11  -1  102.79    6.60
   0 -11   1  114.59    6.80
   0 -11   1  119.09    6.90
   0 -11   1  119.49    6.50
   9  10  -1   30.00    5.00
   9  10  -1   27.00    4.30
   9  10  -1   25.30    3.70
  -9 -10   1   25.70    3.80
  -9 -10   1   26.10    3.90
   8  10  -1    1.40    3.30
   8  10  -1    4.00    2.70
   8  10  -1    7.00    3.30
  -8 -10   1    2.90    2.30
  -8 -10   1    4.60    2.40
  -8 -10   1    6.10    1.90
   7  10  -1  136.89    7.40
   7  10  -1  135.09    8.80
   7  10  -1  136.39    8.40
  -7 -10   1  127.09    7.10
  -7 -10   1  140.99    6.40
  -7 -10   1  135.49    7.20
   6  10  -1   38.90    4.70
   6  10  -1   27.10    4.30
   6  10  -1   35.20    3.90
  -6 -10   1   38.60    3.60
  -6 -10   1   40.40    4.00
  -6 -10   1   38.00    4.00
   5  10  -1    2.30    2.80
   5  10  -1    3.30    2.60
   5  10  -1    0.90    2.90
  -5 -10   1    1.90    1.90
  -5 -10   1    4.00    2.00
  -5 -10   1    2.50    2.00
   4  10  -1   35.10    3.90
   4  10  -1   27.50    4.20
   4  10  -1   32.90    4.30
  -4 -10   1   43.30    3.70
  -4 -10   1   39.50    3.70
  -4 -10   1   33.80    3.70
   3  10  -1    4.50    2.60
   3  10  -1    9.80    3.20
   3  10  -1   11.00    2.70
  -3 -10   1   15.00    2.80
  -3 -10   1   14.30    2.50
  -3 -10   1   12.00    2.40
  -3 -10   1   12.10    2.50
   2  10  -1    6.30    3.00
   2  10  -1    5.60    1.80
   2  10  -1    4.50    2.30
   2  10  -1    5.10    2.40
  -2 -10   1    5.40    2.00
  -2 -10   1    4.60    2.10
  -2 -10   1    6.90    2.10
  -2 -10   1    8.20    2.40
   1  10  -1    6.40    2.90
   1  10  -1    8.60    2.60
   1  10  -1   15.60    2.50
  -1 -10   1   18.10    2.90
  -1 -10   1   13.10    2.60
  -1 -10   1   17.10    2.60
   0  10  -1   10.20    2.80
   0  10  -1   12.20    3.30
   0  10  -1   13.30    2.50
   0 -10   1   15.10    2.60
   0 -10   1   15.40    2.70
   0 -10   1   11.40    2.70
  -1  10  -1  176.68    8.00
  -1  10  -1  189.68    9.60
  -1  10  -1  176.98    8.90
   1 -10   1  174.28    8.70
   1 -10   1  186.88    8.40
   1 -10   1  168.58    8.50
  -2  10  -1    2.00    2.70
  -2  10  -1    2.00    2.80
  -2  10  -1    3.40    2.50
  -2  10  -1   -0.10    2.60
   2 -10   1    3.40    2.00
   2 -10   1    2.70    2.20
   2 -10   1    2.50    2.30
  -3  10  -1   46.80    5.00
  -3  10  -1   41.30    4.10
  10   9  -1   96.39    6.80
  10   9  -1   84.29    8.00
 -10  -9   1   87.89    6.20
   9   9  -1   19.40    3.20
   9   9  -1   17.00    3.60
   9   9  -1   19.60    4.30
  -9  -9   1   20.70    3.30
   8   9  -1    9.40    3.30
   8   9  -1    6.50    3.60
   8   9  -1    9.50    2.70
  -8  -9   1   13.50    2.70
  -8  -9   1   12.00    1.80
  -8  -9   1   10.80    2.60
   7   9  -1    1.30    2.10
   7   9  -1   -1.80    2.70
   7   9  -1   -2.20    2.60
  -7  -9   1    0.60    1.80
  -7  -9   1    0.80    1.80
  -7  -9   1    2.30    1.50
   6   9  -1  201.58   10.20
   6   9  -1  191.28    8.80
   6   9  -1  196.78    9.60
  -6  -9   1  188.08    8.60
  -6  -9   1  189.08    8.00
  -6  -9   1  191.48    8.70
   5   9  -1   88.39    5.40
   5   9  -1   82.79    6.00
   5   9  -1   79.99    5.90
  -5  -9   1   73.19    4.90
  -5  -9   1   82.59    5.00
  -5  -9   1   87.19    4.70
   4   9  -1   67.29    5.50
   4   9  -1   70.29    4.90
   4   9  -1   70.49    5.30
  -4  -9   1   70.19    4.30
  -4  -9   1   63.19    4.40
  -4  -9   1   67.39    4.40
   3   9  -1    0.10    2.30
   3   9  -1    3.60    2.40
   3   9  -1    4.60    2.80
   3   9  -1    5.00    1.40
  -3  -9   1    2.80    1.70
  -3  -9   1    3.20    1.80
  -3  -9   1    2.70    1.90
  -3  -9   1    4.30    1.70
   2   9  -1   97.29    4.50
   2   9  -1   92.79    5.60
   2   9  -1   89.79    5.60
   2   9  -1   88.59    6.30
  -2  -9   1   86.09    5.00
  -2  -9   1   88.39    5.10
  -2  -9   1   98.19    4.20
  -2  -9   1   82.19    5.10
  -2  -9   1   88.29    5.40
   1   9  -1   25.10    2.90
   1   9  -1   19.80    3.40
   1   9  -1   27.10    3.20
   1   9  -1   27.40    2.70
  -1  -9   1   27.70    2.90
  -1  -9   1   27.30    3.00
  -1  -9   1   22.80    2.90
  -1  -9   1   23.10    2.00
   0   9  -1   13.90    2.40
   0   9  -1   13.50    3.10
   0   9  -1   11.40    2.50
   0  -9   1   10.50    2.20
   0  -9   1   12.00    2.30
   0  -9   1   10.60    2.40
   0  -9   1   11.60    1.70
  -1   9  -1  194.88    9.50
  -1   9  -1  183.98    8.20
  -1   9  -1  202.68    8.90
   1  -9   1  191.68    8.80
   1  -9   1  193.38    8.50
   1  -9   1  180.18    8.50
   1  -9   1  195.38    7.70
  -2   9  -1    0.10    2.40
  -2   9  -1   -1.40    2.00
  -2   9  -1    3.00    2.20
  -2   9  -1    1.60    2.60
   2  -9   1   -0.10    1.70
   2  -9   1   -0.40    1.70
   2  -9   1    0.90    1.40
   2  -9   1    4.20    2.10
  -3   9  -1   79.19    5.20
  -3   9  -1   70.49    5.30
  -3   9  -1   83.89    5.90
  -3   9  -1   83.09    5.70
   3  -9   1   84.49    5.30
   3  -9   1   76.89    4.80
   3  -9   1   75.39    5.20
   3  -9   1   89.79    5.90
  -4   9  -1  141.79    7.40
  -4   9  -1  152.48    8.00
  -4   9  -1  148.79    7.50
  -4   9  -1  145.49    7.50
   4  -9   1  153.38    7.70
   4  -9   1  148.69    7.80
   4  -9   1  150.98    7.40
   4  -9   1  146.49    8.00
  11   8  -1    9.10    4.00
 -11  -8   1   17.30    3.30
  10   8  -1   17.10    4.40
  10   8  -1   31.50    4.80
 -10  -8   1   23.20    3.50
 -10  -8   1   25.10    2.80
   9   8  -1   53.59    4.30
   9   8  -1   46.20    4.90
   9   8  -1   40.20    5.10
  -9  -8   1   50.19    4.40
  -9  -8   1   50.29    3.40
   8   8  -1   18.00    3.30
   8   8  -1   25.20    3.00
   8   8  -1   18.70    3.80
  -8  -8   1   19.10    3.00
  -8  -8   1   25.90    3.40
  -8  -8   1   25.50    2.40
  -8  -8   1   24.10    2.20
   7   8  -1  150.08    7.90
   7   8  -1  137.89    8.20
   7   8  -1  141.89    6.70
  -7  -8   1  128.79    5.80
  -7  -8   1  152.58    7.30
  -7  -8   1  148.29    7.00
  -7  -8   1  146.49    6.10
   6   8  -1   56.19    4.20
   6   8  -1   53.59    5.20
   6   8  -1   46.50    4.90
  -6  -8   1   58.49    3.50
  -6  -8   1   53.99    2.80
  -6  -8   1   52.39    4.20
  -6  -8   1   60.09    4.10
   5   8  -1   35.50    4.10
   5   8  -1   34.50    3.40
   5   8  -1   38.60    4.30
  -5  -8   1   47.90    3.70
  -5  -8   1   38.80    2.10
  -5  -8   1   41.90    3.50
  -5  -8   1   42.90    3.10
   4   8  -1  226.68    9.00
   4   8  -1  210.58    9.80
   4   8  -1  216.98    9.70
   4   8  -1  210.38    7.50
  -4  -8   1  206.08    7.50
  -4  -8   1  212.68    7.40
  -4  -8   1  206.68    8.80
  -4  -8   1  216.48    8.90
  -4  -8   1  220.38    8.60
   3   8  -1    1.30    2.00
   3   8  -1    2.50    2.10
   3   8  -1    2.10    1.20
   3   8  -1    0.80    2.30
  -3  -8   1    1.20    0.80
  -3  -8   1    0.50    1.50
  -3  -8   1    1.70    1.60
  -3  -8   1    1.50    0.60
  -3  -8   1    1.20    1.50
  -3  -8   1    2.50    1.50
   2   8  -1    4.40    1.50
   2   8  -1    6.10    2.20
   2   8  -1    6.20    2.20
   2   8  -1    4.00    2.40
  -2  -8   1    8.60    2.00
  -2  -8   1    0.90    1.60
  -2  -8   1    5.90    1.00
  -2  -8   1    6.10    1.70
  -2  -8   1    2.90    1.60
   1   8  -1  168.98    8.30
   1   8  -1  172.08    7.50
   1   8  -1  181.68    7.00
   1   8  -1  160.08    7.60
  -1  -8   1  178.88    7.80
  -1  -8   1  155.78    7.30
  -1  -8   1  171.08    6.50
  -1  -8   1  177.88    7.50
   0   8  -1  127.99    6.60
   0   8  -1  129.69    6.10
   0   8  -1  135.39    6.10
   0   8  -1  133.79    7.30
   0  -8   1  137.89    6.40
   0  -8   1  136.49    6.40
   0  -8   1  143.79    6.80
   0  -8   1  138.09    5.60
  -1   8  -1    7.40    2.10
  -1   8  -1    4.30    2.00
  -1   8  -1    7.10    1.50
  -1   8  -1    7.40    2.50
   1  -8   1    7.60    2.00
   1  -8   1    8.00    2.00
   1  -8   1    5.10    1.90
   1  -8   1    8.30    1.50
  -2   8  -1    2.20    2.20
  -2   8  -1    1.30    1.90
  -2   8  -1    1.30    1.90
  -2   8  -1    0.90    2.30
   2  -8   1   -1.80    1.60
   2  -8   1   -0.70    1.20
   2  -8   1   -0.70    1.50
   2  -8   1    0.70    1.70
  -3   8  -1  134.19    7.10
  -3   8  -1  144.69    6.90
  -3   8  -1  147.09    7.60
  -3   8  -1  150.28    7.20
   3  -8   1  143.79    7.20
   3  -8   1  137.89    7.00
   3  -8   1  139.89    6.60
   3  -8   1  153.38    7.50
  -4   8  -1   15.60    2.70
  -4   8  -1   16.80    3.10
  -4   8  -1   18.10    2.90
  -4   8  -1   20.40    3.10
   4  -8   1   21.50    3.40
   4  -8   1   16.80    2.60
   4  -8   1   21.60    3.10
   4  -8   1   19.10    3.10
  -5   8  -1   38.60    3.80
  -5   8  -1   32.60    3.90
   5  -8   1   39.50    4.50
   5  -8   1   39.10    4.50
   5  -8   1   42.70    4.00
   5  -8   1   42.80    4.30
  11   7  -1   10.00    4.10
 -11  -7   1   17.80    3.30
 -11  -7   1   17.10    2.70
  10   7  -1    4.50    3.30
 -10  -7   1    2.40    2.50
 -10  -7   1    7.20    2.00
   9   7  -1   10.80    2.10
   9   7  -1    5.30    3.00
   9   7  -1    5.70    2.50
  -9  -7   1    7.60    2.30
  -9  -7   1    8.60    2.00
   8   7  -1   21.90    2.60
   8   7  -1   19.00    3.10
   8   7  -1   15.60    3.40
  -8  -7   1   21.80    1.80
  -8  -7   1   22.40    2.40
  -8  -7   1   19.90    2.80
  -8  -7   1   20.30    3.00
   7   7  -1   24.10    2.70
   7   7  -1   19.70    3.20
   7   7  -1   25.60    3.70
  -7  -7   1   24.10    2.80
  -7  -7   1   28.00    2.20
  -7  -7   1   22.60    2.20
  -7  -7   1   27.00    3.10
   6   7  -1   26.50    3.70
   6   7  -1   40.80    4.00
   6   7  -1   36.50    3.30
  -6  -7   1   39.00    3.40
  -6  -7   1   36.00    2.70
  -6  -7   1   31.70    2.20
  -6  -7   1   33.80    3.10
   5   7  -1   45.10    4.30
   5   7  -1   41.70    1.80
   5   7  -1   46.80    3.30
   5   7  -1   39.40    4.10
  -5  -7   1   43.10    2.30
  -5  -7   1   47.50    3.00
  -5  -7   1   39.90    3.40
  -5  -7   1   42.80    3.30
   4   7  -1  229.18    8.90
   4   7  -1  215.78    9.60
   4   7  -1  223.68    9.60
   4   7  -1  214.98    7.70
   4   7  -1  222.18    7.60
  -4  -7   1  216.38    7.70
  -4  -7   1  215.48    8.90
  -4  -7   1  214.68    8.50
  -4  -7   1  218.38    7.60
  -4  -7   1  227.68    8.90
   3   7  -1   10.20    2.10
   3   7  -1   10.00    1.30
   3   7  -1    7.00    2.40
   3   7  -1   11.70    2.40
  -3  -7   1    9.80    1.70
  -3  -7   1    8.20    1.80
  -3  -7   1   13.00    2.00
  -3  -7   1    8.80    1.80
  -3  -7   1   11.60    1.00
  -3  -7   1   10.30    1.10
   2   7  -1  291.37   10.80
   2   7  -1  251.87   10.90
   2   7  -1  278.17    9.50
   2   7  -1  277.57   10.30
  -2  -7   1  266.37   10.20
  -2  -7   1  269.07    8.90
  -2  -7   1  266.17   10.10
  -2  -7   1  246.78   10.30
  -2  -7   1  254.57    9.10
  -2  -7   1  250.97   10.10
   1   7  -1  408.86   14.70
   1   7  -1  382.36   15.30
   1   7  -1  405.96   14.00
   1   7  -1  400.76   14.70
  -1  -7   1  413.16   14.60
  -1  -7   1  398.76   14.70
  -1  -7   1  395.96   14.50
  -1  -7   1  418.76   13.70
  -1  -7   1  397.16   13.30
   0   7  -1    2.50    1.50
   0   7  -1    1.20    0.80
   0   7  -1   -0.30    1.60
   0   7  -1   -0.20    1.30
   0   7  -1    1.60    2.00
   0  -7   1   -0.80    1.20
   0  -7   1    1.90    0.60
   0  -7   1    0.80    1.30
   0  -7   1    0.80    0.90
   0  -7   1   -0.30    1.20
  -1   7  -1  223.68    8.60
  -1   7  -1  236.28    9.90
  -1   7  -1  236.18    9.00
  -1   7  -1  236.28    9.40
   1  -7   1  245.98    9.30
   1  -7   1  213.48    9.20
   1  -7   1  216.48    9.40
   1  -7   1  244.48    8.70
  -2   7  -1  100.39    4.10
  -2   7  -1   98.49    5.80
  -2   7  -1   97.79    5.10
  -2   7  -1   94.29    5.20
   2  -7   1   98.79    4.80
   2  -7   1  103.09    5.30
   2  -7   1   89.49    5.00
   2  -7   1  101.99    5.50
  -3   7  -1    4.00    2.00
  -3   7  -1    3.60    2.00
  -3   7  -1    3.40    2.00
  -3   7  -1    3.30    2.00
   3  -7   1    3.10    1.60
   3  -7   1    4.40    2.00
   3  -7   1    3.00    1.80
   3  -7   1    5.20    1.80
  -4   7  -1  116.79    6.20
  -4   7  -1  121.19    6.20
  -4   7  -1  134.49    6.70
  -4   7  -1  127.39    6.30
   4  -7   1  123.59    6.60
   4  -7   1  131.99    6.40
   4  -7   1  132.69    6.90
  -5   7  -1   71.99    4.50
  -5   7  -1   75.39    4.80
  -5   7  -1   68.89    4.90
   5  -7   1   78.59    5.20
   5  -7   1   75.19    5.70
  -6   7  -1   19.40    3.40
  -6   7  -1   19.70    2.70
   6  -7   1   19.80    3.10
   6  -7   1   18.10    3.40
  11   6  -1   -2.20    2.90
 -11  -6   1    1.50    1.80
 -11  -6   1    0.10    2.10
  10   6  -1   85.79    7.00
 -10  -6   1   82.49    5.50
 -10  -6   1   85.19    5.10
   9   6  -1   22.80    3.80
   9   6  -1   24.20    3.00
   9   6  -1   30.20    2.80
  -9  -6   1   20.70    2.60
  -9  -6   1   21.90    3.00
   8   6  -1    5.70    2.80
   8   6  -1    7.40    1.80
   8   6  -1    6.10    2.20
  -8  -6   1    9.10    2.20
  -8  -6   1    9.20    0.90
  -8  -6   1    7.60    1.80
   7   6  -1    4.70    2.50
   7   6  -1    2.40    1.40
   7   6  -1    3.20    2.10
  -7  -6   1    5.00    1.40
  -7  -6   1    4.40    1.90
  -7  -6   1    5.40    1.90
   6   6  -1    0.80    2.00
   6   6  -1   -0.20    2.00
   6   6  -1   -0.40    1.40
  -6  -6   1    0.10    1.00
  -6  -6   1   -1.00    0.70
  -6  -6   1    0.90    1.40
  -6  -6   1   -1.10    0.90
  -6  -6   1   -1.40    1.30
   5   6  -1   90.59    5.30
   5   6  -1   96.49    4.60
   5   6  -1   86.79    3.80
   5   6  -1   91.29    5.50
   5   6  -1   92.69    3.10
   5   6  -1   89.39    3.10
  -5  -6   1   87.19    4.10
  -5  -6   1  102.69    3.90
  -5  -6   1   95.69    4.70
  -5  -6   1   89.09    4.60
   4   6  -1    5.60    0.80
   4   6  -1    5.10    2.00
   4   6  -1    5.40    1.60
   4   6  -1    5.70    2.00
   4   6  -1    4.60    0.90
  -4  -6   1    3.60    1.20
  -4  -6   1    7.30    0.90
  -4  -6   1    5.50    1.60
  -4  -6   1    4.70    0.80
  -4  -6   1    6.00    1.50
   3   6  -1   14.70    2.40
   3   6  -1   19.90    1.40
   3   6  -1   18.90    1.60
   3   6  -1   20.10    2.70
   3   6  -1   18.20    2.10
  -3  -6   1   21.70    1.40
  -3  -6   1   22.90    2.30
  -3  -6   1   21.30    2.20
  -3  -6   1   19.20    1.90
  -3  -6   1   20.40    1.20
  -3  -6   1   17.70    2.00
   2   6  -1  114.89    5.60
   2   6  -1  107.59    5.20
   2   6  -1  105.19    5.70
   2   6  -1  117.29    4.50
  -2  -6   1  109.59    5.00
  -2  -6   1  120.09    4.20
  -2  -6   1  107.59    4.90
  -2  -6   1  103.19    4.90
  -2  -6   1  109.59    5.20
  -2  -6   1  111.59    4.00
   1   6  -1  720.63   23.60
   1   6  -1  691.03   23.50
   1   6  -1  673.53   23.20
   1   6  -1  741.23   24.30
   1   6  -1  714.53   22.90
  -1  -6   1  695.53   22.30
  -1  -6   1  645.74   23.40
  -1  -6   1  695.93   23.40
  -1  -6   1  659.93   23.30
  -1  -6   1  666.43   22.60
   0   6  -1  108.59    4.90
   0   6  -1  106.09    4.30
   0   6  -1  107.19    4.70
   0   6  -1  106.69    5.60
   0   6  -1   99.49    5.00
   0  -6   1  107.69    4.40
   0  -6   1  110.49    5.10
   0  -6   1  106.39    4.00
   0  -6   1  111.59    5.00
   0  -6   1  102.79    5.00
  -1   6  -1    0.80    1.40
  -1   6  -1    0.40    1.40
  -1   6  -1    1.30    0.60
  -1   6  -1    0.60    1.00
  -1   6  -1    0.10    1.90
   1  -6   1   -0.20    0.60
   1  -6   1    0.80    1.40
   1  -6   1   -0.60    1.30
   1  -6   1    0.70    1.20
   1  -6   1    0.10    0.90
  -2   6  -1  662.33   22.70
  -2   6  -1  627.44   22.30
  -2   6  -1  655.63   21.30
  -2   6  -1  616.34   21.90
   2  -6   1  657.83   22.50
   2  -6   1  641.44   21.90
   2  -6   1  667.63   22.40
   2  -6   1  631.24   22.30
  -3   6  -1   84.69    4.70
  -3   6  -1   93.49    4.90
  -3   6  -1   96.79    5.30
  -3   6  -1   91.19    5.00
   3  -6   1   90.39    5.30
   3  -6   1   89.79    4.80
  -4   6  -1   19.90    2.50
  -4   6  -1   14.90    2.30
  -4   6  -1   18.40    2.60
  -4   6  -1   20.10    2.60
  -4   6  -1   20.30    2.60
   4  -6   1   19.20    2.50
   4  -6   1   17.50    2.70
  -5   6  -1  188.08    8.30
  -5   6  -1  187.28    8.00
  -5   6  -1  186.18    8.10
  -5   6  -1  185.08    7.70
  -5   6  -1  195.08    8.10
   5  -6   1  183.78    8.20
   5  -6   1  178.08    8.70
  -6   6  -1  115.89    5.80
  -6   6  -1  118.09    6.30
  -6   6  -1  106.89    6.10
   6  -6   1  120.49    6.90
   6  -6   1  114.29    6.10
  -7   6  -1    9.30    2.10
  -7   6  -1   13.10    3.00
  -7   6  -1   11.20    2.80
   7  -6   1    7.40    2.40
   7  -6   1   12.20    3.10
  12   5  -1   37.10    5.00
 -12  -5   1   55.69    4.90
 -12  -5   1   45.40    4.50
  11   5  -1   38.70    4.80
 -11  -5   1   34.20    4.30
 -11  -5   1   31.20    3.70
  10   5  -1  339.57   14.90
 -10  -5   1  370.66   14.20
 -10  -5   1  354.66   13.60
   9   5  -1   60.99    5.30
   9   5  -1   59.89    3.70
   9   5  -1   57.59    4.00
  -9  -5   1   57.29    4.30
  -9  -5   1   60.69    4.10
   8   5  -1   24.10    2.30
   8   5  -1   16.10    3.20
   8   5  -1   19.50    2.60
  -8  -5   1   19.80    2.70
  -8  -5   1   20.30    2.40
   7   5  -1  533.55   20.40
   7   5  -1  576.04   19.00
   7   5  -1  552.14   19.50
  -7  -5   1  547.45   19.60
  -7  -5   1  576.84   19.10
  -7  -5   1  558.24   18.10
  -7  -5   1  526.35   18.10
  -7  -5   1  554.34   19.60
   6   5  -1   78.19    3.80
   6   5  -1   75.59    5.00
   6   5  -1   73.99    4.30
  -6  -5   1   72.89    3.50
  -6  -5   1   68.29    3.10
  -6  -5   1   67.09    4.10
  -6  -5   1   71.59    3.10
  -6  -5   1   71.49    4.10
   5   5  -1    6.20    0.50
   5   5  -1    5.00    1.90
   5   5  -1    5.40    1.00
   5   5  -1    4.90    1.90
   5   5  -1    6.20    1.30
  -5  -5   1    7.40    1.60
  -5  -5   1    6.30    1.10
  -5  -5   1    4.80    1.50
  -5  -5   1    6.30    1.00
  -5  -5   1    8.10    1.20
   4   5  -1   15.40    2.30
   4   5  -1   18.00    1.40
   4   5  -1   16.60    2.40
   4   5  -1   15.00    1.80
  -4  -5   1   15.70    2.00
  -4  -5   1   19.70    2.00
  -4  -5   1   18.10    1.70
  -4  -5   1   18.10    1.60
  -4  -5   1   16.00    1.40
   3   5  -1  155.28    7.00
   3   5  -1  161.88    6.40
   3   5  -1  158.18    7.00
   3   5  -1  163.68    5.60
  -3  -5   1  148.39    6.30
  -3  -5   1  151.28    6.10
  -3  -5   1  156.38    6.40
  -3  -5   1  161.38    5.60
  -3  -5   1  171.28    6.40
  -3  -5   1  162.78    5.60
   2   5  -1   55.39    3.20
   2   5  -1   63.79    2.80
   2   5  -1   59.79    3.70
   2   5  -1   64.99    3.90
   2   5  -1   62.19    2.50
  -2  -5   1   62.59    3.30
  -2  -5   1   60.59    3.20
  -2  -5   1   59.69    2.50
  -2  -5   1   61.19    3.10
   1   5  -1  198.38    6.80
   1   5  -1  191.68    7.40
   1   5  -1  183.58    7.70
   1   5  -1  164.28    7.10
   1   5  -1  187.88    6.90
  -1  -5   1  190.88    7.20
  -1  -5   1  186.08    6.20
  -1  -5   1  182.48    6.40
  -1  -5   1  171.58    7.10
  -1  -5   1  177.78    7.00
   0   5  -1  384.36   13.60
   0   5  -1  378.76   13.00
   0   5  -1  373.46   13.10
   0   5  -1  364.56   12.50
   0   5  -1  364.06   12.70
   0  -5   1  392.56   13.10
   0  -5   1  345.57   13.00
   0  -5   1  316.47   12.90
   0  -5   1  391.26   12.50
   0  -5   1  375.16   12.20
  -1   5  -1  435.56   15.30
  -1   5  -1  429.36   14.40
  -1   5  -1  421.56   13.90
  -1   5  -1  420.46   14.80
  -1   5  -1  424.26   14.50
   1  -5   1  398.36   14.70
   1  -5   1  413.76   14.30
   1  -5   1  416.16   14.80
   1  -5   1  419.86   14.80
   1  -5   1  423.16   14.00
  -2   5  -1  267.27   10.00
  -2   5  -1  256.17    9.60
  -2   5  -1  257.57    8.90
  -2   5  -1  256.47    9.50
   2  -5   1  242.58    9.80
   2  -5   1  247.78    9.60
  -3   5  -1    0.60    1.30
  -3   5  -1    0.70    1.60
  -3   5  -1    1.80    0.50
  -3   5  -1    1.60    0.60
  -3   5  -1    4.70    1.70
  -3   5  -1    1.30    1.50
   3  -5   1    1.50    1.40
   3  -5   1    1.70    1.30
  -4   5  -1  683.53   22.90
  -4   5  -1  686.83   22.90
  -4   5  -1  653.63   23.10
  -4   5  -1  701.03   23.30
  -4   5  -1  642.54   23.10
   4  -5   1  691.63   23.60
   4  -5   1  669.83   23.20
  -5   5  -1   -1.60    1.30
  -5   5  -1    0.00    1.50
  -5   5  -1   -0.90    1.70
  -5   5  -1   -0.50    1.10
  -5   5  -1    2.30    1.80
   5  -5   1    2.50    1.90
   5  -5   1   -0.90    1.30
  -6   5  -1    5.70    1.90
  -6   5  -1    6.40    2.40
  -6   5  -1    6.80    2.30
  -6   5  -1   11.30    1.60
   6  -5   1    5.40    2.30
   6  -5   1    3.90    2.00
  -7   5  -1  249.38   10.60
  -7   5  -1  255.57   10.00
  -7   5  -1  261.37   10.70
   7  -5   1  250.97   10.70
   7  -5   1  262.07   11.20
  -8   5  -1   23.20    3.60
  -8   5  -1   21.00    3.30
   8  -5   1   21.50    3.10
   8  -5   1   25.30    3.80
  12   4  -1   -2.20    2.90
 -12  -4   1    3.00    2.40
 -12  -4   1    0.50    2.60
  11   4  -1    6.70    2.90
 -11  -4   1    6.40    2.60
 -11  -4   1   13.70    3.10
  10   4  -1   77.59    6.20
 -10  -4   1   82.09    5.20
 -10  -4   1   80.99    5.40
   9   4  -1    8.50    1.60
   9   4  -1    5.80    2.50
  -9  -4   1    8.40    2.20
  -9  -4   1    4.50    2.10
   8   4  -1   36.20    3.00
   8   4  -1   36.90    2.70
   8   4  -1   40.20    4.20
  -8  -4   1   37.50    3.60
  -8  -4   1   35.80    3.10
   7   4  -1    1.40    1.40
   7   4  -1    0.40    0.80
   7   4  -1    2.50    1.10
   7   4  -1    0.20    1.90
  -7  -4   1    2.00    1.50
  -7  -4   1    3.00    1.60
   6   4  -1  282.47   10.20
   6   4  -1  264.67   11.00
   6   4  -1  266.27    8.90
   6   4  -1  278.27    9.70
  -6  -4   1  267.07    9.80
  -6  -4   1  269.37   10.30
  -6  -4   1  273.77   10.30
  -6  -4   1  251.27    9.00
  -6  -4   1  265.87    9.00
   5   4  -1  396.86   13.30
   5   4  -1  359.76   13.80
   5   4  -1  363.46   11.90
   5   4  -1  378.36   12.70
   5   4  -1  375.06   12.60
  -5  -4   1  364.56   13.10
  -5  -4   1  342.07   13.10
  -5  -4   1  344.67   12.30
  -5  -4   1  362.96   12.30
  -5  -4   1  391.66   12.70
   4   4  -1  139.79    4.60
   4   4  -1  142.59    5.00
   4   4  -1  137.29    5.40
   4   4  -1  138.99    6.00
   4   4  -1  135.79    6.30
  -4  -4   1  131.39    5.60
  -4  -4   1  140.29    5.10
  -4  -4   1  139.79    5.10
  -4  -4   1  130.39    5.10
  -4  -4   1  129.89    5.70
   3   4  -1  781.32   24.60
   3   4  -1  717.43   25.60
   3   4  -1  748.43   25.90
   3   4  -1  770.12   25.10
  -3  -4   1  797.42   24.70
  -3  -4   1  775.92   24.60
  -3  -4   1  736.73   24.90
  -3  -4   1  763.62   25.00
  -3  -4   1  756.42   25.20
  -3  -4   1  769.62   25.30
   2   4  -1  927.01   30.40
   2   4  -1  924.01   29.80
   2   4  -1  958.20   30.40
   2   4  -1  971.90   31.00
   2   4  -1  938.61   30.90
   2   4  -1  923.11   30.50
  -2  -4   1  923.81   30.40
  -2  -4   1  922.71   30.30
  -2  -4   1  883.01   30.40
  -2  -4   1  917.91   29.80
  -2  -4   1 1010.40   29.80
  -2  -4   1  853.01   30.20
  -2  -4   1  905.61   30.50
   1   4  -1  280.97   10.00
   1   4  -1  289.57   10.60
   1   4  -1  303.17    9.70
   1   4  -1  276.47    9.90
   1   4  -1  278.37   10.10
   1   4  -1  286.87   10.40
  -1  -4   1  279.17   10.00
  -1  -4   1  296.37    9.40
  -1  -4   1  283.17    9.30
  -1  -4   1  279.97   10.10
  -1  -4   1  283.97    9.90
  -1  -4   1  265.37    9.90
   0   4  -1  118.59    4.50
   0   4  -1  124.69    4.80
   0   4  -1  120.49    5.40
   0   4  -1  108.79    4.90
   0  -4   1  118.69    4.90
   0  -4   1  119.79    4.40
   0  -4   1  119.79    4.90
   0  -4   1  110.89    5.00
   0  -4   1  120.59    4.20
  -1   4  -1   16.50    2.00
  -1   4  -1   16.00    1.20
  -1   4  -1   15.80    1.70
  -1   4  -1   15.70    1.80
  -1   4  -1   15.00    1.60
   1  -4   1   15.40    1.60
   1  -4   1   12.70    1.60
   1  -4   1   15.90    1.20
   1  -4   1   15.80    1.70
  -2   4  -1   21.50    2.00
  -2   4  -1   20.30    1.70
  -2   4  -1   16.30    2.00
  -2   4  -1   20.30    2.00
   2  -4   1   18.50    1.50
   2  -4   1   22.20    2.00
   2  -4   1   19.20    2.00
  -3   4  -1    3.70    1.30
  -3   4  -1    4.70    1.50
  -3   4  -1    4.60    1.50
  -3   4  -1    3.90    0.60
  -3   4  -1    2.20    1.40
   3  -4   1    2.90    1.30
   3  -4   1    4.50    1.30
  -4   4  -1    6.00    1.40
  -4   4  -1    5.40    1.60
  -4   4  -1    5.40    1.70
  -4   4  -1    4.40    1.40
  -4   4  -1    6.30    1.50
  -4   4  -1    4.50    0.50
   4  -4   1    2.90    1.50
   4  -4   1    5.20    1.40
  -5   4  -1   78.09    4.50
  -5   4  -1   80.89    4.40
  -5   4  -1   84.59    4.20
  -5   4  -1   85.19    4.40
  -5   4  -1   87.29    3.90
   5  -4   1   89.29    4.50
   5  -4   1   88.49    4.90
  -6   4  -1    6.90    2.00
  -6   4  -1    5.40    2.00
  -6   4  -1    5.30    1.20
  -6   4  -1    4.60    1.70
   6  -4   1    4.10    2.00
   6  -4   1    7.70    1.90
  -7   4  -1   17.30    2.20
  -7   4  -1   19.20    2.90
  -7   4  -1   25.50    3.10
   7  -4   1   19.80    2.60
   7  -4   1   22.00    3.10
  -8   4  -1   61.29    3.70
  -8   4  -1   61.69    4.70
  -8   4  -1   59.89    4.50
   8  -4   1   59.19    5.20
   8  -4   1   56.29    4.10
  -9   4  -1   -0.90    2.70
  -9   4  -1    2.20    2.70
   9  -4   1   -1.30    2.20
   9  -4   1    1.30    1.70
 -12  -3   1    3.30    2.50
 -12  -3   1    5.50    2.80
  11   3  -1   17.20    3.40
 -11  -3   1   22.50    3.30
 -11  -3   1   16.80    3.20
  10   3  -1   15.90    3.20
 -10  -3   1   16.80    3.00
 -10  -3   1   17.10    2.80
   9   3  -1    5.40    1.40
   9   3  -1    3.60    2.30
  -9  -3   1    3.90    1.10
  -9  -3   1    4.80    1.90
  -9  -3   1    4.50    2.10
   8   3  -1   20.30    1.90
   8   3  -1   21.30    2.90
   8   3  -1   20.70    2.00
  -8  -3   1   18.20    1.60
  -8  -3   1   14.10    2.40
  -8  -3   1   22.70    2.70
   7   3  -1   68.19    4.60
   7   3  -1   65.19    3.20
   7   3  -1   66.59    3.50
   7   3  -1   62.49    2.90
  -7  -3   1   65.69    3.90
  -7  -3   1   68.99    2.90
  -7  -3   1   59.79    3.90
   6   3  -1  120.29    4.40
   6   3  -1  121.59    6.00
   6   3  -1  119.49    4.80
   6   3  -1  125.19    5.20
  -6  -3   1  119.39    5.50
  -6  -3   1  126.39    4.40
  -6  -3   1  112.79    5.10
   5   3  -1   27.70    2.10
   5   3  -1   24.40    1.80
   5   3  -1   21.70    2.50
   5   3  -1   25.80    1.30
  -5  -3   1   27.90    1.30
  -5  -3   1   21.00    2.10
  -5  -3   1   25.20    1.30
  -5  -3   1   26.50    2.30
  -5  -3   1   24.90    2.00
  -5  -3   1   26.00    2.00
   4   3  -1  699.93   23.90
   4   3  -1  757.42   23.90
   4   3  -1  729.63   23.50
   4   3  -1  778.72   24.50
   4   3  -1  749.92   23.90
   4   3  -1  733.83   23.90
   4   3  -1  718.43   24.90
  -4  -3   1  714.23   24.40
  -4  -3   1  733.43   24.30
  -4  -3   1  725.13   24.00
  -4  -3   1  732.23   23.70
  -4  -3   1  712.13   24.30
  -4  -3   1  733.23   23.70
   3   3  -1   92.19    4.30
   3   3  -1   95.99    4.20
   3   3  -1  102.39    3.90
   3   3  -1  103.89    3.50
   3   3  -1  107.89    3.80
   3   3  -1   88.29    4.00
   3   3  -1  102.19    4.50
   3   3  -1  104.09    4.80
   3   3  -1  103.49    4.00
  -3  -3   1   99.69    3.80
  -3  -3   1   94.59    4.30
  -3  -3   1   98.09    4.20
  -3  -3   1  103.79    3.80
  -3  -3   1  100.09    3.80
  -3  -3   1  105.19    4.30
   2   3  -1    1.70    0.50
   2   3  -1    1.30    0.70
   2   3  -1    1.70    1.00
   2   3  -1    1.10    0.80
   2   3  -1    2.20    1.10
   2   3  -1    1.90    0.90
   2   3  -1    2.50    0.90
   2   3  -1    2.20    1.30
  -2  -3   1    1.00    0.90
  -2  -3   1    1.90    0.80
  -2  -3   1    2.10    0.50
  -2  -3   1    1.30    0.80
  -2  -3   1    2.60    0.50
  -2  -3   1    1.70    1.00
  -2  -3   1    1.20    0.90
   1   3  -1  782.12   26.50
   1   3  -1  839.82   26.90
   1   3  -1  829.92   26.50
   1   3  -1  834.42   26.90
   1   3  -1  774.82   26.40
   1   3  -1  769.02   26.40
   1   3  -1  842.62   26.50
  -1  -3   1  790.42   26.80
  -1  -3   1  813.12   26.50
  -1  -3   1  795.62   26.40
  -1  -3   1  786.82   26.40
  -1  -3   1  829.82   25.90
  -1  -3   1  839.52   26.50
   0   3  -1   85.99    3.60
   0   3  -1   84.69    3.60
   0   3  -1   83.39    3.40
   0   3  -1   79.19    3.90
   0   3  -1   85.79    3.80
   0  -3   1   85.59    3.60
   0  -3   1   84.09    3.00
   0  -3   1   82.89    3.50
   0  -3   1   88.19    3.70
   0  -3   1   79.39    3.70
   0  -3   1   84.29    3.20
   0  -3   1   83.59    3.80
  -1   3  -1   17.50    1.70
  -1   3  -1   16.50    1.20
  -1   3  -1   14.80    1.50
  -1   3  -1   15.10    1.30
  -1   3  -1   15.30    1.60
  -1   3  -1   15.80    1.60
  -1   3  -1   17.90    1.90
   1  -3   1   19.10    1.70
   1  -3   1   17.50    1.70
   1  -3   1   16.50    1.20
   1  -3   1   16.90    1.20
   1  -3   1   16.00    1.80
   1  -3   1   17.30    1.50
  -2   3  -1   42.60    2.60
  -2   3  -1   45.60    2.80
  -2   3  -1   42.50    2.70
  -2   3  -1   41.00    2.30
  -2   3  -1   42.50    2.30
   2  -3   1   43.80    2.50
   2  -3   1   44.70    2.20
   2  -3   1   46.80    1.80
   2  -3   1   43.10    2.70
   2  -3   1   39.30    2.40
  -3   3  -1  117.09    5.00
  -3   3  -1  120.79    4.90
  -3   3  -1  115.69    4.90
  -3   3  -1  121.09    4.30
  -3   3  -1  117.39    5.00
   3  -3   1  118.19    5.20
   3  -3   1  118.79    4.90
   3  -3   1  123.09    4.10
   3  -3   1  120.59    5.00
  -4   3  -1  235.38    9.00
  -4   3  -1  251.97    8.90
  -4   3  -1  256.37    9.20
  -4   3  -1  261.67    9.30
  -4   3  -1  248.28    8.40
  -4   3  -1  259.17    9.30
   4  -3   1  253.07    8.30
   4  -3   1  254.57    9.30
   4  -3   1  229.88    9.00
   4  -3   1  256.17    9.60
  -5   3  -1  194.08    7.60
  -5   3  -1  192.98    6.90
  -5   3  -1  194.88    6.70
  -5   3  -1  185.08    7.50
  -5   3  -1  196.98    7.70
   5  -3   1  188.18    7.60
   5  -3   1  176.58    7.10
   5  -3   1  191.18    7.90
   5  -3   1  195.88    6.60
  -6   3  -1  432.76   14.60
  -6   3  -1  449.06   15.30
  -6   3  -1  387.56   15.40
  -6   3  -1  425.36   15.60
   6  -3   1  459.95   14.50
   6  -3   1  442.76   16.10
   6  -3   1  451.45   15.60
  -7   3  -1  137.19    6.40
  -7   3  -1  138.29    5.90
  -7   3  -1  130.79    6.50
   7  -3   1  142.69    7.00
   7  -3   1  130.49    6.10
  -8   3  -1  113.39    6.00
  -8   3  -1  115.69    6.20
  -8   3  -1  109.89    5.10
   8  -3   1  117.59    6.70
   8  -3   1  115.79    5.80
  -9   3  -1   32.00    3.90
  -9   3  -1   29.40    3.60
   9  -3   1   28.30    3.10
   9  -3   1   25.10    3.60
 -10   3  -1  208.38    9.50
 -10   3  -1  205.08    9.90
  10  -3   1  219.18   10.10
  10  -3   1  214.88   10.50
  11   2  -1   -0.40    2.20
 -11  -2   1    1.00    2.40
  10   2  -1   80.39    5.60
 -10  -2   1   89.19    4.20
 -10  -2   1   80.59    5.60
 -10  -2   1   80.29    5.30
   9   2  -1   13.30    2.70
   9   2  -1   23.10    2.20
  -9  -2   1   21.50    2.90
  -9  -2   1   28.60    3.30
  -9  -2   1   24.20    2.20
   8   2  -1   -1.60    0.80
   8   2  -1    0.10    1.00
   8   2  -1    0.60    1.80
  -8  -2   1    2.10    1.80
  -8  -2   1    0.30    1.00
  -8  -2   1   -0.90    1.40
   7   2  -1   61.79    4.10
   7   2  -1   57.29    2.90
   7   2  -1   64.69    3.00
   7   2  -1   64.39    3.10
  -7  -2   1   59.59    3.60
  -7  -2   1   57.89    3.80
  -7  -2   1   65.19    2.90
   6   2  -1   99.59    4.10
   6   2  -1  103.29    4.30
   6   2  -1  104.59    5.20
   6   2  -1  101.69    4.20
   6   2  -1  106.89    4.20
  -6  -2   1  100.59    4.80
  -6  -2   1  106.09    4.10
  -6  -2   1  106.19    4.70
   5   2  -1  178.88    7.40
   5   2  -1  183.58    6.30
   5   2  -1  176.58    6.50
   5   2  -1  175.28    6.10
   5   2  -1  178.78    6.30
   5   2  -1  170.28    6.50
  -5  -2   1  179.38    6.70
  -5  -2   1  177.38    6.10
  -5  -2   1  162.48    6.80
   4   2  -1  569.54   19.10
   4   2  -1  568.84   18.80
   4   2  -1  580.14   19.20
   4   2  -1  589.64   18.70
   4   2  -1  564.34   19.80
   4   2  -1  595.14   19.10
   4   2  -1  593.14   18.90
  -4  -2   1  602.94   18.70
  -4  -2   1  541.45   19.20
  -4  -2   1  598.04   19.20
  -4  -2   1  561.34   18.50
  -4  -2   1  595.24   20.60
  -4  -2   1  540.75   19.40
  -4  -2   1  576.14   18.50
  -4  -2   1  593.14   19.40
   3   2  -1  115.09    4.60
   3   2  -1  111.19    3.90
   3   2  -1  110.69    4.40
   3   2  -1  115.69    5.00
   3   2  -1  116.49    4.20
   3   2  -1  107.09    4.50
   3   2  -1  117.49    4.10
   3   2  -1  118.69    4.20
   3   2  -1  118.39    4.20
  -3  -2   1  108.69    4.20
  -3  -2   1  102.29    4.50
  -3  -2   1  117.09    4.70
  -3  -2   1  115.09    4.00
  -3  -2   1  115.49    4.00
  -3  -2   1  110.99    4.50
   2   2  -1 2374.26   73.19
   2   2  -1 2184.38   73.09
   2   2  -1 2205.68   73.39
   2   2  -1 2370.86   73.39
   2   2  -1 2385.16   73.49
   2   2  -1 2353.26   73.89
   2   2  -1 2245.08   73.59
   2   2  -1 2355.76   73.09
   2   2  -1 2310.37   73.69
  -2  -2   1 2262.17   73.09
  -2  -2   1 2277.27   73.39
  -2  -2   1 2291.37   73.49
  -2  -2   1 2414.76   73.19
  -2  -2   1 2287.27   73.59
  -2  -2   1 2138.59   73.09
   1   2  -1 1229.28   38.70
   1   2  -1 1286.97   39.30
   1   2  -1 1189.58   39.10
   1   2  -1 1257.87   39.10
   1   2  -1 1250.97   39.60
   1   2  -1 1182.18   39.10
   1   2  -1 1234.98   39.30
   1   2  -1 1265.67   39.50
  -1  -2   1 1233.78   39.10
  -1  -2   1 1200.38   39.20
  -1  -2   1 1120.19   39.10
  -1  -2   1 1195.18   39.10
  -1  -2   1 1277.67   39.50
  -1  -2   1 1148.69   38.70
  -1  -2   1 1244.28   38.70
  -1  -2   1 1184.08   39.10
   0   2  -1   23.80    1.80
   0   2  -1   20.40    1.40
   0   2  -1   20.10    1.40
   0   2  -1   20.10    1.50
   0   2  -1   17.80    1.60
   0  -2   1   26.60    1.70
   0  -2   1   20.90    1.50
   0  -2   1   23.10    1.50
   0  -2   1   20.30    1.60
   0  -2   1   21.40    1.60
   0  -2   1   21.00    0.90
   0  -2   1   21.50    1.50
  -1   2  -1 1371.46   44.40
  -1   2  -1 1348.17   44.30
  -1   2  -1 1362.16   44.00
  -1   2  -1 1421.56   44.30
  -1   2  -1 1376.26   44.00
  -1   2  -1 1369.26   44.20
   1  -2   1 1359.16   44.30
   1  -2   1 1452.15   44.00
   1  -2   1 1329.17   44.30
   1  -2   1 1334.67   44.30
   1  -2   1 1366.06   44.00
   1  -2   1 1425.56   44.40
  -2   2  -1    0.90    0.60
  -2   2  -1    1.10    0.90
  -2   2  -1    1.00    1.00
  -2   2  -1    1.50    0.90
  -2   2  -1    0.40    0.70
  -2   2  -1    1.70    1.00
  -2   2  -1    2.00    0.90
   2  -2   1    0.80    0.70
   2  -2   1    0.70    0.70
   2  -2   1    0.70    0.70
   2  -2   1    2.70    1.00
   2  -2   1    0.70    0.90
   2  -2   1    0.30    0.50
  -3   2  -1 1147.49   37.40
  -3   2  -1 1119.19   37.20
  -3   2  -1 1137.19   37.20
  -3   2  -1 1183.78   37.30
  -3   2  -1 1147.29   37.40
  -3   2  -1 1165.68   37.00
   3  -2   1 1155.98   37.30
   3  -2   1 1098.89   37.50
   3  -2   1 1138.39   37.30
   3  -2   1 1228.48   36.90
   3  -2   1 1134.19   37.40
  -4   2  -1  487.65   16.90
  -4   2  -1  497.95   16.50
  -4   2  -1  501.55   16.50
  -4   2  -1  498.35   17.00
  -4   2  -1  495.95   17.00
  -4   2  -1  491.15   16.60
  -4   2  -1  514.35   16.80
   4  -2   1  470.55   16.60
   4  -2   1  542.65   16.50
   4  -2   1  501.55   17.00
   4  -2   1  509.45   17.30
  -5   2  -1    2.50    1.00
  -5   2  -1    3.20    1.50
  -5   2  -1    3.60    0.90
  -5   2  -1    4.30    0.80
  -5   2  -1    3.60    1.40
  -5   2  -1    5.40    1.30
   5  -2   1    3.20    0.80
   5  -2   1    2.20    1.10
   5  -2   1    1.30    1.40
  -6   2  -1  144.09    6.40
  -6   2  -1  137.69    6.20
  -6   2  -1  149.59    5.30
  -6   2  -1  143.79    5.70
  -6   2  -1  151.28    6.00
   6  -2   1  152.78    6.20
   6  -2   1  152.28    6.70
   6  -2   1  144.59    5.30
  -7   2  -1    1.50    1.30
  -7   2  -1    0.70    2.00
  -7   2  -1    1.80    0.60
  -7   2  -1    1.10    1.70
   7  -2   1    3.50    1.70
   7  -2   1    3.00    1.40
  -8   2  -1   38.30    3.40
  -8   2  -1   38.30    3.80
  -8   2  -1   42.70    2.80
   8  -2   1   44.00    3.40
   8  -2   1   38.90    3.80
  -9   2  -1    4.90    2.10
  -9   2  -1   -2.90    2.10
   9  -2   1    0.70    1.90
   9  -2   1   -0.60    1.50
 -10   2  -1    2.60    2.20
 -10   2  -1    6.30    2.80
  10  -2   1    3.70    2.00
  10  -2   1   -0.40    2.30
  11   1  -1  196.08   10.00
 -11  -1   1  188.08    9.30
 -11  -1   1  209.38   10.10
  10   1  -1  109.69    6.50
  10   1  -1  106.39    5.90
 -10  -1   1  112.19    5.20
 -10  -1   1   95.49    6.00
   9   1  -1    2.90    1.90
   9   1  -1    3.10    1.30
  -9  -1   1    3.60    1.50
  -9  -1   1    6.30    2.30
  -9  -1   1    4.00    2.20
   8   1  -1   14.40    1.60
   8   1  -1    9.20    2.10
  -8  -1   1   15.90    1.90
  -8  -1   1    7.00    2.10
  -8  -1   1    8.40    2.20
   7   1  -1   17.60    1.60
   7   1  -1   17.70    1.50
   7   1  -1   18.70    2.40
   7   1  -1   16.00    1.40
  -7  -1   1   19.70    1.80
  -7  -1   1   16.90    2.30
  -7  -1   1   20.50    2.50
   6   1  -1   18.70    1.40
   6   1  -1   16.40    1.50
   6   1  -1   15.30    1.90
   6   1  -1   17.00    1.40
  -6  -1   1   13.70    1.90
  -6  -1   1   15.90    2.00
  -6  -1   1   17.70    1.60
   5   1  -1  139.69    5.00
   5   1  -1  145.39    5.90
   5   1  -1  144.09    5.20
   5   1  -1  137.89    5.10
   5   1  -1  138.79    5.10
  -5  -1   1  134.89    5.60
  -5  -1   1  129.79    5.70
  -5  -1   1  141.99    5.20
   4   1  -1  465.35   16.30
   4   1  -1  500.95   16.80
   4   1  -1  503.35   16.00
   4   1  -1  485.55   16.10
   4   1  -1  473.15   15.90
   4   1  -1  483.65   16.10
  -4  -1   1  493.25   16.40
  -4  -1   1  497.25   16.50
  -4  -1   1  496.75   16.00
  -4  -1   1  476.75   16.80
   3   1  -1   74.69    3.60
   3   1  -1   77.09    2.90
   3   1  -1   73.69    3.30
   3   1  -1   69.69    3.10
   3   1  -1   79.09    3.10
   3   1  -1   81.39    2.80
   3   1  -1   76.59    3.10
   3   1  -1   79.29    3.30
   3   1  -1   78.09    2.80
  -3  -1   1   75.09    2.90
  -3  -1   1   71.19    3.40
  -3  -1   1   78.79    3.20
  -3  -1   1   77.59    3.60
  -3  -1   1   77.09    3.40
   2   1  -1    5.40    1.20
   2   1  -1    4.60    0.90
   2   1  -1    8.20    0.70
   2   1  -1    6.60    0.60
   2   1  -1    5.30    0.90
   2   1  -1    7.00    1.20
   2   1  -1    6.00    0.70
   2   1  -1    7.00    1.00
   2   1  -1    7.50    0.80
  -2  -1   1    6.20    0.70
  -2  -1   1    6.60    1.00
  -2  -1   1    7.20    0.50
  -2  -1   1    5.40    1.00
  -2  -1   1    6.90    1.00
  -2  -1   1    7.30    0.90
   1   1  -1   25.40    1.60
   1   1  -1   25.00    1.20
   1   1  -1   24.50    1.40
   1   1  -1   25.10    1.20
   1   1  -1   25.40    1.10
   1   1  -1   25.90    1.50
   1   1  -1   23.20    1.60
  -1  -1   1   25.60    1.10
  -1  -1   1   26.00    1.80
  -1  -1   1   24.60    1.60
  -1  -1   1   27.30    1.20
  -1  -1   1   24.20    1.60
  -1  -1   1   23.60    1.20
  -1  -1   1   25.50    1.40
   0   1  -1  206.68    6.80
   0   1  -1  192.28    6.60
   0   1  -1  212.78    6.80
   0   1  -1  202.68    6.90
   0   1  -1  193.28    6.70
   0   1  -1  191.98    6.70
   0  -1   1  194.38    6.70
   0  -1   1  206.98    6.80
   0  -1   1  196.98    6.70
   0  -1   1  191.48    6.60
   0  -1   1  189.38    6.80
  -1   1  -1   80.99    3.10
  -1   1  -1   75.19    3.20
  -1   1  -1   82.59    3.10
  -1   1  -1   80.49    2.90
  -1   1  -1   74.69    3.10
  -1   1  -1   79.09    3.00
   1  -1   1   79.69    2.90
   1  -1   1   81.19    3.00
   1  -1   1   77.49    3.10
   1  -1   1   75.29    3.10
   1  -1   1   76.99    3.10
   1  -1   1   75.29    3.10
  -2   1  -1 1084.39   33.60
  -2   1  -1 1049.00   33.70
  -2   1  -1 1021.20   33.70
  -2   1  -1 1000.40   33.60
  -2   1  -1 1030.20   33.80
  -2   1  -1 1052.39   33.70
  -2   1  -1 1061.49   33.70
   2  -1   1 1114.09   33.50
   2  -1   1 1013.50   33.70
   2  -1   1 1091.09   33.70
   2  -1   1 1098.09   33.70
   2  -1   1  988.10   33.70
   2  -1   1  996.00   33.80
  -3   1  -1   85.39    3.30
  -3   1  -1   81.39    3.50
  -3   1  -1   82.89    3.50
  -3   1  -1   80.39    3.20
  -3   1  -1   86.49    3.00
  -3   1  -1   78.39    3.30
  -3   1  -1   80.99    3.40
   3  -1   1   84.79    3.40
   3  -1   1   76.59    3.40
   3  -1   1   79.79    3.40
   3  -1   1   81.49    3.10
   3  -1   1   78.59    3.40
   3  -1   1   80.19    3.60
   3  -1   1   85.79    3.30
  -4   1  -1   36.30    2.40
  -4   1  -1   41.80    2.10
  -4   1  -1   39.50    1.70
  -4   1  -1   37.20    2.10
  -4   1  -1   39.20    2.40
  -4   1  -1   36.50    2.20
   4  -1   1   42.40    2.10
   4  -1   1   42.80    1.80
   4  -1   1   39.60    2.20
   4  -1   1   35.90    2.60
  -5   1  -1  434.46   15.20
  -5   1  -1  450.85   14.30
  -5   1  -1  452.35   14.90
  -5   1  -1  439.96   14.80
  -5   1  -1  422.66   14.90
  -5   1  -1  415.66   15.00
   5  -1   1  455.25   15.10
   5  -1   1  445.86   14.80
   5  -1   1  449.26   14.30
   5  -1   1  428.26   15.40
  -6   1  -1 1134.29   37.10
  -6   1  -1 1158.48   37.80
  -6   1  -1 1185.78   37.20
  -6   1  -1 1128.29   37.50
  -6   1  -1 1146.49   37.40
  -6   1  -1 1130.39   36.50
   6  -1   1 1140.19   38.00
   6  -1   1 1159.28   37.30
   6  -1   1 1097.49   37.40
  -7   1  -1    5.60    1.90
  -7   1  -1    5.80    1.00
  -7   1  -1    5.40    1.70
  -7   1  -1    5.40    1.30
   7  -1   1    5.10    1.40
   7  -1   1    6.80    1.30
   7  -1   1    4.50    1.70
  -8   1  -1    9.60    1.50
  -8   1  -1    9.60    2.00
  -8   1  -1    8.10    2.40
   8  -1   1    7.20    1.60
   8  -1   1    7.70    1.70
   8  -1   1   11.10    2.30
  -9   1  -1   46.00    3.70
  -9   1  -1   53.59    4.30
   9  -1   1   56.19    4.70
   9  -1   1   53.99    3.70
 -10   1  -1   41.20    4.20
 -10   1  -1   38.00    3.60
  10  -1   1   34.10    4.10
  10  -1   1   31.00    3.20
 -11   1  -1   21.90    3.80
 -11   1  -1   23.40    3.20
  11  -1   1   19.70    3.70
  11   0  -1    1.90    2.20
 -11   0   1    3.70    2.10
 -11   0   1    2.90    2.50
  10   0  -1   49.99    4.70
 -10   0   1   52.49    3.70
 -10   0   1   43.90    4.30
   9   0  -1   67.89    4.20
   9   0  -1   63.49    4.20
   9   0  -1   64.99    5.10
  -9   0   1   63.39    4.60
  -9   0   1   71.09    4.00
   8   0  -1    5.80    2.10
   8   0  -1    4.60    1.60
   8   0  -1    4.90    1.30
  -8   0   1    6.50    2.20
  -8   0   1    5.20    1.50
   7   0  -1  423.06   13.80
   7   0  -1  419.06   13.90
   7   0  -1  402.16   14.30
   7   0  -1  416.96   15.00
  -7   0   1  427.06   15.20
  -7   0   1  438.36   14.70
   6   0  -1   50.19    2.60
   6   0  -1   54.09    2.40
   6   0  -1   52.79    3.20
   6   0  -1   53.19    2.30
  -6   0   1   47.00    3.30
  -6   0   1   53.79    2.80
  -6   0   1   50.99    3.30
   5   0  -1   35.70    1.80
   5   0  -1   32.60    1.80
   5   0  -1   31.30    1.80
   5   0  -1   36.50    1.80
   5   0  -1   35.60    2.40
  -5   0   1   28.30    2.40
  -5   0   1   31.90    2.00
  -5   0   1   35.70    2.50
   4   0  -1  389.76   13.00
   4   0  -1  372.36   12.30
   4   0  -1  361.86   12.30
   4   0  -1  368.76   12.40
   4   0  -1  380.56   12.60
   4   0  -1  378.16   12.90
  -4   0   1  378.46   12.90
  -4   0   1  366.16   12.90
  -4   0   1  375.36   12.60
  -4   0   1  374.06   12.50
   3   0  -1 1339.37   44.30
   3   0  -1 1391.26   44.30
   3   0  -1 1379.06   44.30
   3   0  -1 1405.96   44.40
   3   0  -1 1384.56   44.00
   3   0  -1 1375.66   44.20
   3   0  -1 1409.66   44.00
   3   0  -1 1391.76   43.80
   3   0  -1 1319.37   43.80
  -3   0   1 1334.97   44.00
  -3   0   1 1391.66   44.30
  -3   0   1 1391.96   44.30
  -3   0   1 1343.27   44.00
   2   0  -1    2.90    0.30
   2   0  -1    3.50    0.70
   2   0  -1    3.00    0.70
   2   0  -1    3.10    0.80
   2   0  -1    3.00    0.80
   2   0  -1    2.90    0.80
   2   0  -1    2.30    0.80
   2   0  -1    3.00    0.70
   2   0  -1    2.60    0.30
  -2   0   1    2.80    0.80
  -2   0   1    2.60    0.90
  -2   0   1    2.60    0.70
  -2   0   1    2.50    0.70
   1   0  -1 2190.28   67.69
   1   0  -1 2005.80   67.59
   1   0  -1 2209.88   67.59
   1   0  -1 2067.39   67.59
   1   0  -1 2137.29   67.49
   1   0  -1 2137.39   67.49
  -1   0   1 2126.39   67.59
  -1   0   1 2123.19   67.49
  -1   0   1 2168.28   67.59
  -1   0   1 2097.49   67.69
  -1   0   1 2181.08   67.49
  -1   0   1 2013.60   67.59
   0   0  -1   88.59    2.90
   0   0  -1   91.59    3.10
   0   0  -1   88.59    3.10
   0   0  -1   94.29    3.10
   0   0  -1   82.09    3.00
   0   0  -1   92.09    3.00
   0   0   1   91.09    3.00
  -1   0  -1   98.39    3.40
  -1   0  -1  100.79    3.50
  -1   0  -1   98.49    3.50
  -1   0  -1   99.29    3.50
   1   0   1  104.09    3.50
   1   0   1   98.59    3.50
   1   0   1   97.99    3.50
   1   0   1   94.69    3.40
   1   0   1  100.09    3.40
   1   0   1   97.39    3.50
   1   0   1   94.19    3.40
  -2   0  -1 1739.43   57.89
  -2   0  -1 1759.22   57.89
  -2   0  -1 1883.11   57.99
  -2   0  -1 1864.51   57.69
  -2   0  -1 1813.12   57.99
   2   0   1 1820.62   57.99
   2   0   1 1871.41   57.99
   2   0   1 1776.32   57.89
   2   0   1 1821.02   57.69
   2   0   1 1794.32   57.99
   2   0   1 1822.72   57.99
  -3   0  -1  287.97    9.40
  -3   0  -1  270.27    9.20
  -3   0  -1  276.17    9.30
  -3   0  -1  267.87    9.20
  -3   0  -1  277.97    9.30
  -3   0  -1  261.47    9.30
   3   0   1  270.47    9.30
   3   0   1  283.27    9.30
   3   0   1  273.97    9.30
   3   0   1  274.37    9.30
   3   0   1  264.87    9.30
  -4   0  -1 1076.19   33.60
  -4   0  -1 1040.50   33.60
  -4   0  -1 1035.00   33.30
  -4   0  -1  998.70   33.40
  -4   0  -1  980.00   33.40
   4   0   1 1027.70   33.60
   4   0   1 1045.90   33.50
   4   0   1 1022.70   33.50
   4   0   1  972.50   33.40
   4   0   1 1129.09   34.10
  -5   0  -1  305.47   10.60
  -5   0  -1  312.37   10.50
  -5   0  -1  304.07   10.90
  -5   0  -1  293.77   10.70
  -5   0  -1  313.37   11.00
   5   0   1  313.67   10.80
   5   0   1  312.67   10.70
  -6   0  -1    2.60    1.00
  -6   0  -1    3.00    1.40
  -6   0  -1    2.30    1.10
  -6   0  -1    3.40    0.80
  -6   0  -1    2.20    1.20
   6   0   1    2.50    1.10
   6   0   1    3.10    1.10
   6   0   1    3.50    1.40
  -7   0  -1  301.77   11.10
  -7   0  -1  316.67   10.70
  -7   0  -1  297.67   10.50
  -7   0  -1  304.27   11.50
   7   0   1  307.87   11.20
   7   0   1  312.47   11.80
   7   0   1  302.77   11.00
  -8   0  -1   -0.20    1.40
  -8   0  -1   -0.20    0.90
  -8   0  -1   -0.20    1.60
   8   0   1    2.00    1.60
   8   0   1    2.00    1.30
   8   0   1    1.30    1.30
  -9   0  -1    1.50    1.60
  -9   0  -1    1.40    0.90
  -9   0  -1    3.40    2.00
   9   0   1   -1.80    1.20
   9   0   1   -1.70    1.70
   9   0   1    0.80    1.40
 -10   0  -1  210.08    9.60
 -10   0  -1  211.28    8.80
  10   0   1  222.68    8.90
  10   0   1  212.98    9.80
 -11   0  -1   90.59    5.20
 -11   0  -1   80.19    5.80
  11   0   1   92.89    6.40
  11  -1  -1    8.60    3.00
 -11   1   1   10.50    3.10
 -11   1   1   14.10    2.60
  10  -1  -1   15.80    3.00
 -10   1   1   10.20    3.00
 -10   1   1   14.00    2.30
   9  -1  -1   99.79    6.00
  -9   1   1   84.19    4.80
  -9   1   1   86.69    5.50
   8  -1  -1  118.79    5.50
   8  -1  -1  118.99    6.60
   8  -1  -1  131.29    5.50
  -8   1   1  122.29    5.70
  -8   1   1  123.99    6.20
   7  -1  -1  461.15   16.10
   7  -1  -1  435.86   17.00
   7  -1  -1  444.86   15.20
   7  -1  -1  490.35   16.00
  -7   1   1  475.95   16.80
  -7   1   1  483.55   16.30
   6  -1  -1   10.40    1.00
   6  -1  -1   11.50    1.50
   6  -1  -1    8.20    2.00
   6  -1  -1   11.40    1.20
   6  -1  -1   10.60    1.40
  -6   1   1   10.80    2.00
  -6   1   1   12.50    1.30
  -6   1   1   13.00    1.80
   5  -1  -1  313.37   10.60
   5  -1  -1  303.37   11.70
   5  -1  -1  322.97   10.90
   5  -1  -1  317.77   10.70
   5  -1  -1  320.47   11.10
   5  -1  -1  307.87   11.20
  -5   1   1  329.47   10.80
  -5   1   1  315.17   11.50
  -5   1   1  329.57   11.20
   4  -1  -1  570.24   18.10
   4  -1  -1  535.95   17.90
   4  -1  -1  537.05   17.90
   4  -1  -1  553.04   17.90
   4  -1  -1  545.55   17.90
   4  -1  -1  542.65   18.60
   4  -1  -1  560.54   18.20
  -4   1   1  563.64   18.50
  -4   1   1  558.84   18.00
  -4   1   1  565.84   17.50
  -4   1   1  473.15   17.50
  -4   1   1  550.04   18.20
   3  -1  -1   13.60    1.10
   3  -1  -1   10.90    1.30
   3  -1  -1   13.00    1.20
   3  -1  -1   14.80    1.10
   3  -1  -1   10.70    1.40
   3  -1  -1   13.50    1.10
   3  -1  -1   12.40    1.40
   3  -1  -1    9.80    1.00
   3  -1  -1   12.60    1.30
  -3   1   1   10.40    1.20
  -3   1   1   13.10    0.80
  -3   1   1   13.80    0.70
  -3   1   1   10.50    1.40
  -3   1   1   13.40    1.20
   2  -1  -1  953.80   30.00
   2  -1  -1  959.00   30.20
   2  -1  -1  977.50   30.10
   2  -1  -1  954.80   30.30
   2  -1  -1  909.81   30.10
   2  -1  -1  896.01   30.40
   2  -1  -1  930.21   29.90
   2  -1  -1  967.20   30.30
   2  -1  -1  912.91   30.10
  -2   1   1  922.01   30.20
  -2   1   1  932.11   29.80
  -2   1   1  949.80   30.30
  -2   1   1  906.11   30.10
  -2   1   1  939.91   29.80
   1  -1  -1   59.49    2.60
   1  -1  -1   64.49    2.20
   1  -1  -1   62.89    2.40
   1  -1  -1   65.79    2.50
   1  -1  -1   61.59    2.20
   1  -1  -1   66.19    2.40
   1  -1  -1   66.19    2.40
  -1   1   1   61.79    2.60
  -1   1   1   66.39    2.40
  -1   1   1   59.49    2.10
  -1   1   1   64.29    2.60
  -1   1   1   63.09    2.50
  -1   1   1   62.49    2.50
  -1   1   1   61.89    2.10
   0  -1  -1  113.59    3.70
   0  -1  -1  115.29    3.80
   0  -1  -1  108.09    3.80
   0  -1  -1  108.59    3.70
   0  -1  -1  106.69    3.60
   0  -1  -1  112.29    3.80
   0  -1  -1  108.29    3.80
   0  -1  -1  105.89    3.70
   0  -1  -1  110.79    3.80
   0   1   1  105.09    3.80
   0   1   1  107.49    3.70
   0   1   1  111.69    3.70
   0   1   1  124.39    3.80
   0   1   1  107.79    3.80
   0   1   1  114.89    3.90
  -1  -1  -1    4.00    0.80
  -1  -1  -1    3.60    0.90
  -1  -1  -1    3.60    0.70
  -1  -1  -1    4.60    0.80
  -1  -1  -1    3.00    0.80
  -1  -1  -1    2.30    0.70
   1   1   1    3.20    0.80
   1   1   1    3.20    0.80
   1   1   1    2.60    0.80
   1   1   1    4.60    1.00
   1   1   1    3.30    0.70
   1   1   1    3.30    0.70
  -2  -1  -1  623.64   20.60
  -2  -1  -1  614.54   20.40
  -2  -1  -1  621.34   20.60
  -2  -1  -1  640.24   20.70
  -2  -1  -1  657.23   20.80
  -2  -1  -1  645.24   20.70
  -2  -1  -1  602.24   20.60
   2   1   1  658.83   20.80
   2   1   1  631.34   20.40
   2   1   1  656.43   20.60
   2   1   1  668.33   20.70
   2   1   1  664.03   20.70
   2   1   1  620.94   20.60
  -3  -1  -1 1057.39   35.50
  -3  -1  -1 1130.29   35.50
  -3  -1  -1 1089.99   35.10
  -3  -1  -1 1073.69   35.60
  -3  -1  -1 1045.30   35.50
  -3  -1  -1 1076.49   35.40
  -3  -1  -1 1121.79   35.80
   3   1   1 1115.79   35.60
   3   1   1 1078.49   35.50
   3   1   1 1139.29   35.50
   3   1   1 1156.38   35.60
   3   1   1 1119.99   35.60
   3   1   1 1145.99   35.80
  -4  -1  -1  190.38    7.00
  -4  -1  -1  184.38    6.80
  -4  -1  -1  178.38    6.60
  -4  -1  -1  188.28    6.60
  -4  -1  -1  184.98    6.60
  -4  -1  -1  178.28    6.80
   4   1   1  190.48    6.70
   4   1   1  185.08    6.10
   4   1   1  190.78    6.80
   4   1   1  199.18    7.00
   4   1   1  178.98    6.80
   4   1   1  191.88    6.70
   4   1   1  197.18    6.80
  -5  -1  -1  124.19    5.10
  -5  -1  -1  112.89    5.00
  -5  -1  -1  125.99    4.70
  -5  -1  -1  123.89    5.20
  -5  -1  -1  121.79    4.60
  -5  -1  -1  123.69    4.70
   5   1   1  131.89    5.20
   5   1   1  124.19    4.80
  -6  -1  -1   66.69    2.90
  -6  -1  -1   69.99    3.60
  -6  -1  -1   68.39    3.20
  -6  -1  -1   69.59    3.10
  -6  -1  -1   62.69    3.50
   6   1   1   71.59    3.70
   6   1   1   67.69    3.20
  -7  -1  -1   12.90    2.00
  -7  -1  -1   15.30    1.50
  -7  -1  -1   11.20    2.00
  -7  -1  -1   15.40    1.70
  -7  -1  -1   15.60    1.40
   7   1   1   14.70    1.90
   7   1   1   17.00    1.80
  -8  -1  -1   29.40    2.40
  -8  -1  -1   28.70    2.90
  -8  -1  -1   20.90    2.70
  -8  -1  -1   31.10    2.00
   8   1   1   23.70    2.60
   8   1   1   28.20    2.40
  -9  -1  -1   56.79    3.30
  -9  -1  -1   48.00    4.20
  -9  -1  -1   55.39    2.60
   9   1   1   53.59    4.30
   9   1   1   52.29    3.40
   9   1   1   49.00    3.90
 -10  -1  -1    0.00    1.30
 -10  -1  -1   -2.10    1.90
  10   1   1    1.10    1.50
  10   1   1   -0.60    2.00
  10   1   1    0.60    1.70
 -11  -1  -1    1.30    1.70
 -11  -1  -1    0.50    2.40
  11   1   1    0.80    2.30
 -12  -1  -1   12.80    3.30
  10  -2  -1    2.40    2.30
 -10   2   1    7.40    2.30
 -10   2   1    3.90    2.80
   9  -2  -1   -2.10    1.80
  -9   2   1    0.60    1.90
  -9   2   1   -0.50    2.20
   8  -2  -1   86.69    4.40
   8  -2  -1   80.39    5.50
  -8   2   1   83.69    5.20
  -8   2   1   92.89    4.80
   7  -2  -1   60.19    3.40
   7  -2  -1   64.69    4.40
   7  -2  -1   63.19    3.10
  -7   2   1   52.49    4.00
  -7   2   1   61.59    2.90
  -7   2   1   69.59    4.10
   6  -2  -1   51.09    3.70
   6  -2  -1   48.40    2.50
   6  -2  -1   49.00    2.80
   6  -2  -1   44.70    2.40
   6  -2  -1   49.50    2.90
  -6   2   1   50.19    3.50
  -6   2   1   47.60    3.20
  -6   2   1   53.29    2.60
  -6   2   1   51.19    1.90
   5  -2  -1  238.18    8.40
   5  -2  -1  229.28    8.30
   5  -2  -1  234.48    9.40
   5  -2  -1  240.28    8.60
   5  -2  -1  228.48    8.50
  -5   2   1  241.88    8.50
  -5   2   1  245.98    8.00
  -5   2   1  245.88    8.90
  -5   2   1  244.28    9.20
  -5   2   1  248.08    8.10
   4  -2  -1  106.29    4.30
   4  -2  -1  114.49    4.40
   4  -2  -1  112.49    4.20
   4  -2  -1  111.39    5.00
   4  -2  -1  110.79    4.30
   4  -2  -1  118.99    4.50
  -4   2   1  115.59    4.40
  -4   2   1  112.79    4.10
  -4   2   1  115.09    4.90
  -4   2   1  119.69    4.80
  -4   2   1  113.89    4.20
   3  -2  -1    5.80    0.90
   3  -2  -1    6.70    0.90
   3  -2  -1    5.00    0.60
   3  -2  -1    5.80    0.90
   3  -2  -1    5.00    0.90
   3  -2  -1    5.20    1.20
   3  -2  -1    5.30    0.90
  -3   2   1    7.40    0.90
  -3   2   1    5.40    1.20
  -3   2   1    6.10    0.70
  -3   2   1    5.80    1.30
  -3   2   1    5.10    1.00
   2  -2  -1  336.57   11.30
   2  -2  -1  324.57   11.10
   2  -2  -1  341.97   10.80
   2  -2  -1  324.87   11.60
   2  -2  -1  324.97   11.20
   2  -2  -1  328.07   11.20
   2  -2  -1  343.77   11.40
   2  -2  -1  353.26   11.00
   2  -2  -1  340.67   11.30
  -2   2   1  336.37   11.00
  -2   2   1  345.37   11.40
  -2   2   1  322.87   11.10
  -2   2   1  324.57   11.20
  -2   2   1  332.47   11.30
  -2   2   1  346.17   11.60
   1  -2  -1  702.83   22.50
   1  -2  -1  717.03   22.30
   1  -2  -1  665.43   22.40
   1  -2  -1  658.63   22.50
   1  -2  -1  692.23   22.40
   1  -2  -1  719.13   22.00
   1  -2  -1  741.73   22.10
   1  -2  -1  660.63   22.40
   1  -2  -1  704.33   22.30
  -1   2   1  646.24   22.30
  -1   2   1  692.73   22.10
  -1   2   1  730.23   22.40
  -1   2   1  701.13   22.50
  -1   2   1  660.13   22.20
  -1   2   1  651.13   22.40
  -1   2   1  682.23   22.50
   0  -2  -1   67.79    2.70
   0  -2  -1   63.99    2.50
   0  -2  -1   64.79    2.60
   0  -2  -1   64.39    2.50
   0  -2  -1   67.69    2.40
   0  -2  -1   64.99    2.70
   0  -2  -1   66.69    2.80
   0   2   1   66.79    2.40
   0   2   1   65.29    2.80
   0   2   1   64.79    2.60
   0   2   1   67.29    2.70
   0   2   1   65.79    2.60
   0   2   1   67.69    2.60
   0   2   1   67.89    2.70
  -1  -2  -1   35.60    1.80
  -1  -2  -1   34.80    1.40
  -1  -2  -1   33.20    1.70
  -1  -2  -1   35.70    1.70
  -1  -2  -1   36.80    1.80
  -1  -2  -1   34.20    1.70
  -1  -2  -1   33.80    1.40
  -1  -2  -1   38.20    1.70
   1   2   1   32.60    1.40
   1   2   1   35.90    1.70
   1   2   1   35.50    1.40
   1   2   1   35.70    1.90
   1   2   1   39.10    1.90
   1   2   1   37.00    1.70
   1   2   1   37.00    1.70
   1   2   1   36.40    1.70
  -2  -2  -1 1991.10   63.29
  -2  -2  -1 2008.70   63.29
  -2  -2  -1 1964.70   63.29
  -2  -2  -1 2053.79   63.59
  -2  -2  -1 2007.60   63.29
  -2  -2  -1 1960.00   63.39
   2   2   1 1910.31   63.29
   2   2   1 2024.60   63.29
   2   2   1 1879.21   63.29
   2   2   1 1996.90   63.29
   2   2   1 2038.60   63.29
   2   2   1 1927.01   63.19
   2   2   1 2020.80   63.59
  -3  -2  -1  266.57    9.20
  -3  -2  -1  266.07    9.10
  -3  -2  -1  259.07    9.10
  -3  -2  -1  267.17    9.20
  -3  -2  -1  280.97    9.10
  -3  -2  -1  268.37    8.80
  -3  -2  -1  291.87    9.60
  -3  -2  -1  269.07    9.20
   3   2   1  280.17    9.60
   3   2   1  262.87    9.20
   3   2   1  270.67    9.00
   3   2   1  273.57    9.20
   3   2   1  280.67    9.30
   3   2   1  254.57    9.10
   3   2   1  269.47    9.20
  -4  -2  -1   39.60    1.70
  -4  -2  -1   41.20    1.80
  -4  -2  -1   45.30    2.60
  -4  -2  -1   37.00    2.30
  -4  -2  -1   37.80    1.90
  -4  -2  -1   39.80    2.10
  -4  -2  -1   37.50    2.20
   4   2   1   41.40    2.60
   4   2   1   37.20    2.10
   4   2   1   40.80    2.10
   4   2   1   38.30    2.10
   4   2   1   40.20    1.80
   4   2   1   38.60    2.20
   4   2   1   36.80    2.20
   4   2   1   35.90    2.10
  -5  -2  -1  561.74   18.90
  -5  -2  -1  573.64   18.50
  -5  -2  -1  546.25   18.50
  -5  -2  -1  524.45   18.10
  -5  -2  -1  582.74   18.40
  -5  -2  -1  582.04   18.90
   5   2   1  551.34   18.10
   5   2   1  568.14   19.20
   5   2   1  572.94   18.60
  -6  -2  -1   46.60    3.00
  -6  -2  -1   49.50    2.30
  -6  -2  -1   48.00    2.30
  -6  -2  -1   46.80    2.90
  -6  -2  -1   49.30    2.40
   6   2   1   51.29    3.40
   6   2   1   45.20    1.90
   6   2   1   50.09    2.50
  -7  -2  -1  132.49    5.10
  -7  -2  -1  140.49    5.20
  -7  -2  -1  137.09    5.90
  -7  -2  -1  128.19    5.90
  -7  -2  -1  138.39    5.20
   7   2   1  140.09    5.50
   7   2   1  138.29    6.30
   7   2   1  133.69    4.60
  -8  -2  -1   48.40    2.40
  -8  -2  -1   53.59    3.60
  -8  -2  -1   52.99    2.60
  -8  -2  -1   51.59    2.80
  -8  -2  -1   46.20    3.40
   8   2   1   47.90    3.80
   8   2   1   50.59    3.10
  -9  -2  -1    0.20    0.80
  -9  -2  -1    2.10    1.20
  -9  -2  -1    1.10    2.00
  -9  -2  -1    0.90    1.80
   9   2   1    0.20    1.80
   9   2   1    0.00    1.20
 -10  -2  -1  109.09    5.90
 -10  -2  -1  105.69    5.90
 -10  -2  -1  106.49    4.80
  10   2   1   94.19    5.80
  10   2   1  111.19    5.30
 -11  -2  -1   16.00    2.90
 -11  -2  -1   14.30    2.00
  11   2   1   10.30    2.70
  11   2   1   14.20    3.00
  11   2   1   10.50    2.60
 -12  -2  -1    0.40    2.50
  12   2   1    2.60    2.40
  10  -3  -1   12.10    3.30
 -10   3   1   15.40    3.40
 -10   3   1   16.10    3.10
   9  -3  -1    2.00    2.40
  -9   3   1    5.50    2.40
  -9   3   1    4.80    2.80
   8  -3  -1    4.90    2.20
   8  -3  -1    7.30    1.80
  -8   3   1    5.90    2.40
  -8   3   1    6.00    2.10
   7  -3  -1    9.10    1.70
   7  -3  -1    8.10    2.20
  -7   3   1    9.20    2.50
  -7   3   1    8.10    1.30
  -7   3   1    9.80    2.20
   6  -3  -1   53.59    3.20
   6  -3  -1   54.09    2.30
   6  -3  -1   48.30    4.00
  -6   3   1   50.39    3.50
  -6   3   1   57.39    2.40
  -6   3   1   52.89    2.80
  -6   3   1   44.10    3.60
   5  -3  -1  733.13   23.20
   5  -3  -1  738.03   23.50
   5  -3  -1  748.53   24.90
   5  -3  -1  736.93   24.10
   5  -3  -1  704.23   23.90
  -5   3   1  723.73   24.50
  -5   3   1  683.43   24.30
  -5   3   1  711.03   23.60
  -5   3   1  730.33   23.80
  -5   3   1  700.23   23.50
   4  -3  -1  924.41   29.30
   4  -3  -1  889.91   28.70
   4  -3  -1  895.81   29.30
   4  -3  -1  851.61   29.90
  -4   3   1  884.11   28.90
  -4   3   1  898.31   29.20
  -4   3   1  897.01   29.70
  -4   3   1  887.81   29.50
  -4   3   1  899.31   29.00
   3  -3  -1   82.69    3.60
   3  -3  -1   87.39    4.10
   3  -3  -1   81.19    3.60
   3  -3  -1   88.79    3.00
  -3   3   1   79.79    3.50
  -3   3   1   88.89    3.70
  -3   3   1   85.59    3.90
  -3   3   1   78.89    3.30
  -3   3   1   85.89    3.80
   2  -3  -1   97.49    4.00
   2  -3  -1   98.19    3.90
   2  -3  -1   96.29    4.30
   2  -3  -1  101.99    3.90
   2  -3  -1   90.59    3.90
  -2   3   1   95.79    4.00
  -2   3   1   95.69    3.80
  -2   3   1   93.69    3.90
  -2   3   1   99.19    3.70
  -2   3   1   88.69    4.00
   1  -3  -1 2664.33   85.09
   1  -3  -1 2642.04   85.09
   1  -3  -1 2700.43   84.89
   1  -3  -1 2591.54   84.89
   1  -3  -1 2578.84   84.89
   1  -3  -1 2635.64   84.89
  -1   3   1 2684.83   84.89
  -1   3   1 2663.13   85.09
  -1   3   1 2662.33   84.79
  -1   3   1 2551.54   85.09
  -1   3   1 2696.03   84.89
  -1   3   1 2720.13   84.99
  -1   3   1 2768.82   84.99
   0  -3  -1    1.60    0.80
   0  -3  -1    1.00    0.80
   0  -3  -1    0.30    0.60
   0  -3  -1    0.60    0.70
   0  -3  -1   -0.20    0.80
   0  -3  -1    1.30    1.00
   0  -3  -1    0.50    0.70
   0  -3  -1    0.50    0.50
   0   3   1    0.80    0.90
   0   3   1    0.70    0.90
   0   3   1    0.30    0.70
   0   3   1    0.90    0.90
   0   3   1    0.80    0.60
   0   3   1    1.10    0.80
   0   3   1    0.80    0.90
  -1  -3  -1 1687.33   55.89
  -1  -3  -1 1724.33   56.19
  -1  -3  -1 1791.52   55.99
  -1  -3  -1 1700.13   55.79
  -1  -3  -1 1816.02   55.69
  -1  -3  -1 1791.92   55.89
  -1  -3  -1 1764.12   55.69
   1   3   1 1774.02   55.69
   1   3   1 1704.73   55.69
   1   3   1 1798.32   55.89
   1   3   1 1765.52   55.89
   1   3   1 1682.63   55.89
   1   3   1 1768.42   55.99
   1   3   1 1698.73   56.19
   1   3   1 1742.03   55.99
  -2  -3  -1 1295.17   41.90
  -2  -3  -1 1315.87   41.50
  -2  -3  -1 1267.27   42.00
  -2  -3  -1 1387.06   42.20
  -2  -3  -1 1346.07   41.80
  -2  -3  -1 1334.47   41.90
  -2  -3  -1 1348.57   42.20
  -2  -3  -1 1323.47   41.80
  -2  -3  -1 1315.07   41.90
   2   3   1 1306.87   41.50
   2   3   1 1259.67   41.90
   2   3   1 1327.87   42.20
   2   3   1 1171.08   42.00
   2   3   1 1305.57   41.80
   2   3   1 1254.77   41.80
   2   3   1 1305.37   41.90
   2   3   1 1287.27   41.90
  -3  -3  -1    7.10    1.00
  -3  -3  -1    6.80    1.00
  -3  -3  -1    7.90    1.30
  -3  -3  -1    9.20    1.00
  -3  -3  -1    7.50    1.00
  -3  -3  -1    6.60    1.10
  -3  -3  -1    5.40    1.00
   3   3   1    6.60    1.00
   3   3   1    6.30    0.90
   3   3   1    6.50    1.00
   3   3   1    7.90    0.90
   3   3   1    5.70    0.90
   3   3   1    6.70    1.30
   3   3   1    7.90    1.00
   3   3   1    6.90    1.10
  -4  -3  -1  429.46   14.10
  -4  -3  -1  431.26   13.60
  -4  -3  -1  425.76   14.20
  -4  -3  -1  428.06   14.80
  -4  -3  -1  403.96   14.20
  -4  -3  -1  418.56   14.30
  -4  -3  -1  410.66   14.20
  -4  -3  -1  390.86   14.10
   4   3   1  424.86   14.70
   4   3   1  417.76   14.30
   4   3   1  434.46   14.20
   4   3   1  414.86   14.20
   4   3   1  420.26   14.30
   4   3   1  451.75   14.20
   4   3   1  438.06   14.20
  -5  -3  -1   35.30    2.00
  -5  -3  -1   35.40    2.30
  -5  -3  -1   38.10    2.20
  -5  -3  -1   38.10    2.50
  -5  -3  -1   38.30    1.60
  -5  -3  -1   37.10    2.00
   5   3   1   39.10    2.20
   5   3   1   43.80    2.20
   5   3   1   37.30    2.80
  -6  -3  -1  385.66   13.20
  -6  -3  -1  370.06   13.60
  -6  -3  -1  392.76   13.10
  -6  -3  -1  402.96   13.30
  -6  -3  -1  373.76   13.80
  -6  -3  -1  395.26   12.90
   6   3   1  402.06   13.10
   6   3   1  404.36   13.50
   6   3   1  413.06   14.40
  -7  -3  -1   -1.20    1.30
  -7  -3  -1    0.90    0.90
  -7  -3  -1   -1.10    1.10
  -7  -3  -1    1.10    0.70
  -7  -3  -1    2.30    0.70
   7   3   1    2.00    0.70
   7   3   1    1.60    0.60
   7   3   1    0.70    1.00
   7   3   1    0.00    1.70
  -8  -3  -1  131.79    5.00
  -8  -3  -1  133.69    5.00
  -8  -3  -1  126.29    6.10
  -8  -3  -1  138.29    6.30
  -8  -3  -1  127.69    5.00
   8   3   1  134.59    5.60
   8   3   1  130.89    6.50
  -9  -3  -1   50.59    3.70
  -9  -3  -1   45.50    2.60
  -9  -3  -1   47.00    2.30
  -9  -3  -1   44.70    3.90
   9   3   1   49.30    4.30
   9   3   1   49.60    3.20
 -10  -3  -1    0.40    1.90
 -10  -3  -1    2.90    1.10
 -10  -3  -1    3.80    2.00
  10   3   1    2.80    1.50
  10   3   1    1.60    2.00
 -11  -3  -1   68.59    5.30
 -11  -3  -1   64.89    5.10
  11   3   1   59.39    4.90
  11   3   1   57.79    4.10
 -12  -3  -1  145.19    8.00
  12   3   1  163.68    8.50
   9  -4  -1    6.00    2.60
  -9   4   1    8.90    2.70
  -9   4   1   12.60    3.20
   8  -4  -1   25.40    2.80
   8  -4  -1   22.20    3.30
  -8   4   1   22.70    3.20
  -8   4   1   24.10    3.50
   7  -4  -1   96.79    5.10
   7  -4  -1  115.49    6.40
  -7   4   1  101.09    5.50
  -7   4   1  106.09    5.90
   6  -4  -1    2.20    1.30
   6  -4  -1    2.00    1.80
  -6   4   1    1.60    0.90
  -6   4   1    0.80    1.00
  -6   4   1   -0.90    1.60
  -6   4   1   -1.00    1.80
   5  -4  -1   40.40    2.90
   5  -4  -1   43.00    3.70
  -5   4   1   43.80    2.70
  -5   4   1   40.00    3.20
  -5   4   1   47.20    2.60
  -5   4   1   40.20    3.30
  -5   4   1   43.10    2.30
   4  -4  -1   69.69    4.00
   4  -4  -1   64.99    3.40
  -4   4   1   61.59    3.20
  -4   4   1   74.49    3.20
  -4   4   1   58.59    3.50
  -4   4   1   58.79    3.60
  -4   4   1   55.39    2.80
   3  -4  -1   46.50    3.20
   3  -4  -1   43.90    2.60
  -3   4   1   47.10    2.60
  -3   4   1   43.90    2.80
  -3   4   1   44.10    2.30
  -3   4   1   45.80    2.70
  -3   4   1   39.80    2.80
   2  -4  -1  163.78    6.60
   2  -4  -1  158.88    6.10
   2  -4  -1  150.18    6.30
  -2   4   1  161.48    6.30
  -2   4   1  160.48    6.00
  -2   4   1  167.38    6.50
  -2   4   1  170.98    6.30
  -2   4   1  159.38    6.20
  -2   4   1  165.08    6.10
   1  -4  -1  695.93   22.20
   1  -4  -1  688.43   22.60
   1  -4  -1  687.73   22.50
   1  -4  -1  669.63   22.30
   1  -4  -1  676.33   22.60
  -1   4   1  676.23   22.40
  -1   4   1  646.24   22.20
  -1   4   1  699.73   21.60
  -1   4   1  643.04   22.20
  -1   4   1  667.83   22.60
  -1   4   1  672.03   22.20
   0  -4  -1  111.59    4.40
   0  -4  -1  113.19    4.80
   0  -4  -1   99.49    4.40
   0  -4  -1  117.19    4.20
   0  -4  -1  119.59    4.30
   0  -4  -1  111.79    4.30
   0  -4  -1  108.89    4.70
   0  -4  -1  111.69    4.50
   0   4   1  108.59    4.60
   0   4   1  109.29    4.80
   0   4   1  111.19    4.40
   0   4   1  109.39    4.50
   0   4   1  109.59    4.30
   0   4   1  117.69    4.20
  -1  -4  -1 1080.19   34.10
  -1  -4  -1 1050.29   33.80
  -1  -4  -1 1017.50   33.60
  -1  -4  -1  992.10   33.30
  -1  -4  -1 1042.50   33.50
  -1  -4  -1 1031.00   33.60
  -1  -4  -1 1041.80   33.60
  -1  -4  -1 1046.90   33.40
   1   4   1 1052.19   33.80
   1   4   1 1018.80   33.60
   1   4   1 1035.40   33.30
   1   4   1 1020.90   33.50
   1   4   1 1038.80   33.60
   1   4   1 1052.19   33.60
   1   4   1 1015.00   34.00
  -2  -4  -1   29.00    1.90
  -2  -4  -1   30.10    2.30
  -2  -4  -1   29.20    2.00
  -2  -4  -1   29.60    2.10
  -2  -4  -1   31.40    1.70
  -2  -4  -1   32.30    1.40
  -2  -4  -1   26.30    1.80
  -2  -4  -1   27.30    1.70
   2   4   1   28.70    2.00
   2   4   1   29.60    1.70
   2   4   1   33.20    1.80
   2   4   1   29.80    2.00
   2   4   1   31.10    1.40
   2   4   1   28.30    2.30
   2   4   1   28.00    1.80
   2   4   1   32.00    2.30
  -3  -4  -1  617.64   21.60
  -3  -4  -1  661.13   21.70
  -3  -4  -1  678.73   22.30
  -3  -4  -1  671.13   21.90
  -3  -4  -1  668.33   21.80
  -3  -4  -1  660.93   22.10
  -3  -4  -1  630.04   21.70
   3   4   1  655.43   22.10
   3   4   1  696.83   22.30
   3   4   1  670.13   21.80
   3   4   1  642.94   21.90
   3   4   1  662.43   21.60
   3   4   1  687.53   21.70
   3   4   1  648.74   21.10
   3   4   1  678.23   21.80
  -4  -4  -1  458.95   15.30
  -4  -4  -1  449.56   15.20
  -4  -4  -1  489.25   15.30
  -4  -4  -1  443.56   15.50
  -4  -4  -1  445.96   15.50
  -4  -4  -1  455.85   15.40
  -4  -4  -1  446.96   15.30
   4   4   1  468.45   15.20
   4   4   1  457.95   15.40
   4   4   1  465.85   15.60
   4   4   1  441.56   15.90
   4   4   1  446.76   15.40
  -5  -4  -1  284.87   10.40
  -5  -4  -1  279.47   10.60
  -5  -4  -1  302.77   10.30
  -5  -4  -1  306.67   10.50
  -5  -4  -1  297.47   10.30
  -5  -4  -1  294.77   10.40
   5   4   1  311.47   10.50
   5   4   1  311.27   10.60
   5   4   1  289.47   11.10
  -6  -4  -1    0.20    0.80
  -6  -4  -1   -0.60    0.60
  -6  -4  -1    0.00    0.90
  -6  -4  -1   -1.80    0.90
  -6  -4  -1   -1.50    1.10
  -6  -4  -1    0.00    0.30
   6   4   1    0.60    1.40
   6   4   1    0.10    0.90
   6   4   1   -0.40    1.00
  -7  -4  -1   14.20    2.10
  -7  -4  -1   17.30    1.10
  -7  -4  -1   19.10    1.60
  -7  -4  -1   15.10    1.50
  -7  -4  -1   20.90    2.20
  -7  -4  -1   16.20    1.50
   7   4   1   17.10    1.70
   7   4   1   16.30    1.70
   7   4   1   13.10    2.30
  -8  -4  -1   38.20    1.90
  -8  -4  -1   40.40    3.20
  -8  -4  -1   35.20    3.10
  -8  -4  -1   40.30    2.30
  -8  -4  -1   38.20    2.10
   8   4   1   39.20    2.80
   8   4   1   39.50    3.80
   8   4   1   40.50    2.20
  -9  -4  -1   85.19    5.30
  -9  -4  -1   95.59    5.30
  -9  -4  -1   97.09    3.80
  -9  -4  -1   92.49    3.90
   9   4   1  100.89    6.10
   9   4   1  101.39    4.80
 -10  -4  -1    3.70    2.00
 -10  -4  -1    4.10    2.00
  10   4   1    3.20    2.30
  10   4   1    8.70    1.80
 -11  -4  -1    7.70    2.50
 -11  -4  -1    9.60    2.80
  11   4   1    4.50    1.80
  11   4   1    7.50    2.80
 -12  -4  -1   42.50    4.40
 -12  -4  -1   36.20    4.10
  12   4   1   29.00    4.20
   8  -5  -1  308.27   13.10
   8  -5  -1  302.37   12.40
  -8   5   1  284.87   12.30
  -8   5   1  309.07   12.80
   7  -5  -1   53.69    4.80
   7  -5  -1   46.50    3.70
  -7   5   1   44.20    4.00
  -7   5   1   46.80    4.30
   6  -5  -1    7.50    2.20
   6  -5  -1   11.60    2.10
  -6   5   1    8.10    2.30
  -6   5   1   10.80    2.50
  -6   5   1   10.50    1.40
  -6   5   1    8.60    1.50
   5  -5  -1   90.39    5.40
   5  -5  -1   95.99    4.80
  -5   5   1   86.59    4.90
  -5   5   1   90.49    4.40
  -5   5   1   92.99    4.20
  -5   5   1   92.59    5.00
   4  -5  -1   65.49    3.70
   4  -5  -1   59.39    4.00
  -4   5   1   62.89    3.40
  -4   5   1   63.69    3.80
  -4   5   1   64.59    3.60
  -4   5   1   59.79    3.80
   3  -5  -1    0.30    1.10
   3  -5  -1    2.30    1.50
  -3   5   1   -0.10    1.30
  -3   5   1    0.60    1.20
  -3   5   1   -0.30    1.10
  -3   5   1   -0.30    1.40
   2  -5  -1   49.20    3.20
   2  -5  -1   47.60    2.90
  -2   5   1   45.30    2.90
  -2   5   1   48.50    3.00
  -2   5   1   42.80    2.80
  -2   5   1   48.70    3.10
   1  -5  -1   53.29    2.90
   1  -5  -1   45.20    2.80
   1  -5  -1   54.39    3.30
  -1   5   1   50.09    3.20
  -1   5   1   48.30    2.80
  -1   5   1   51.79    2.00
  -1   5   1   50.29    3.00
  -1   5   1   51.49    2.90
   0  -5  -1   96.79    4.00
   0  -5  -1   89.59    4.10
   0  -5  -1   88.59    4.40
   0  -5  -1   95.19    3.90
   0  -5  -1   92.29    3.80
   0   5   1   92.49    4.20
   0   5   1   91.79    3.90
   0   5   1   96.59    3.80
   0   5   1   90.49    4.50
  -1  -5  -1   15.50    1.60
  -1  -5  -1   14.40    1.50
  -1  -5  -1   13.90    1.40
  -1  -5  -1   14.90    1.60
  -1  -5  -1   17.10    1.50
  -1  -5  -1   15.50    1.30
   1   5   1   15.70    2.00
   1   5   1   13.10    1.50
   1   5   1   17.50    1.70
   1   5   1   14.80    1.40
  -2  -5  -1  253.97    9.30
  -2  -5  -1  246.98    9.00
  -2  -5  -1  260.07    8.80
  -2  -5  -1  263.37    8.80
  -2  -5  -1  251.87    9.20
   2   5   1  246.38    9.10
   2   5   1  248.88    8.50
   2   5   1  258.37    9.60
   2   5   1  253.97    9.30
   2   5   1  255.17    8.80
   2   5   1  243.58    8.80
  -3  -5  -1  178.98    6.30
  -3  -5  -1  167.28    6.10
  -3  -5  -1  157.28    6.40
  -3  -5  -1  167.58    6.40
  -3  -5  -1  168.08    6.50
   3   5   1  174.38    5.60
   3   5   1  172.58    6.90
   3   5   1  166.38    6.40
   3   5   1  162.88    6.90
   3   5   1  160.88    6.10
   3   5   1  168.48    6.20
  -4  -5  -1  236.78    8.30
  -4  -5  -1  226.98    8.40
  -4  -5  -1  242.28    8.50
  -4  -5  -1  221.08    8.20
  -4  -5  -1  224.48    8.10
   4   5   1  216.18    8.20
   4   5   1  223.18    8.90
   4   5   1  230.58    8.00
   4   5   1  221.48    8.70
   4   5   1  230.88    8.30
  -5  -5  -1  690.73   23.40
  -5  -5  -1  703.43   23.80
  -5  -5  -1  691.63   23.50
  -5  -5  -1  669.73   23.40
  -5  -5  -1  742.83   23.70
  -5  -5  -1  731.13   23.50
   5   5   1  720.63   23.60
   5   5   1  739.63   24.00
   5   5   1  689.03   24.40
  -6  -5  -1   10.70    1.80
  -6  -5  -1   14.20    1.50
  -6  -5  -1   12.20    1.40
  -6  -5  -1   15.70    1.70
   6   5   1   16.10    2.40
   6   5   1   17.50    1.90
   6   5   1   12.10    1.70
  -7  -5  -1  494.35   16.70
  -7  -5  -1  487.15   17.40
  -7  -5  -1  489.65   16.70
  -7  -5  -1  520.15   17.20
   7   5   1  490.25   17.00
   7   5   1  495.65   17.10
   7   5   1  483.95   18.10
  -8  -5  -1   40.40    3.40
  -8  -5  -1   50.99    3.20
  -8  -5  -1   39.50    3.60
  -8  -5  -1   45.80    3.20
  -8  -5  -1   45.40    2.70
   8   5   1   48.20    2.90
   8   5   1   38.20    4.10
   8   5   1   41.30    2.90
  -9  -5  -1   18.00    2.60
  -9  -5  -1   15.00    2.50
  -9  -5  -1   19.80    1.80
   9   5   1   15.50    2.50
   9   5   1   17.10    2.10
   9   5   1   11.90    2.90
 -10  -5  -1   14.00    2.60
 -10  -5  -1   18.60    3.00
  10   5   1   16.10    2.30
  10   5   1    9.60    3.00
 -11  -5  -1   16.20    3.00
 -11  -5  -1   14.60    3.00
  11   5   1   14.70    3.50
  11   5   1   16.10    2.40
 -12  -5  -1    3.80    2.50
 -12  -5  -1    7.20    2.80
  12   5   1    1.90    3.00
   8  -6  -1   57.79    5.60
  -8   6   1   43.50    4.60
  -8   6   1   54.69    4.70
   7  -6  -1   95.89    6.50
   7  -6  -1   94.59    5.40
  -7   6   1   78.89    5.80
  -7   6   1   84.89    5.50
   6  -6  -1   14.00    2.40
   6  -6  -1   13.00    2.70
  -6   6   1   13.20    1.80
  -6   6   1   16.50    2.90
  -6   6   1   13.80    2.00
  -6   6   1   12.00    2.70
   5  -6  -1  115.79    5.80
   5  -6  -1  129.89    6.70
  -5   6   1  132.09    6.40
  -5   6   1  113.99    5.90
  -5   6   1  114.19    5.50
  -5   6   1  114.29    5.30
   4  -6  -1  430.56   15.60
   4  -6  -1  420.96   16.10
  -4   6   1  435.16   15.40
  -4   6   1  437.06   15.60
  -4   6   1  438.46   15.20
  -4   6   1  421.56   15.60
   3  -6  -1   16.80    2.10
   3  -6  -1   15.20    2.50
  -3   6   1   17.70    2.40
  -3   6   1   16.50    2.00
  -3   6   1   18.00    2.40
   2  -6  -1   95.89    5.40
   2  -6  -1  112.99    5.20
   2  -6  -1  112.39    5.10
  -2   6   1  105.29    4.90
  -2   6   1  105.69    5.00
  -2   6   1  104.19    5.20
  -2   6   1  113.59    5.50
   1  -6  -1  140.49    5.80
   1  -6  -1  148.49    6.30
   1  -6  -1  133.29    5.80
  -1   6   1  137.09    6.00
  -1   6   1  134.99    5.90
  -1   6   1  135.89    6.30
  -1   6   1  142.99    5.80
  -1   6   1  139.69    4.90
   0  -6  -1  175.88    7.00
   0  -6  -1  168.48    7.20
   0  -6  -1  181.18    6.80
   0  -6  -1  182.98    6.90
   0   6   1  176.38    7.50
   0   6   1  177.38    6.60
   0   6   1  184.58    6.80
   0   6   1  181.88    7.10
   0   6   1  179.98    6.20
  -1  -6  -1   66.39    3.30
  -1  -6  -1   67.29    3.50
  -1  -6  -1   65.89    3.00
  -1  -6  -1   68.69    3.20
  -1  -6  -1   69.59    3.80
   1   6   1   63.19    3.50
   1   6   1   71.89    3.50
   1   6   1   63.59    4.00
   1   6   1   78.19    3.30
  -2  -6  -1   54.49    3.30
  -2  -6  -1   61.29    2.90
  -2  -6  -1   61.99    3.60
  -2  -6  -1   58.99    3.20
  -2  -6  -1   61.69    3.00
   2   6   1   60.09    3.40
   2   6   1   58.89    2.90
   2   6   1   56.49    3.20
   2   6   1   57.39    3.70
   2   6   1   62.09    2.70
  -3  -6  -1   21.20    1.90
  -3  -6  -1   21.00    1.70
  -3  -6  -1   24.40    2.20
  -3  -6  -1   22.50    1.90
  -3  -6  -1   17.50    1.90
   3   6   1   24.90    2.70
   3   6   1   26.80    1.80
   3   6   1   21.90    2.20
   3   6   1   22.70    1.40
   3   6   1   23.40    1.70
   3   6   1   26.30    2.60
  -4  -6  -1  366.76   13.00
  -4  -6  -1  366.16   13.50
  -4  -6  -1  400.06   13.30
  -4  -6  -1  383.96   13.30
   4   6   1  370.76   13.90
   4   6   1  427.36   13.60
   4   6   1  374.06   13.40
   4   6   1  381.96   14.10
   4   6   1  372.26   12.30
  -5  -6  -1  111.09    4.90
  -5  -6  -1  104.49    4.50
  -5  -6  -1  110.19    4.70
  -5  -6  -1  103.29    4.90
  -5  -6  -1  112.29    4.60
   5   6   1  109.69    5.40
   5   6   1  109.79    4.90
   5   6   1  104.39    5.60
  -6  -6  -1   32.10    2.80
  -6  -6  -1   31.10    2.90
  -6  -6  -1   33.20    2.50
  -6  -6  -1   38.00    2.60
  -6  -6  -1   38.80    2.50
   6   6   1   32.90    3.20
   6   6   1   35.00    3.50
   6   6   1   32.90    2.60
  -7  -6  -1  524.75   17.50
  -7  -6  -1  496.65   18.10
  -7  -6  -1  516.75   17.70
   7   6   1  496.75   18.90
   7   6   1  496.55   18.00
   7   6   1  539.15   17.90
  -8  -6  -1  168.68    7.00
  -8  -6  -1  150.88    7.30
  -8  -6  -1  180.88    6.60
   8   6   1  163.48    8.20
   8   6   1  160.58    7.00
   8   6   1  164.58    7.00
  -9  -6  -1   43.00    2.60
  -9  -6  -1   34.70    3.50
  -9  -6  -1   38.30    3.30
   9   6   1   49.70    3.40
   9   6   1   33.10    4.10
   9   6   1   37.00    3.00
 -10  -6  -1   56.29    4.30
 -10  -6  -1   60.79    4.50
  10   6   1   67.49    4.20
  10   6   1   59.99    5.50
 -11  -6  -1    0.60    2.10
 -11  -6  -1   -0.80    2.30
  11   6   1   -2.80    2.90
  11   6   1    2.10    1.80
 -12  -6  -1   46.50    4.60
 -12  -6  -1   46.30    4.70
  12   6   1   30.90    4.60
   7  -7  -1   47.10    5.00
   7  -7  -1   45.70    4.20
  -7   7   1   48.90    4.70
   6  -7  -1   29.90    3.30
   6  -7  -1   28.10    4.00
  -6   7   1   33.90    3.80
   5  -7  -1  355.06   13.90
   5  -7  -1  327.87   13.00
   5  -7  -1  319.07   13.20
  -5   7   1  330.67   12.30
  -5   7   1  340.57   12.70
  -5   7   1  335.97   13.10
   4  -7  -1   37.70    3.70
   4  -7  -1   45.30    4.20
   4  -7  -1   44.20    3.70
  -4   7   1   45.50    3.30
  -4   7   1   42.90    3.70
  -4   7   1   41.20    3.60
   3  -7  -1   -0.20    1.80
   3  -7  -1   -0.50    1.40
   3  -7  -1   -0.10    1.40
  -3   7   1   -0.90    1.50
  -3   7   1    1.70    1.70
  -3   7   1   -0.50    1.80
   2  -7  -1  625.04   22.70
   2  -7  -1  639.74   22.30
   2  -7  -1  638.64   22.20
  -2   7   1  679.53   22.20
  -2   7   1  657.93   22.80
  -2   7   1  630.04   22.30
  -2   7   1  632.84   22.10
   1  -7  -1   88.89    5.10
   1  -7  -1   93.39    4.70
   1  -7  -1   93.49    4.80
   1  -7  -1  101.19    4.60
  -1   7   1  104.09    4.80
  -1   7   1   99.59    5.40
  -1   7   1   99.89    4.90
  -1   7   1   93.39    5.00
  -1   7   1  100.19    3.60
   0  -7  -1   46.60    2.80
   0  -7  -1   41.10    3.40
   0  -7  -1   38.50    3.10
   0  -7  -1   48.70    2.90
   0   7   1   40.80    3.60
   0   7   1   40.90    3.00
   0   7   1   44.10    2.50
   0   7   1   45.30    2.10
   0   7   1   42.00    3.00
  -1  -7  -1  894.51   31.20
  -1  -7  -1  909.91   31.10
  -1  -7  -1  928.61   30.60
  -1  -7  -1  963.40   30.70
   1   7   1  940.41   30.50
   1   7   1  893.41   31.00
   1   7   1  954.90   30.80
   1   7   1  937.31   30.40
   1   7   1  942.01   31.70
  -2  -7  -1   64.19    3.10
  -2  -7  -1   61.89    3.10
  -2  -7  -1   54.79    3.60
  -2  -7  -1   55.89    3.30
   2   7   1   62.09    3.70
   2   7   1   49.99    3.50
   2   7   1   61.99    4.10
   2   7   1   58.89    2.90
  -3  -7  -1   49.00    2.90
  -3  -7  -1   47.10    3.20
  -3  -7  -1   54.39    3.10
  -3  -7  -1   49.99    3.30
  -3  -7  -1   53.39    2.80
   3   7   1   51.19    3.70
   3   7   1   54.39    3.90
   3   7   1   50.39    2.40
   3   7   1   44.50    3.20
  -4  -7  -1    2.00    1.30
  -4  -7  -1    3.80    1.20
  -4  -7  -1    1.60    1.30
  -4  -7  -1    0.60    1.00
  -4  -7  -1    1.00    1.10
   4   7   1    1.60    1.40
   4   7   1    2.00    1.80
   4   7   1    1.40    1.70
   4   7   1    1.50    0.60
  -5  -7  -1   19.10    2.00
  -5  -7  -1   19.10    2.30
  -5  -7  -1   25.30    2.00
  -5  -7  -1   19.50    1.80
  -5  -7  -1   21.80    2.20
   5   7   1   19.90    2.70
   5   7   1   20.00    2.30
   5   7   1   20.70    2.80
  -6  -7  -1    1.50    1.10
  -6  -7  -1    1.70    1.30
  -6  -7  -1   -1.50    1.20
  -6  -7  -1    0.00    1.10
  -6  -7  -1    0.90    1.10
   6   7   1    0.00    1.80
   6   7   1   -1.70    1.50
   6   7   1    2.40    2.00
  -7  -7  -1   11.10    1.80
  -7  -7  -1    9.60    1.70
  -7  -7  -1   11.20    2.10
   7   7   1   11.20    2.20
   7   7   1   16.20    2.90
   7   7   1   10.10    2.30
  -8  -7  -1   26.10    2.60
  -8  -7  -1   24.50    2.20
  -8  -7  -1   19.60    2.70
   8   7   1   28.70    2.80
   8   7   1   23.40    2.70
   8   7   1   17.60    3.20
  -9  -7  -1   12.80    1.70
  -9  -7  -1    9.10    2.30
  -9  -7  -1   11.00    2.10
   9   7   1    7.00    1.90
   9   7   1    8.70    2.10
   9   7   1    8.20    3.10
 -10  -7  -1   21.20    3.20
 -10  -7  -1   21.20    2.80
  10   7   1   29.40    3.00
  10   7   1   16.10    3.70
 -11  -7  -1    0.30    2.30
 -11  -7  -1    4.30    2.30
  11   7   1   -1.70    3.00
  11   7   1    4.10    1.90
 -12  -7  -1   66.99    5.20
 -12  -7  -1   60.89    4.90
  12   7   1   63.69    6.50
   6  -8  -1    0.20    2.00
   6  -8  -1   -0.20    2.00
   6  -8  -1   -1.10    2.60
  -6   8   1    0.60    2.50
   5  -8  -1    0.40    2.30
   5  -8  -1    0.10    2.00
   5  -8  -1    1.30    1.80
  -5   8   1    3.50    1.90
  -5   8   1    1.30    1.70
  -5   8   1    0.30    2.20
   4  -8  -1   32.20    4.00
   4  -8  -1   31.70    3.40
   4  -8  -1   30.20    3.50
  -4   8   1   33.50    3.50
  -4   8   1   34.40    3.60
  -4   8   1   35.20    3.20
   3  -8  -1    5.90    2.30
   3  -8  -1    7.00    1.90
   3  -8  -1    7.50    2.10
  -3   8   1    7.60    2.20
  -3   8   1    6.60    2.00
  -3   8   1    7.90    2.40
   2  -8  -1    3.70    2.00
   2  -8  -1   10.10    2.00
   2  -8  -1    7.60    1.90
   2  -8  -1    4.90    1.70
  -2   8   1    8.00    2.30
  -2   8   1    6.50    2.30
  -2   8   1   10.70    2.30
  -2   8   1    8.10    2.00
   1  -8  -1  173.58    7.50
   1  -8  -1  166.78    7.70
   1  -8  -1  174.48    7.20
   1  -8  -1  170.68    7.20
  -1   8   1  170.88    7.20
  -1   8   1  180.78    8.30
  -1   8   1  173.28    7.60
  -1   8   1  168.28    7.80
   0  -8  -1   56.89    4.10
   0  -8  -1   48.20    3.50
   0  -8  -1   52.99    3.30
   0  -8  -1   49.50    3.20
   0   8   1   56.39    3.50
   0   8   1   48.60    4.40
   0   8   1   54.39    2.90
   0   8   1   54.39    4.20
   0   8   1   57.49    3.70
  -1  -8  -1  692.13   25.40
  -1  -8  -1  741.73   24.80
  -1  -8  -1  778.02   24.80
  -1  -8  -1  711.23   25.20
   1   8   1  706.23   24.30
   1   8   1  728.63   25.90
   1   8   1  747.73   24.80
   1   8   1  750.82   25.30
   1   8   1  775.12   24.70
  -2  -8  -1    5.10    1.30
  -2  -8  -1    4.20    1.60
  -2  -8  -1    4.40    1.40
  -2  -8  -1    5.60    1.60
   2   8   1    6.80    1.50
   2   8   1    5.10    1.80
   2   8   1    6.40    1.90
   2   8   1    3.80    2.10
  -3  -8  -1  131.59    6.30
  -3  -8  -1  121.99    6.20
  -3  -8  -1  146.29    5.90
  -3  -8  -1  144.89    5.70
  -3  -8  -1  127.89    6.10
   3   8   1  154.08    6.80
   3   8   1  139.89    7.00
   3   8   1  141.79    6.40
   3   8   1  144.29    5.40
  -4  -8  -1  288.07   10.00
  -4  -8  -1  270.47   10.30
  -4  -8  -1  265.97   10.80
  -4  -8  -1  275.27   10.80
  -4  -8  -1  291.57   10.60
   4   8   1  269.97    9.40
   4   8   1  290.97   11.30
   4   8   1  283.87   11.40
   4   8   1  274.67   10.80
  -5  -8  -1   78.99    4.30
  -5  -8  -1   79.59    3.80
  -5  -8  -1   81.49    4.20
  -5  -8  -1   82.69    3.70
  -5  -8  -1   82.29    4.60
   5   8   1   72.69    2.70
   5   8   1   77.09    5.20
   5   8   1   88.69    5.30
   5   8   1   80.59    4.50
  -6  -8  -1   25.50    2.90
  -6  -8  -1   25.90    2.60
  -6  -8  -1   27.20    2.30
  -6  -8  -1   29.40    2.90
  -6  -8  -1   30.20    2.40
   6   8   1   27.50    3.50
   6   8   1   27.80    3.30
   6   8   1   29.30    3.00
  -7  -8  -1    2.50    1.70
  -7  -8  -1    0.20    1.20
  -7  -8  -1    2.70    1.80
  -7  -8  -1    0.60    1.40
   7   8   1    4.30    2.50
   7   8   1    1.40    2.00
   7   8   1    2.60    1.90
  -8  -8  -1   65.89    4.40
  -8  -8  -1   63.49    3.80
  -8  -8  -1   62.89    3.80
   8   8   1   64.69    4.80
   8   8   1   59.29    5.30
   8   8   1   65.69    4.40
  -9  -8  -1   49.99    3.70
  -9  -8  -1   49.70    4.20
   9   8   1   49.20    5.40
   9   8   1   59.79    4.40
   9   8   1   54.89    4.00
 -10  -8  -1   94.29    5.30
 -10  -8  -1   99.69    6.10
  10   8   1   93.39    5.50
  10   8   1   95.99    7.20
 -11  -8  -1   28.70    3.80
 -11  -8  -1   37.50    3.80
  11   8   1   26.60    3.30
  11   8   1   31.10    4.90
 -12  -8  -1   80.79    5.70
 -12  -8  -1   68.99    5.10
  12   8   1   70.39    7.10
   5  -9  -1   96.49    7.00
   5  -9  -1   98.29    6.20
   5  -9  -1   92.19    5.80
  -5   9   1   94.89    6.00
   4  -9  -1    1.30    2.00
   4  -9  -1    3.30    2.30
   4  -9  -1    2.10    2.50
   4  -9  -1    1.70    1.90
  -4   9   1    4.40    2.50
  -4   9   1    5.20    2.20
  -4   9   1    6.00    2.30
   3  -9  -1   11.20    2.40
   3  -9  -1   10.80    2.30
   3  -9  -1   10.50    2.40
   3  -9  -1   10.40    2.70
  -3   9   1   11.70    2.40
  -3   9   1   12.00    2.80
  -3   9   1   10.90    2.60
   2  -9  -1   96.59    5.30
   2  -9  -1   81.49    4.90
   2  -9  -1   75.49    5.40
   2  -9  -1   92.89    5.00
  -2   9   1   86.69    5.10
  -2   9   1   98.69    6.20
  -2   9   1   86.89    5.50
  -2   9   1   93.49    5.10
   1  -9  -1   67.79    4.00
   1  -9  -1   59.99    4.00
   1  -9  -1   56.39    4.60
   1  -9  -1   61.39    4.40
  -1   9   1   69.79    4.30
  -1   9   1   56.69    4.30
  -1   9   1   68.49    5.30
  -1   9   1   67.49    4.70
   0  -9  -1   36.20    3.00
   0  -9  -1   34.40    3.50
   0  -9  -1   35.90    3.30
   0  -9  -1   43.40    3.10
   0   9   1   33.70    3.40
   0   9   1   42.10    4.50
   0   9   1   38.70    3.40
   0   9   1   45.10    4.20
  -1  -9  -1  371.66   15.40
  -1  -9  -1  439.26   15.00
  -1  -9  -1  425.56   15.10
  -1  -9  -1  435.06   15.90
   1   9   1  443.46   16.60
   1   9   1  406.16   15.50
   1   9   1  425.96   14.90
   1   9   1  434.06   15.00
  -2  -9  -1  415.76   15.80
  -2  -9  -1  425.56   16.10
  -2  -9  -1  437.06   15.40
  -2  -9  -1  425.76   15.10
   2   9   1  456.05   15.10
   2   9   1  453.75   15.80
   2   9   1  433.86   15.90
   2   9   1  422.26   16.60
  -3  -9  -1  132.39    5.80
  -3  -9  -1  129.19    6.20
  -3  -9  -1  119.09    6.30
  -3  -9  -1  125.89    6.30
  -3  -9  -1  134.19    5.50
   3   9   1  120.79    6.90
   3   9   1  129.79    6.40
   3   9   1  140.29    6.60
   3   9   1  133.99    5.30
  -4  -9  -1  463.45   16.30
  -4  -9  -1  437.06   16.40
  -4  -9  -1  441.86   15.80
  -4  -9  -1  482.45   17.00
  -4  -9  -1  437.56   16.70
   4   9   1  457.75   15.30
   4   9   1  448.46   16.70
   4   9   1  473.75   17.10
   4   9   1  486.55   17.70
  -5  -9  -1   24.40    2.60
  -5  -9  -1   26.60    3.00
  -5  -9  -1   28.10    2.80
  -5  -9  -1   24.70    2.20
  -5  -9  -1   26.60    2.10
   5   9   1   22.10    3.00
   5   9   1   25.50    3.50
   5   9   1   26.70    3.40
  -6  -9  -1  228.98    8.80
  -6  -9  -1  241.28    9.50
  -6  -9  -1  238.78    9.90
  -6  -9  -1  224.88    9.30
  -6  -9  -1  228.58    8.80
   6   9   1  236.88    9.90
   6   9   1  242.98   10.80
   6   9   1  241.88   10.50
  -7  -9  -1   97.79    4.50
  -7  -9  -1   90.69    5.10
  -7  -9  -1   81.29    5.30
  -7  -9  -1   94.19    4.90
  -7  -9  -1   77.99    4.20
   7   9   1   90.99    6.10
   7   9   1   89.99    5.30
   7   9   1   89.89    6.30
  -8  -9  -1   27.20    3.30
  -8  -9  -1   31.00    2.80
  -8  -9  -1   34.60    3.00
   8   9   1   27.90    3.70
   8   9   1   20.60    3.80
   8   9   1   27.70    3.20
  -9  -9  -1   65.39    4.00
  -9  -9  -1   71.79    5.00
  -9  -9  -1   62.99    4.10
   9   9   1   75.39    5.00
   9   9   1   66.69    6.20
   9   9   1   74.09    5.50
 -10  -9  -1    1.10    2.20
 -10  -9  -1    2.80    1.90
  10   9   1   -3.90    3.10
  10   9   1   -1.30    2.10
 -11  -9  -1    5.70    2.00
 -11  -9  -1    4.40    2.50
  11   9   1    6.90    2.50
  11   9   1   -0.50    3.30
   3 -10  -1    0.70    2.00
   3 -10  -1   -2.50    1.60
   3 -10  -1   -3.50    1.70
  -3  10   1   -0.60    2.50
  -3  10   1    2.50    2.30
  -3  10   1   -0.10    2.20
   2 -10  -1   23.00    2.90
   2 -10  -1   30.80    3.60
   2 -10  -1   23.20    3.50
   2 -10  -1   31.90    4.60
  -2  10   1   30.00    3.60
  -2  10   1   25.90    3.60
  -2  10   1   31.30    4.10
  -2  10   1   26.30    3.30
   1 -10  -1   68.99    4.70
   1 -10  -1   54.59    3.90
   1 -10  -1   58.29    4.80
   1 -10  -1   52.29    3.90
  -1  10   1   66.29    4.60
  -1  10   1   58.89    4.60
  -1  10   1   61.89    5.50
  -1  10   1   57.09    4.70
   0 -10  -1    0.40    1.70
   0 -10  -1   -0.20    1.80
   0 -10  -1   -0.30    1.30
   0 -10  -1    2.10    1.50
   0  10   1    3.70    2.60
   0  10   1    3.40    2.10
   0  10   1    1.90    2.40
   0  10   1   -2.50    1.80
  -1 -10  -1    1.20    1.30
  -1 -10  -1   -1.10    1.20
  -1 -10  -1    0.60    1.60
  -1 -10  -1   -0.70    1.50
   1  10   1    0.60    2.10
   1  10   1   -2.00    2.00
   1  10   1    2.50    1.80
   1  10   1    1.70    2.30
  -2 -10  -1    1.20    1.40
  -2 -10  -1    0.60    1.10
  -2 -10  -1    0.90    1.80
  -2 -10  -1    1.30    1.70
   2  10   1    4.60    1.60
   2  10   1   -2.40    2.00
   2  10   1    1.80    2.40
   2  10   1    0.50    1.80
  -3 -10  -1   30.50    2.80
  -3 -10  -1   32.80    3.50
  -3 -10  -1   27.70    3.00
  -3 -10  -1   32.60    2.50
  -3 -10  -1   30.80    3.40
   3  10   1   31.00    2.50
   3  10   1   26.30    3.70
   3  10   1   28.20    3.30
   3  10   1   31.70    3.50
  -4 -10  -1    0.00    1.60
  -4 -10  -1    0.00    1.30
  -4 -10  -1    0.20    1.60
  -4 -10  -1    1.20    1.70
  -4 -10  -1    0.40    1.10
   4  10   1   -0.40    2.00
   4  10   1    2.00    2.40
   4  10   1    0.60    1.80
  -5 -10  -1   34.30    2.30
  -5 -10  -1   31.70    3.10
  -5 -10  -1   33.60    2.50
  -5 -10  -1   25.90    3.20
  -5 -10  -1   34.90    3.30
   5  10   1   33.30    3.60
   5  10   1   28.10    3.80
   5  10   1   27.80    3.80
  -6 -10  -1    1.30    1.10
  -6 -10  -1    2.90    1.60
  -6 -10  -1    0.90    1.10
  -6 -10  -1    2.00    1.90
  -6 -10  -1    1.40    1.70
   6  10   1   -0.30    2.60
   6  10   1    1.10    2.10
   6  10   1    0.20    2.40
  -7 -10  -1   13.10    2.70
  -7 -10  -1    9.90    2.10
  -7 -10  -1   10.70    1.70
  -7 -10  -1    8.40    1.60
  -7 -10  -1   11.90    2.30
   7  10   1    5.90    2.90
   7  10   1    6.90    2.50
   7  10   1    8.30    3.20
  -8 -10  -1   39.70    3.40
  -8 -10  -1   32.10    3.70
  -8 -10  -1   32.30    2.70
  -8 -10  -1   41.10    3.90
   8  10   1   30.60    4.50
   8  10   1   37.10    4.00
   8  10   1   28.60    3.90
  -9 -10  -1   23.60    2.70
  -9 -10  -1   29.50    3.70
  -9 -10  -1   31.40    2.90
   9  10   1   27.30    3.50
   9  10   1   17.70    4.10
   9  10   1   27.10    3.70
 -10 -10  -1   21.10    3.40
 -10 -10  -1   26.50    4.40
  10  10   1   22.60    3.40
  10  10   1   19.60    3.60
  10  10   1   20.90    4.50
 -11 -10  -1    3.90    2.60
  11  10   1    2.70    4.00
   2 -11  -1   24.70    3.80
   2 -11  -1   32.90    3.80
  -2  11   1   24.80    3.40
  -2  11   1   15.50    3.10
  -2  11   1   23.00    3.70
   1 -11  -1    8.50    2.50
   1 -11  -1   10.20    2.70
   1 -11  -1    6.30    2.60
  -1  11   1   11.50    3.00
  -1  11   1    7.90    3.20
  -1  11   1    9.80    2.80
  -1  11   1   13.10    2.80
   0 -11  -1   11.90    2.50
   0 -11  -1    5.70    2.30
   0 -11  -1    9.80    2.20
   0  11   1   10.70    3.20
   0  11   1   12.30    2.50
   0  11   1    2.60    2.60
   0  11   1    9.00    2.90
  -1 -11  -1    2.20    1.90
  -1 -11  -1    5.90    2.30
  -1 -11  -1    1.90    1.60
   1  11   1    1.90    2.80
   1  11   1    3.60    2.80
   1  11   1    6.10    2.10
   1  11   1    5.30    2.50
  -2 -11  -1    0.40    2.00
  -2 -11  -1    4.60    2.00
  -2 -11  -1    3.20    2.40
  -2 -11  -1    4.90    1.90
   2  11   1    2.80    2.60
   2  11   1    2.90    1.80
   2  11   1    5.40    2.80
   2  11   1    3.00    2.50
  -3 -11  -1   11.00    2.30
  -3 -11  -1   13.10    2.70
  -3 -11  -1   12.20    2.10
  -3 -11  -1   10.70    2.50
   3  11   1   11.60    2.80
   3  11   1    8.80    2.50
   3  11   1    6.30    2.90
  -4 -11  -1    8.10    2.30
  -4 -11  -1   12.50    2.70
  -4 -11  -1   12.70    2.50
  -4 -11  -1    9.60    2.00
   4  11   1   10.40    2.70
   4  11   1    9.80    3.20
   4  11   1    6.40    2.70
  -5 -11  -1   40.70    3.90
  -5 -11  -1   38.80    3.80
  -5 -11  -1   39.10    3.50
   5  11   1   38.30    4.50
   5  11   1   34.90    4.20
   5  11   1   46.00    4.40
  -6 -11  -1   16.60    2.80
  -6 -11  -1   13.50    2.30
  -6 -11  -1   19.10    3.10
   6  11   1   16.60    3.70
   6  11   1   14.30    3.50
   6  11   1   18.40    3.40
  -7 -11  -1  190.18    8.60
  -7 -11  -1  200.48    8.60
  -7 -11  -1  182.48    9.00
   7  11   1  195.98    9.10
   7  11   1  175.88    9.90
   7  11   1  198.48    9.90
  -8 -11  -1   13.80    2.90
  -8 -11  -1   14.30    2.70
  -8 -11  -1   17.10    2.60
   8  11   1    5.60    3.50
   8  11   1   12.90    3.00
   8  11   1   12.10    3.40
  -9 -11  -1   51.89    4.80
  -9 -11  -1   47.20    4.10
   9  11   1   56.09    5.70
   9  11   1   41.00    5.60
   9  11   1   57.49    5.20
 -10 -11  -1   77.49    6.20
  10  11   1   80.39    6.50
  10  11   1   96.99    6.00
  10  11   1   63.39    7.00
   0 -12  -1    5.90    2.60
   0  12   1   10.30    2.60
   0  12   1   13.00    3.60
  -1 -12  -1  324.37   14.10
  -1 -12  -1  341.87   14.10
   1  12   1  347.87   14.10
   1  12   1  343.57   14.40
   1  12   1  355.76   15.10
  -2 -12  -1   29.20    3.80
  -2 -12  -1   25.50    3.60
  -2 -12  -1   26.90    3.50
   2  12   1   24.70    4.10
   2  12   1   18.20    3.30
   2  12   1   23.50    4.10
  -3 -12  -1   11.30    2.70
  -3 -12  -1   10.70    2.50
  -3 -12  -1    6.90    2.60
   3  12   1   10.00    2.90
   3  12   1   12.30    3.50
   3  12   1    5.90    3.20
  -4 -12  -1   -0.30    2.10
  -4 -12  -1    1.80    2.00
  -4 -12  -1    2.50    2.20
   4  12   1   -1.30    2.60
   4  12   1    1.00    2.90
   4  12   1   -0.50    2.60
  -5 -12  -1   82.69    5.70
  -5 -12  -1   82.99    5.70
   5  12   1   95.79    6.10
   5  12   1   80.09    6.60
   5  12   1   78.49    6.30
  -6 -12  -1    0.60    2.10
  -6 -12  -1    1.20    2.10
   6  12   1    3.40    2.90
   6  12   1    1.00    3.10
   6  12   1   -0.50    3.00
  -7 -12  -1   22.20    3.20
  -7 -12  -1   20.70    3.50
   7  12   1   14.90    3.90
   7  12   1   21.10    3.70
   7  12   1   13.60    3.90
  -8 -12  -1   11.10    2.80
  -8 -12  -1    7.50    2.50
   8  12   1    3.50    3.80
   8  12   1    6.70    2.90
   8  12   1    4.30    3.20
   7  11  -2  178.78   10.50
  -7 -11   2  183.38    9.10
   6  11  -2   25.40    4.80
   6  11  -2   16.20    4.10
   6  11  -2   24.00    3.90
  -6 -11   2   34.10    3.40
  -6 -11   2   32.10    4.10
  -6 -11   2   35.00    4.30
   5  11  -2   32.20    5.10
   5  11  -2   23.80    4.40
   5  11  -2   36.60    4.20
  -5 -11   2   32.90    4.00
  -5 -11   2   37.60    4.10
  -5 -11   2   38.90    3.70
   4  11  -2   50.69    4.80
   4  11  -2   35.10    4.50
   4  11  -2   38.00    5.30
  -4 -11   2   38.90    4.20
  -4 -11   2   38.30    4.10
  -4 -11   2   32.50    3.60
   3  11  -2   10.30    3.30
   3  11  -2   14.20    3.30
   3  11  -2    9.30    3.70
  -3 -11   2   11.60    2.70
  -3 -11   2   11.50    2.60
  -3 -11   2   15.30    2.90
  -3 -11   2   12.00    2.70
   2  11  -2    6.30    3.10
   2  11  -2    8.00    3.90
  -2 -11   2    2.70    2.30
  -2 -11   2    8.30    2.40
  -2 -11   2    9.10    2.60
  -2 -11   2    8.50    2.70
   1  11  -2  149.79    8.40
   1  11  -2  147.49    9.00
  -1 -11   2  157.58    7.90
  -1 -11   2  153.18    7.80
  -1 -11   2  148.39    7.70
  -1 -11   2  156.78    8.20
   8  10  -2   22.30    5.10
   8  10  -2   21.00    4.30
   8  10  -2   27.80    3.70
  -8 -10   2   23.50    3.60
  -8 -10   2   33.50    4.20
   7  10  -2   69.49    5.30
   7  10  -2   64.69    7.20
   7  10  -2   65.19    6.70
  -7 -10   2   72.09    5.40
  -7 -10   2   75.69    4.40
  -7 -10   2   76.19    5.40
   6  10  -2   65.39    6.30
   6  10  -2   69.29    6.40
   6  10  -2   76.39    5.30
  -6 -10   2   63.49    5.00
  -6 -10   2   72.19    4.50
  -6 -10   2   64.49    5.10
   5  10  -2   62.29    6.20
   5  10  -2   73.09    5.10
   5  10  -2   67.89    6.40
  -5 -10   2   58.49    4.80
  -5 -10   2   66.69    5.10
  -5 -10   2   63.29    4.40
   4  10  -2   94.19    5.90
   4  10  -2   85.19    6.40
   4  10  -2   85.49    6.80
  -4 -10   2   89.69    5.70
  -4 -10   2  100.89    6.00
  -4 -10   2   98.49    5.50
   3  10  -2    9.60    3.40
   3  10  -2    9.20    3.10
   3  10  -2   12.80    3.20
  -3 -10   2   13.10    2.70
  -3 -10   2   14.60    2.90
  -3 -10   2   15.90    2.80
  -3 -10   2   13.80    2.70
   2  10  -2   -1.10    2.50
   2  10  -2    0.60    2.80
   2  10  -2   -2.80    2.20
  -2 -10   2    0.10    1.80
  -2 -10   2    2.40    2.00
  -2 -10   2   -0.10    1.80
  -2 -10   2   -1.40    1.90
   1  10  -2  116.29    5.50
   1  10  -2   93.89    7.00
  -1 -10   2  103.29    6.00
  -1 -10   2   97.49    5.80
  -1 -10   2   99.39    5.90
  -1 -10   2   95.29    6.10
   0  10  -2  159.48    9.00
   0  10  -2  175.58    7.70
   0  10  -2  167.98    8.60
   0 -10   2  153.48    7.90
   0 -10   2  169.18    8.40
   0 -10   2  170.98    8.10
  -1  10  -2  101.99    6.90
  -1  10  -2  108.39    5.90
  -1  10  -2   98.39    6.50
   1 -10   2   94.49    6.30
   1 -10   2   95.39    6.00
   1 -10   2   95.79    6.00
  -2  10  -2   15.00    3.40
  -2  10  -2   21.10    3.80
  -2  10  -2   21.90    3.80
  -2  10  -2   27.60    3.60
   2 -10   2   29.80    3.60
   2 -10   2   22.20    3.20
   2 -10   2   27.50    3.50
   9   9  -2    1.00    3.50
   9   9  -2    8.70    2.60
   9   9  -2    3.60    3.20
  -9  -9   2    5.00    2.80
  -9  -9   2    4.40    2.60
   8   9  -2    4.30    3.40
   8   9  -2    5.50    2.40
   8   9  -2    0.70    3.00
  -8  -9   2    4.50    2.30
  -8  -9   2    9.00    2.70
   7   9  -2   20.10    3.10
   7   9  -2    9.80    3.60
   7   9  -2   11.50    3.50
  -7  -9   2   19.30    2.90
  -7  -9   2   19.50    2.20
  -7  -9   2   18.40    3.00
   6   9  -2   -0.10    3.10
   6   9  -2   -0.10    2.80
   6   9  -2    2.60    2.30
  -6  -9   2    0.90    1.80
  -6  -9   2   -2.10    1.40
  -6  -9   2    1.10    1.90
   5   9  -2    3.40    3.00
   5   9  -2    0.80    2.20
   5   9  -2    0.50    3.00
  -5  -9   2    3.40    2.00
  -5  -9   2    2.20    1.60
  -5  -9   2    1.90    2.00
   4   9  -2   -1.90    2.30
   4   9  -2   -2.20    2.10
   4   9  -2    1.90    2.70
  -4  -9   2    1.80    1.90
  -4  -9   2   -1.90    1.50
  -4  -9   2   -0.30    1.60
   3   9  -2    4.70    2.70
   3   9  -2    8.50    2.70
   3   9  -2    3.40    2.90
   3   9  -2    8.90    1.70
  -3  -9   2    8.70    2.30
  -3  -9   2    8.50    2.20
  -3  -9   2    6.80    2.00
  -3  -9   2    4.90    2.00
   2   9  -2   27.00    4.10
   2   9  -2   34.40    3.70
   2   9  -2   24.90    3.30
   2   9  -2   31.50    2.80
  -2  -9   2   31.50    3.20
  -2  -9   2   30.30    3.40
  -2  -9   2   32.00    3.40
  -2  -9   2   24.00    3.00
   1   9  -2    2.40    1.80
   1   9  -2    6.40    2.40
   1   9  -2   -0.40    2.60
   1   9  -2    1.20    2.10
  -1  -9   2    4.50    2.10
  -1  -9   2    2.30    1.80
  -1  -9   2    3.60    1.90
  -1  -9   2    6.00    1.90
   0   9  -2    6.10    3.00
   0   9  -2    7.40    2.50
   0   9  -2   11.60    2.30
   0  -9   2   15.20    2.60
   0  -9   2   15.10    2.70
   0  -9   2    9.80    2.40
  -1   9  -2   98.99    6.80
  -1   9  -2  100.39    5.60
  -1   9  -2   95.39    6.10
   1  -9   2   97.39    5.70
   1  -9   2   99.29    6.00
   1  -9   2   99.39    5.80
  -2   9  -2    8.40    2.90
  -2   9  -2    6.80    2.60
  -2   9  -2    5.20    2.90
   2  -9   2    7.30    2.30
   2  -9   2    7.60    2.30
   2  -9   2    6.60    2.20
  -3   9  -2    0.70    2.50
  -3   9  -2    7.60    2.80
  -3   9  -2   -3.30    2.30
  -3   9  -2    0.80    2.50
   3  -9   2   -0.70    1.90
   3  -9   2    1.60    2.00
   3  -9   2    1.30    2.00
  -4   9  -2   42.00    4.60
  -4   9  -2   43.30    4.30
   4  -9   2   31.50    4.00
   4  -9   2   37.50    4.10
   4  -9   2   33.30    4.20
  10   8  -2    4.50    3.70
 -10  -8   2    2.70    2.50
   9   8  -2   38.10    4.50
   9   8  -2   25.60    4.80
   9   8  -2   41.10    3.90
  -9  -8   2   35.10    4.00
   8   8  -2   27.90    4.00
   8   8  -2   24.90    4.40
   8   8  -2   29.20    3.30
  -8  -8   2   25.70    3.40
  -8  -8   2   35.40    4.10
   7   8  -2  129.19    6.60
   7   8  -2  129.79    8.10
   7   8  -2  132.79    7.90
  -7  -8   2  115.79    6.50
  -7  -8   2  138.19    5.40
  -7  -8   2  124.89    6.90
   6   8  -2   61.09    4.50
   6   8  -2   56.59    5.50
   6   8  -2   65.09    5.50
  -6  -8   2   65.89    3.70
  -6  -8   2   59.19    4.60
  -6  -8   2   63.49    4.30
   5   8  -2   94.39    6.90
   5   8  -2   96.19    6.50
   5   8  -2  108.09    5.80
  -5  -8   2  109.39    5.70
  -5  -8   2   97.29    5.70
  -5  -8   2  107.79    5.10
   4   8  -2  301.67   11.70
   4   8  -2  277.77   12.50
   4   8  -2  278.17   10.10
   4   8  -2  306.07   12.50
  -4  -8   2  299.67   11.70
  -4  -8   2  286.57   11.60
  -4  -8   2  299.87   11.10
   3   8  -2  160.98    8.00
   3   8  -2  153.98    8.20
   3   8  -2  150.38    7.10
   3   8  -2  149.19    6.10
  -3  -8   2  157.28    7.20
  -3  -8   2  150.38    7.10
  -3  -8   2  158.08    7.30
  -3  -8   2  152.18    6.80
   2   8  -2  134.39    5.70
   2   8  -2  138.79    6.70
   2   8  -2  136.29    7.10
   2   8  -2  135.99    7.50
  -2  -8   2  141.49    6.70
  -2  -8   2  129.79    6.40
  -2  -8   2  136.39    6.40
  -2  -8   2  132.69    6.70
   1   8  -2  101.79    5.80
   1   8  -2  101.99    6.50
   1   8  -2  105.29    5.00
   1   8  -2  101.29    5.70
  -1  -8   2  108.99    5.80
  -1  -8   2   98.19    5.40
  -1  -8   2  106.39    5.60
  -1  -8   2  105.19    4.20
   0   8  -2  191.18    9.30
   0   8  -2  194.98    8.40
   0   8  -2  187.58    8.60
   0   8  -2  200.38    8.10
   0  -8   2  198.18    7.30
   0  -8   2  204.38    8.80
   0  -8   2  192.48    8.50
   0  -8   2  205.78    8.60
  -1   8  -2   22.80    3.10
  -1   8  -2   17.30    2.20
  -1   8  -2   20.50    3.50
  -1   8  -2   23.30    2.80
   1  -8   2   21.10    2.00
   1  -8   2   18.30    2.60
   1  -8   2   24.50    3.00
   1  -8   2   19.30    2.60
  -2   8  -2    9.80    2.60
  -2   8  -2   10.10    2.80
  -2   8  -2    9.30    2.70
   2  -8   2    7.00    2.00
   2  -8   2    7.80    2.10
   2  -8   2   11.80    2.40
   2  -8   2   10.30    1.70
  -3   8  -2  173.98    8.30
  -3   8  -2  179.08    8.00
  -3   8  -2  167.68    8.60
  -3   8  -2  177.98    8.20
   3  -8   2  175.18    8.40
   3  -8   2  177.88    8.20
   3  -8   2  185.18    7.60
   3  -8   2  166.08    8.20
  -4   8  -2   29.20    3.50
  -4   8  -2   30.40    3.70
  -4   8  -2   30.10    3.80
  -4   8  -2   24.20    3.50
   4  -8   2   27.00    3.40
   4  -8   2   26.20    3.50
   4  -8   2   28.30    3.10
   4  -8   2   32.80    3.70
  -5   8  -2  102.29    6.20
  -5   8  -2  106.49    6.30
   5  -8   2   96.49    6.30
   5  -8   2  106.99    6.10
   5  -8   2  102.49    6.70
   5  -8   2  100.99    6.60
  11   7  -2   49.30    6.10
 -11  -7   2   54.29    5.00
  10   7  -2    5.20    3.60
 -10  -7   2    4.50    2.30
 -10  -7   2    5.50    2.00
   9   7  -2   83.49    7.00
   9   7  -2   92.19    6.10
   9   7  -2   96.19    6.10
  -9  -7   2   79.99    4.50
  -9  -7   2   81.09    5.40
   8   7  -2  138.99    7.80
   8   7  -2  151.08    8.80
   8   7  -2  148.89    6.90
  -8  -7   2  155.18    7.50
  -8  -7   2  148.79    7.60
  -8  -7   2  142.49    6.20
   7   7  -2   41.70    3.50
   7   7  -2   45.50    4.50
   7   7  -2   38.70    4.60
  -7  -7   2   45.30    2.40
  -7  -7   2   41.50    4.10
  -7  -7   2   49.99    3.80
  -7  -7   2   40.00    2.60
   6   7  -2   92.19    5.00
   6   7  -2  103.69    6.20
   6   7  -2   86.79    6.30
  -6  -7   2   88.29    3.90
  -6  -7   2   88.79    5.10
  -6  -7   2   95.39    4.20
  -6  -7   2   95.39    5.50
   5   7  -2    8.10    2.90
   5   7  -2   11.00    1.20
   5   7  -2    9.40    2.20
   5   7  -2   10.40    2.80
  -5  -7   2   11.30    1.10
  -5  -7   2    9.40    2.00
  -5  -7   2   13.20    1.70
  -5  -7   2    9.80    2.20
   4   7  -2  546.15   18.50
   4   7  -2  533.05   19.40
   4   7  -2  514.95   17.20
   4   7  -2  515.15   19.30
  -4  -7   2  508.75   18.30
  -4  -7   2  498.25   16.80
  -4  -7   2  507.55   17.90
  -4  -7   2  519.35   18.60
   3   7  -2   15.80    2.50
   3   7  -2   14.80    3.00
   3   7  -2   15.40    2.90
   3   7  -2   16.30    1.80
  -3  -7   2   15.60    2.10
  -3  -7   2   18.00    2.40
  -3  -7   2   15.50    2.30
  -3  -7   2   13.90    2.20
   2   7  -2   75.09    3.70
   2   7  -2   78.99    5.40
   2   7  -2   70.69    4.70
   2   7  -2   73.49    4.40
  -2  -7   2   68.19    4.00
  -2  -7   2   70.49    4.20
  -2  -7   2   70.79    2.80
  -2  -7   2   70.69    4.40
  -2  -7   2   76.59    4.50
   1   7  -2   33.40    3.50
   1   7  -2   21.90    3.30
   1   7  -2   29.30    2.60
   1   7  -2   31.90    3.10
  -1  -7   2   31.30    3.00
  -1  -7   2   32.30    3.10
  -1  -7   2   27.50    1.60
  -1  -7   2   30.00    2.80
   0   7  -2   36.00    4.00
   0   7  -2   37.30    3.20
   0   7  -2   36.10    3.40
   0   7  -2   36.30    3.30
   0  -7   2   36.10    3.40
   0  -7   2   36.00    3.20
   0  -7   2   40.60    3.30
   0  -7   2   40.00    2.20
  -1   7  -2   46.30    3.90
  -1   7  -2   51.99    3.60
  -1   7  -2   54.59    4.80
  -1   7  -2   55.39    3.50
   1  -7   2   57.19    3.70
   1  -7   2   56.59    3.80
   1  -7   2   58.09    3.00
   1  -7   2   58.59    3.90
  -2   7  -2   29.10    3.20
  -2   7  -2   32.80    2.60
  -2   7  -2   38.00    3.50
  -2   7  -2   35.60    3.80
   2  -7   2   36.60    3.50
   2  -7   2   39.50    3.30
   2  -7   2   39.00    3.50
   2  -7   2   41.30    2.70
  -3   7  -2   16.00    2.70
  -3   7  -2   15.40    2.80
  -3   7  -2   16.10    2.90
   3  -7   2   13.50    2.60
   3  -7   2   15.90    2.50
   3  -7   2   15.60    2.60
   3  -7   2   17.00    2.20
  -4   7  -2    3.30    2.30
  -4   7  -2    6.60    2.20
  -4   7  -2    3.90    2.10
  -4   7  -2    6.50    2.40
   4  -7   2    5.00    2.00
   4  -7   2    5.40    1.90
   4  -7   2    2.30    2.10
   4  -7   2    5.70    2.30
  -5   7  -2   38.00    3.40
  -5   7  -2   29.40    3.50
  -5   7  -2   33.70    3.70
  -5   7  -2   37.30    3.70
   5  -7   2   32.00    3.60
   5  -7   2   30.70    3.60
  -6   7  -2   16.00    3.20
  -6   7  -2   17.20    3.00
   6  -7   2   12.90    3.10
   6  -7   2   21.50    3.10
  11   6  -2    0.00    3.10
 -11  -6   2    2.90    2.30
 -11  -6   2    1.00    2.00
  10   6  -2   -1.10    2.90
 -10  -6   2    2.40    2.20
 -10  -6   2    2.20    1.80
   9   6  -2    1.80    2.90
   9   6  -2    2.80    2.40
  -9  -6   2   11.00    2.60
  -9  -6   2    7.00    1.90
   8   6  -2   -1.80    2.70
   8   6  -2    3.20    1.60
   8   6  -2    1.00    2.10
  -8  -6   2    1.40    2.10
  -8  -6   2    2.70    1.80
  -8  -6   2    0.20    1.30
   7   6  -2   -0.90    2.10
   7   6  -2   -1.10    1.30
   7   6  -2    0.40    2.40
  -7  -6   2   -0.40    1.60
  -7  -6   2    0.50    1.00
  -7  -6   2    0.40    0.60
  -7  -6   2   -0.60    1.60
   6   6  -2   41.80    4.40
   6   6  -2   41.50    3.20
   6   6  -2   45.90    4.10
  -6  -6   2   39.60    2.40
  -6  -6   2   37.10    3.40
  -6  -6   2   37.40    3.20
  -6  -6   2   44.20    2.40
   5   6  -2   68.39    4.80
   5   6  -2   70.29    5.10
   5   6  -2   71.69    3.90
  -5  -6   2   60.09    3.90
  -5  -6   2   62.29    3.00
  -5  -6   2   78.19    3.40
  -5  -6   2   68.59    4.30
  -5  -6   2   66.59    3.20
   4   6  -2   70.19    4.90
   4   6  -2   69.89    3.80
   4   6  -2   67.39    2.70
   4   6  -2   66.79    4.70
  -4  -6   2   65.29    3.40
  -4  -6   2   66.19    2.70
  -4  -6   2   66.59    4.00
  -4  -6   2   68.39    3.90
   3   6  -2   56.79    4.30
   3   6  -2   62.79    3.70
   3   6  -2   56.69    4.30
  -3  -6   2   56.49    3.60
  -3  -6   2   62.39    3.60
  -3  -6   2   64.69    3.40
  -3  -6   2   58.59    2.20
   2   6  -2  278.67   10.80
   2   6  -2  257.87   10.80
   2   6  -2  263.27   10.10
   2   6  -2  271.67    9.40
  -2  -6   2  261.27   10.00
  -2  -6   2  262.87   10.20
  -2  -6   2  264.47   10.10
  -2  -6   2  256.97    9.80
  -2  -6   2  260.77    8.70
   1   6  -2  141.49    7.10
   1   6  -2  149.29    6.50
   1   6  -2  141.89    6.70
   1   6  -2  152.08    5.90
  -1  -6   2  142.09    4.80
  -1  -6   2  158.38    6.40
  -1  -6   2  141.19    6.40
  -1  -6   2  148.69    6.50
  -1  -6   2  148.59    5.20
   0   6  -2  773.22   27.70
   0   6  -2  827.52   27.10
   0   6  -2  735.53   27.00
   0   6  -2  875.41   27.70
   0   6  -2  779.62   26.60
   0  -6   2  757.42   26.90
   0  -6   2  796.12   27.10
   0  -6   2  842.72   26.10
   0  -6   2  818.22   27.20
   0  -6   2  769.32   25.60
  -1   6  -2  161.88    6.20
  -1   6  -2  170.18    7.80
  -1   6  -2  170.08    6.90
  -1   6  -2  163.38    7.30
  -1   6  -2  165.48    6.90
   1  -6   2  154.98    7.00
   1  -6   2  171.48    6.40
   1  -6   2  174.58    7.30
   1  -6   2  176.38    7.30
   1  -6   2  159.68    5.90
  -2   6  -2  249.88   10.50
  -2   6  -2  267.57   10.30
  -2   6  -2  266.67   10.80
  -2   6  -2  276.77    9.90
   2  -6   2  274.57   10.60
   2  -6   2  272.87    9.90
   2  -6   2  275.77   10.50
   2  -6   2  250.27   10.30
  -3   6  -2    4.30    2.10
  -3   6  -2    4.10    1.10
  -3   6  -2    6.40    2.00
  -3   6  -2    9.70    2.10
   3  -6   2    5.70    1.90
   3  -6   2    4.50    1.80
   3  -6   2    4.50    1.90
  -4   6  -2   20.20    2.70
  -4   6  -2   21.50    2.30
  -4   6  -2   20.50    2.70
  -4   6  -2   21.80    2.60
  -4   6  -2   19.90    2.80
   4  -6   2   21.00    2.90
   4  -6   2   22.30    2.90
  -5   6  -2   87.49    4.60
  -5   6  -2   85.89    5.00
  -5   6  -2   74.79    4.80
  -5   6  -2   75.09    4.50
  -5   6  -2   77.69    5.00
   5  -6   2   82.49    5.30
   5  -6   2   81.29    5.20
  -6   6  -2  100.89    5.60
  -6   6  -2   95.09    5.90
  -6   6  -2   86.39    5.30
   6  -6   2   87.29    5.80
   6  -6   2  102.59    5.90
  -7   6  -2   18.10    3.30
  -7   6  -2   25.50    3.30
  -7   6  -2   18.70    2.80
   7  -6   2   22.30    3.60
   7  -6   2   22.60    3.20
  11   5  -2    0.90    3.00
 -11  -5   2    5.40    2.50
 -11  -5   2    4.40    2.80
  10   5  -2   53.59    5.80
 -10  -5   2   64.29    4.50
 -10  -5   2   65.49    4.90
   9   5  -2   48.30    4.20
   9   5  -2   38.90    4.60
  -9  -5   2   42.30    3.40
  -9  -5   2   44.70    4.00
   8   5  -2   71.29    4.80
   8   5  -2   81.49    4.20
   8   5  -2   69.69    6.10
  -8  -5   2   77.59    4.20
  -8  -5   2   79.29    5.00
   7   5  -2    3.10    1.40
   7   5  -2    1.10    2.20
   7   5  -2    2.80    2.00
  -7  -5   2    1.20    1.70
  -7  -5   2    1.60    1.20
  -7  -5   2    0.50    1.80
   6   5  -2  299.57   11.40
   6   5  -2  280.77   10.40
   6   5  -2  282.87   12.00
  -6  -5   2  287.37   11.20
  -6  -5   2  285.57    9.60
  -6  -5   2  293.07   10.20
  -6  -5   2  265.77   10.80
   5   5  -2  120.39    6.50
   5   5  -2  117.69    4.60
   5   5  -2  115.69    5.20
   5   5  -2  118.39    4.20
  -5  -5   2  127.19    4.70
  -5  -5   2  121.69    5.80
  -5  -5   2  119.89    4.60
  -5  -5   2  118.59    4.70
  -5  -5   2  118.99    5.50
   4   5  -2   11.90    1.70
   4   5  -2   14.60    2.50
   4   5  -2   13.40    1.20
   4   5  -2   12.30    2.20
  -4  -5   2   14.00    2.00
  -4  -5   2   12.70    1.80
  -4  -5   2   16.10    1.50
  -4  -5   2   13.50    1.40
  -4  -5   2   15.00    1.20
   3   5  -2  205.78    8.40
   3   5  -2  204.08    7.70
   3   5  -2  199.68    8.50
   3   5  -2  195.98    6.60
  -3  -5   2  186.48    7.20
  -3  -5   2  195.58    6.60
  -3  -5   2  191.68    7.60
  -3  -5   2  193.38    7.30
  -3  -5   2  192.28    7.80
   2   5  -2   48.90    3.70
   2   5  -2   47.30    3.00
   2   5  -2   47.20    3.50
  -2  -5   2   45.40    2.80
  -2  -5   2   42.70    3.00
  -2  -5   2   48.60    1.80
  -2  -5   2   49.20    3.10
  -2  -5   2   48.70    2.90
   1   5  -2  153.68    6.60
   1   5  -2  144.89    6.70
   1   5  -2  152.48    6.30
  -1  -5   2  151.68    6.20
  -1  -5   2  143.29    6.20
  -1  -5   2  151.28    5.10
  -1  -5   2  132.59    5.90
   0   5  -2  630.74   21.30
   0   5  -2  613.34   20.80
   0   5  -2  615.94   20.80
   0   5  -2  579.24   21.60
   0   5  -2  650.73   21.40
   0  -5   2  628.44   21.20
   0  -5   2  601.24   20.00
   0  -5   2  626.04   20.30
   0  -5   2  616.94   21.10
   0  -5   2  651.43   21.30
  -1   5  -2  353.06   12.80
  -1   5  -2  347.37   11.90
  -1   5  -2  344.47   12.30
  -1   5  -2  364.16   12.60
  -1   5  -2  347.67   13.20
   1  -5   2  328.47   12.50
   1  -5   2  354.26   12.60
   1  -5   2  348.27   12.70
   1  -5   2  354.66   12.00
   1  -5   2  337.57   11.60
  -2   5  -2  230.78    9.50
  -2   5  -2  249.08    9.30
  -2   5  -2  249.38    8.50
  -2   5  -2  248.68    9.90
   2  -5   2  245.78    9.60
   2  -5   2  251.97    8.60
   2  -5   2  248.08    9.60
   2  -5   2  239.78    9.40
  -3   5  -2   26.30    2.70
  -3   5  -2   27.00    1.80
  -3   5  -2   30.70    3.20
  -3   5  -2   28.60    2.90
  -3   5  -2   28.80    2.30
   3  -5   2   23.70    2.50
   3  -5   2   31.30    3.10
  -4   5  -2  477.75   16.00
  -4   5  -2  488.85   16.80
  -4   5  -2  453.65   17.00
  -4   5  -2  505.45   17.30
  -4   5  -2  467.55   17.10
  -4   5  -2  472.75   16.60
   4  -5   2  491.05   17.50
   4  -5   2  477.85   17.20
  -5   5  -2  167.08    7.10
  -5   5  -2  159.58    6.70
  -5   5  -2  165.58    7.00
  -5   5  -2  161.78    7.20
  -5   5  -2  163.38    7.30
   5  -5   2  155.98    7.20
   5  -5   2  156.78    7.60
  -6   5  -2   17.30    2.70
  -6   5  -2   20.90    3.00
  -6   5  -2   17.30    2.70
  -6   5  -2   16.80    2.80
   6  -5   2   19.30    3.00
   6  -5   2   23.10    3.00
  -7   5  -2   54.09    4.50
  -7   5  -2   52.29    4.60
  -7   5  -2   59.99    4.30
   7  -5   2   50.79    4.90
   7  -5   2   61.39    4.40
  -8   5  -2   19.40    3.40
  -8   5  -2   23.00    3.40
  -8   5  -2   17.00    2.60
   8  -5   2   24.90    3.30
   8  -5   2   14.60    3.30
  11   4  -2    7.10    3.10
 -11  -4   2    8.90    2.70
 -11  -4   2   12.10    2.90
  10   4  -2   29.20    4.20
 -10  -4   2   30.70    3.70
 -10  -4   2   31.70    3.50
   9   4  -2   -3.30    2.10
  -9  -4   2    0.00    1.70
  -9  -4   2    0.30    1.80
   8   4  -2   95.59    6.20
   8   4  -2   97.09    5.20
   8   4  -2  101.09    4.50
  -8  -4   2   90.29    5.30
  -8  -4   2   96.09    4.90
   7   4  -2  636.04   23.40
   7   4  -2  659.13   21.70
   7   4  -2  655.93   22.40
  -7  -4   2  616.74   22.40
  -7  -4   2  654.73   22.00
   6   4  -2    1.50    1.10
   6   4  -2    1.60    0.70
   6   4  -2    2.30    1.50
   6   4  -2    2.40    2.10
  -6  -4   2    1.70    1.50
  -6  -4   2    0.10    1.00
  -6  -4   2    0.90    1.40
   5   4  -2  935.01   30.70
   5   4  -2  943.11   30.30
   5   4  -2  981.10   31.70
   5   4  -2  952.80   30.90
   5   4  -2  950.20   32.40
  -5  -4   2  919.81   30.80
  -5  -4   2  964.40   30.30
  -5  -4   2  940.31   31.40
  -5  -4   2  887.01   31.50
   4   4  -2   63.59    3.10
   4   4  -2   58.19    2.40
   4   4  -2   60.09    4.20
   4   4  -2   61.39    2.60
   4   4  -2   56.09    3.60
  -4  -4   2   61.29    2.70
  -4  -4   2   60.89    2.60
  -4  -4   2   64.69    2.70
  -4  -4   2   61.49    3.50
  -4  -4   2   59.19    3.30
   3   4  -2  265.37   10.00
   3   4  -2  256.57    9.20
   3   4  -2  266.57    8.50
   3   4  -2  253.47   10.20
  -3  -4   2  261.67    9.00
  -3  -4   2  250.37    9.60
  -3  -4   2  249.58    9.30
  -3  -4   2  251.97    8.60
   2   4  -2   62.89    3.30
   2   4  -2   64.29    3.90
   2   4  -2   63.29    3.70
  -2  -4   2   64.59    3.30
  -2  -4   2   65.99    2.30
  -2  -4   2   64.49    3.00
  -2  -4   2   65.29    3.20
  -2  -4   2   65.39    3.50
  -2  -4   2   63.89    3.00
   1   4  -2   30.20    2.20
   1   4  -2   33.30    2.50
   1   4  -2   33.60    2.90
   1   4  -2   31.50    2.90
  -1  -4   2   34.40    2.20
  -1  -4   2   33.50    2.20
  -1  -4   2   31.70    2.10
  -1  -4   2   31.00    1.30
  -1  -4   2   34.00    2.30
  -1  -4   2   29.90    2.30
   0   4  -2  279.57   10.70
   0   4  -2  284.17   10.00
   0   4  -2  279.57   10.30
   0  -4   2  293.77   10.20
   0  -4   2  283.67    9.50
   0  -4   2  291.97   10.20
   0  -4   2  281.67   10.30
   0  -4   2  272.87    9.20
  -1   4  -2  360.06   13.10
  -1   4  -2  351.26   12.20
  -1   4  -2  352.66   12.70
  -1   4  -2  360.06   12.50
   1  -4   2  349.07   12.70
   1  -4   2  372.46   12.80
   1  -4   2  357.06   11.90
   1  -4   2  355.16   12.70
   1  -4   2  373.46   12.30
  -2   4  -2  186.58    6.50
  -2   4  -2  192.48    7.20
  -2   4  -2  181.58    7.60
  -2   4  -2  171.98    7.20
  -2   4  -2  183.48    6.60
   2  -4   2  169.28    7.20
   2  -4   2  183.58    6.50
   2  -4   2  192.48    6.50
   2  -4   2  176.98    7.10
  -3   4  -2    1.40    0.70
  -3   4  -2    1.60    1.10
  -3   4  -2    1.50    1.50
  -3   4  -2    3.30    1.50
  -3   4  -2    2.50    1.40
   3  -4   2    3.90    1.40
   3  -4   2    2.90    0.60
   3  -4   2    1.10    1.10
  -4   4  -2  230.08    8.60
  -4   4  -2  209.88    8.50
  -4   4  -2  218.48    8.60
  -4   4  -2  210.08    7.60
  -4   4  -2  219.18    8.20
   4  -4   2  219.28    7.20
   4  -4   2  209.78    8.60
   4  -4   2  214.18    8.80
  -5   4  -2   85.99    4.20
  -5   4  -2   89.69    5.00
  -5   4  -2   89.69    4.50
  -5   4  -2   90.29    4.60
  -5   4  -2   92.69    4.90
   5  -4   2   90.89    4.80
   5  -4   2   93.69    5.20
  -6   4  -2   24.90    2.00
  -6   4  -2   32.40    3.10
  -6   4  -2   29.70    3.10
  -6   4  -2   22.80    2.30
  -6   4  -2   26.90    2.80
   6  -4   2   27.00    3.10
   6  -4   2   27.30    2.80
  -7   4  -2   22.20    2.70
  -7   4  -2   22.00    3.00
  -7   4  -2   22.70    3.00
   7  -4   2   20.80    2.80
   7  -4   2   19.50    3.00
  -8   4  -2   19.10    3.20
  -8   4  -2   15.60    3.00
  -8   4  -2   19.40    2.50
   8  -4   2   18.20    2.70
   8  -4   2   17.30    3.20
  -9   4  -2   32.00    3.80
  -9   4  -2   22.20    3.70
   9  -4   2   26.50    3.70
   9  -4   2   36.10    3.90
  11   3  -2    7.40    3.20
 -11  -3   2   10.40    2.80
 -11  -3   2    8.40    2.90
  10   3  -2    1.40    2.50
 -10  -3   2   -0.10    2.10
 -10  -3   2   -0.20    2.20
   9   3  -2   30.60    3.80
  -9  -3   2   29.80    2.20
  -9  -3   2   26.60    3.10
  -9  -3   2   27.00    3.30
   8   3  -2   34.10    3.90
   8   3  -2   43.50    2.60
   8   3  -2   40.50    3.00
  -8  -3   2   34.40    3.40
  -8  -3   2   38.00    3.20
   7   3  -2   29.00    3.50
   7   3  -2   24.90    2.50
   7   3  -2   28.40    2.10
  -7  -3   2   25.60    2.80
  -7  -3   2   29.90    2.70
   6   3  -2  100.59    4.10
   6   3  -2   98.29    5.50
   6   3  -2  105.09    4.70
  -6  -3   2   97.59    4.50
  -6  -3   2   95.39    4.90
  -6  -3   2   91.39    5.00
   5   3  -2    6.20    0.80
   5   3  -2    3.90    1.20
   5   3  -2    3.80    1.70
   5   3  -2    4.40    1.00
  -5  -3   2    4.10    1.10
  -5  -3   2    2.40    1.30
  -5  -3   2    3.60    1.40
   4   3  -2  115.19    4.50
   4   3  -2  126.59    5.30
   4   3  -2  120.39    4.20
   4   3  -2  117.99    4.50
   4   3  -2  121.09    4.40
   4   3  -2  116.29    4.60
   4   3  -2  118.29    5.80
  -4  -3   2  111.29    5.00
  -4  -3   2  114.89    4.10
  -4  -3   2  119.49    4.60
  -4  -3   2  123.49    4.10
  -4  -3   2  108.09    5.20
   3   3  -2  112.69    3.80
   3   3  -2  110.09    4.10
   3   3  -2  108.19    4.30
   3   3  -2  105.49    4.80
   3   3  -2   95.39    3.80
   3   3  -2  105.39    5.20
  -3  -3   2  101.99    3.90
  -3  -3   2  106.69    3.90
  -3  -3   2  108.49    4.70
  -3  -3   2  110.39    3.90
  -3  -3   2   98.99    4.40
   2   3  -2  543.65   19.10
   2   3  -2  568.34   19.40
   2   3  -2  553.34   18.60
   2   3  -2  585.34   17.90
   2   3  -2  561.04   18.50
   2   3  -2  543.75   19.10
   2   3  -2  544.15   18.60
  -2  -3   2  541.65   18.80
  -2  -3   2  575.44   18.40
  -2  -3   2  555.74   18.40
  -2  -3   2  563.44   18.00
  -2  -3   2  565.34   18.60
   1   3  -2  300.67   10.50
   1   3  -2  304.17   10.60
   1   3  -2  304.47   10.50
   1   3  -2  302.67   11.00
   1   3  -2  302.77   10.70
   1   3  -2  310.37   10.50
  -1  -3   2  305.47   10.40
  -1  -3   2  284.07   10.30
  -1  -3   2  305.47   10.50
  -1  -3   2  308.57   11.40
  -1  -3   2  292.17   10.40
  -1  -3   2  302.67   10.70
   0   3  -2  155.88    6.20
   0   3  -2  145.39    5.70
   0   3  -2  151.58    5.70
   0   3  -2  142.79    5.80
   0  -3   2  146.09    5.90
   0  -3   2  150.58    5.70
   0  -3   2  152.48    4.90
   0  -3   2  158.68    5.80
   0  -3   2  155.98    5.80
   0  -3   2  145.49    5.70
   0  -3   2  156.08    5.10
   0  -3   2  148.89    6.10
  -1   3  -2  137.59    5.40
  -1   3  -2  131.59    5.00
  -1   3  -2  134.19    5.40
  -1   3  -2  138.59    4.70
  -1   3  -2  121.69    5.60
   1  -3   2  137.99    4.70
   1  -3   2  132.89    5.40
   1  -3   2  142.59    5.60
   1  -3   2  140.99    5.10
   1  -3   2  132.99    5.60
   1  -3   2  134.69    5.30
  -2   3  -2  133.59    5.50
  -2   3  -2  138.99    5.00
  -2   3  -2  134.29    5.70
  -2   3  -2  142.99    5.00
  -2   3  -2  137.59    5.40
   2  -3   2  136.29    5.50
   2  -3   2  139.99    5.00
   2  -3   2  124.59    5.40
   2  -3   2  124.49    5.50
   2  -3   2  134.19    4.90
  -3   3  -2  182.48    6.40
  -3   3  -2  161.58    6.80
  -3   3  -2  163.78    6.80
  -3   3  -2  180.28    6.60
  -3   3  -2  183.28    7.10
   3  -3   2  175.98    6.90
   3  -3   2  186.78    6.20
   3  -3   2  163.48    6.80
   3  -3   2  179.98    7.00
   3  -3   2  180.08    6.50
  -4   3  -2    1.60    1.20
  -4   3  -2    2.40    1.50
  -4   3  -2    1.80    0.80
  -4   3  -2    1.20    1.40
  -4   3  -2    3.80    1.30
   4  -3   2    2.30    1.00
   4  -3   2    2.10    1.30
   4  -3   2    2.10    1.20
   4  -3   2    2.30    0.70
  -5   3  -2   64.59    3.10
  -5   3  -2   66.59    3.80
  -5   3  -2   60.99    3.00
  -5   3  -2   73.49    3.90
  -5   3  -2   67.69    3.90
  -5   3  -2   68.39    3.50
   5  -3   2   68.39    2.80
   5  -3   2   66.09    4.10
   5  -3   2   61.69    3.30
   5  -3   2   65.29    3.80
  -6   3  -2   98.69    3.90
  -6   3  -2   90.39    4.90
  -6   3  -2   98.19    4.90
  -6   3  -2   94.69    5.10
   6  -3   2  100.29    5.40
   6  -3   2  100.49    5.10
   6  -3   2   92.39    3.80
  -7   3  -2  212.98    8.80
  -7   3  -2  199.38    8.70
  -7   3  -2  217.78    8.50
   7  -3   2  218.08    9.30
   7  -3   2  203.68    8.80
  -8   3  -2  138.89    6.90
  -8   3  -2  134.39    6.90
  -8   3  -2  136.09    6.30
   8  -3   2  142.39    7.40
   8  -3   2  140.29    6.70
  -9   3  -2   29.30    3.70
  -9   3  -2   29.90    3.70
  -9   3  -2   34.30    4.00
   9  -3   2   30.20    3.30
   9  -3   2   34.90    3.90
 -10   3  -2  232.28   10.60
 -10   3  -2  240.18   10.50
  10  -3   2  246.78   10.50
  10  -3   2  231.08   11.00
  11   2  -2  275.97   12.60
 -11  -2   2  265.77   11.60
  10   2  -2    0.90    2.30
 -10  -2   2   -0.40    2.00
 -10  -2   2    0.80    2.00
 -10  -2   2    2.70    2.30
   9   2  -2   11.90    2.70
  -9  -2   2   13.90    2.60
  -9  -2   2   11.80    2.50
  -9  -2   2   13.80    1.80
   8   2  -2  171.58    7.90
   8   2  -2  164.08    6.40
   8   2  -2  166.18    6.60
  -8  -2   2  161.58    7.30
  -8  -2   2  168.68    7.60
  -8  -2   2  168.08    6.40
   7   2  -2   42.70    2.30
   7   2  -2   39.80    2.70
   7   2  -2   39.50    3.90
  -7  -2   2   40.90    3.10
  -7  -2   2   41.90    3.40
  -7  -2   2   42.20    2.40
   6   2  -2   47.10    3.60
   6   2  -2   46.00    2.30
   6   2  -2   49.80    2.70
   6   2  -2   43.30    2.80
  -6  -2   2   44.40    2.90
  -6  -2   2   48.70    2.40
  -6  -2   2   49.80    3.30
   5   2  -2   87.39    3.80
   5   2  -2   72.19    3.10
   5   2  -2   71.49    3.10
   5   2  -2   75.99    3.10
   5   2  -2   72.59    4.30
  -5  -2   2   76.19    3.90
  -5  -2   2   71.79    4.00
  -5  -2   2   77.29    3.60
  -5  -2   2   77.49    3.10
   4   2  -2  550.84   18.90
   4   2  -2  556.74   20.10
   4   2  -2  604.74   19.00
   4   2  -2  612.74   19.70
   4   2  -2  586.44   18.90
   4   2  -2  581.94   19.20
  -4  -2   2  575.84   19.20
  -4  -2   2  569.84   19.60
  -4  -2   2  583.54   19.70
   3   2  -2    0.40    1.30
   3   2  -2    0.60    0.60
   3   2  -2    0.20    0.70
   3   2  -2    0.60    1.00
   3   2  -2   -0.50    0.80
   3   2  -2    0.40    0.60
   3   2  -2    0.70    0.60
  -3  -2   2   -0.10    1.00
  -3  -2   2    0.00    0.10
  -3  -2   2   -0.40    0.80
  -3  -2   2    0.20    0.70
  -3  -2   2   -0.10    1.00
   2   2  -2  222.08    8.00
   2   2  -2  214.48    7.40
   2   2  -2  210.48    7.50
   2   2  -2  220.78    7.10
   2   2  -2  223.88    8.00
   2   2  -2  219.48    7.30
   2   2  -2  222.98    7.10
   2   2  -2  212.08    7.50
   2   2  -2  211.98    7.70
  -2  -2   2  210.58    7.20
  -2  -2   2  208.88    7.20
  -2  -2   2  200.28    7.10
  -2  -2   2  211.88    7.80
  -2  -2   2  212.28    7.90
  -2  -2   2  206.48    7.50
   1   2  -2  956.00   31.30
   1   2  -2  933.11   31.30
   1   2  -2  948.51   31.30
   1   2  -2 1024.40   31.70
   1   2  -2  987.50   31.50
   1   2  -2  950.60   31.70
  -1  -2   2  933.11   31.20
  -1  -2   2  975.40   31.30
  -1  -2   2  986.30   31.20
  -1  -2   2  950.80   31.30
  -1  -2   2  960.40   31.70
  -1  -2   2  982.90   31.60
  -1  -2   2  993.40   31.60
   0   2  -2  398.46   13.40
   0   2  -2  390.96   13.20
   0   2  -2  396.16   13.30
   0   2  -2  396.86   13.20
   0   2  -2  374.56   13.10
   0   2  -2  405.36   13.60
   0  -2   2  390.46   13.40
   0  -2   2  399.46   13.10
   0  -2   2  379.86   13.20
   0  -2   2  409.26   13.30
   0  -2   2  388.16   13.10
   0  -2   2  395.06   13.50
  -1   2  -2 1181.48   38.90
  -1   2  -2 1221.18   39.20
  -1   2  -2 1181.18   39.00
  -1   2  -2 1232.98   38.50
  -1   2  -2 1228.68   38.90
  -1   2  -2 1212.28   39.00
   1  -2   2 1197.28   39.20
   1  -2   2 1264.17   39.00
   1  -2   2 1189.78   39.20
   1  -2   2 1114.09   38.90
   1  -2   2 1200.18   39.00
   1  -2   2 1216.28   38.50
   1  -2   2 1212.58   38.90
  -2   2  -2 2399.56   79.39
  -2   2  -2 2545.95   79.09
  -2   2  -2 2408.26   79.49
  -2   2  -2 2564.94   79.09
  -2   2  -2 2451.75   79.39
  -2   2  -2 2485.55   79.39
   2  -2   2 2568.74   79.09
   2  -2   2 2499.45   79.69
   2  -2   2 2457.35   79.49
   2  -2   2 2438.96   79.39
   2  -2   2 2372.66   79.29
   2  -2   2 2543.45   79.09
  -3   2  -2  206.58    7.00
  -3   2  -2  185.38    7.20
  -3   2  -2  188.08    7.20
  -3   2  -2  183.88    7.20
  -3   2  -2  197.98    6.90
   3  -2   2  185.38    7.20
   3  -2   2  197.28    7.10
   3  -2   2  198.48    6.90
   3  -2   2  186.58    7.20
   3  -2   2  199.58    6.80
  -4   2  -2  100.99    4.10
  -4   2  -2   95.19    4.10
  -4   2  -2   89.19    4.30
  -4   2  -2   99.19    3.90
  -4   2  -2   91.29    4.30
   4  -2   2   98.69    4.40
   4  -2   2   96.59    4.30
   4  -2   2   88.19    3.90
   4  -2   2   98.09    3.80
  -5   2  -2  121.09    5.40
  -5   2  -2  116.29    4.80
  -5   2  -2  118.59    4.50
  -5   2  -2  120.09    5.30
  -5   2  -2  121.19    4.80
  -5   2  -2  130.69    5.40
   5  -2   2  122.29    5.60
   5  -2   2  120.39    4.80
   5  -2   2  126.99    5.30
   5  -2   2  125.99    4.80
  -6   2  -2  300.87   11.00
  -6   2  -2  283.87    9.80
  -6   2  -2  295.87   10.70
  -6   2  -2  278.17   10.40
  -6   2  -2  288.77   10.90
   6  -2   2  274.37   10.20
   6  -2   2  292.97   11.30
   6  -2   2  328.37   11.00
   6  -2   2  293.17   10.30
  -7   2  -2   12.20    2.20
  -7   2  -2   12.90    2.30
  -7   2  -2   11.00    1.90
   7  -2   2   13.80    1.70
   7  -2   2   12.20    2.10
   7  -2   2   17.60    2.60
  -8   2  -2   20.90    2.90
  -8   2  -2   20.80    2.40
  -8   2  -2   26.90    3.00
   8  -2   2   19.90    2.90
   8  -2   2   21.00    2.60
  -9   2  -2   20.70    2.30
  -9   2  -2   22.60    3.50
  -9   2  -2   23.30    3.20
   9  -2   2   26.30    3.50
   9  -2   2   22.40    2.90
 -10   2  -2   36.40    4.20
 -10   2  -2   45.90    4.00
  10  -2   2   42.30    3.90
  10  -2   2   33.20    4.00
  11   1  -2    0.70    2.30
 -11  -1   2    4.50    2.80
  10   1  -2   41.00    4.30
  10   1  -2   53.79    4.90
 -10  -1   2   47.60    4.40
 -10  -1   2   56.59    3.60
   9   1  -2  217.18    9.60
  -9  -1   2  220.48    9.50
  -9  -1   2  226.48    9.80
  -9  -1   2  223.68    8.60
   8   1  -2   43.50    3.70
   8   1  -2   44.70    2.60
  -8  -1   2   41.80    2.80
  -8  -1   2   44.70    3.70
  -8  -1   2   41.80    3.60
   7   1  -2    8.40    1.30
   7   1  -2    8.80    1.20
   7   1  -2    8.80    2.00
  -7  -1   2    7.70    1.90
  -7  -1   2    9.70    1.40
  -7  -1   2    5.10    1.80
   6   1  -2  315.27   12.00
   6   1  -2  320.07   10.70
   6   1  -2  302.47   11.10
  -6  -1   2  316.37   11.60
  -6  -1   2  334.07   11.00
  -6  -1   2  308.27   11.70
   5   1  -2  119.59    5.10
   5   1  -2  124.29    4.90
   5   1  -2  129.99    4.60
   5   1  -2  129.29    4.60
   5   1  -2  128.49    5.00
   5   1  -2  128.99    5.90
  -5  -1   2  125.59    5.50
  -5  -1   2  137.49    4.90
  -5  -1   2  131.19    5.40
   4   1  -2    1.70    0.50
   4   1  -2    2.50    1.30
   4   1  -2    1.90    0.70
   4   1  -2    1.60    0.50
   4   1  -2    2.40    0.90
   4   1  -2    2.20    0.90
  -4  -1   2    2.50    1.00
  -4  -1   2    2.40    0.80
  -4  -1   2    1.90    1.20
  -4  -1   2    2.70    1.20
   3   1  -2  271.17    9.20
   3   1  -2  274.47    9.40
   3   1  -2  280.07    9.00
   3   1  -2  270.57    9.90
   3   1  -2  261.17    9.70
   3   1  -2  277.37    9.70
   3   1  -2  276.37   10.20
   3   1  -2  276.27    9.60
   3   1  -2  275.07    9.10
   3   1  -2  305.17    9.80
  -3  -1   2  277.37    9.30
  -3  -1   2  284.77    9.50
  -3  -1   2  264.27    9.70
  -3  -1   2  272.47    9.80
   2   1  -2  424.06   13.60
   2   1  -2  419.66   14.10
   2   1  -2  430.96   14.00
   2   1  -2  407.86   13.80
   2   1  -2  396.16   14.10
   2   1  -2  454.05   14.40
   2   1  -2  382.66   14.30
   2   1  -2  433.16   13.60
   2   1  -2  418.16   13.80
  -2  -1   2  428.66   13.80
  -2  -1   2  433.66   14.40
  -2  -1   2  421.86   14.00
  -2  -1   2  411.66   14.20
   1   1  -2  182.48    6.20
   1   1  -2  153.78    6.50
   1   1  -2  184.78    6.20
   1   1  -2  182.58    6.00
   1   1  -2  181.28    6.60
   1   1  -2  181.28    6.10
   1   1  -2  176.58    6.40
   1   1  -2  188.08    6.10
  -1  -1   2  181.58    6.60
  -1  -1   2  176.98    6.60
  -1  -1   2  186.78    6.30
  -1  -1   2  177.88    6.00
  -1  -1   2  186.58    6.50
  -1  -1   2  185.28    6.00
  -1  -1   2  171.28    6.00
   0   1  -2    4.80    0.80
   0   1  -2    4.20    0.90
   0   1  -2   10.50    1.10
   0   1  -2    5.40    0.80
   0   1  -2    5.80    0.70
   0   1  -2    5.70    1.10
   0  -1   2    6.20    1.00
   0  -1   2    4.20    0.70
   0  -1   2    6.70    0.90
   0  -1   2    4.50    1.00
   0  -1   2    6.90    0.70
   0  -1   2    6.40    0.50
   0  -1   2    8.20    1.10
   0  -1   2    4.40    0.70
  -1   1  -2  381.06   12.30
  -1   1  -2  374.86   12.20
  -1   1  -2  353.66   11.90
  -1   1  -2  352.26   12.50
  -1   1  -2  382.16   12.30
  -1   1  -2  375.56   12.30
   1  -1   2  352.86   12.20
   1  -1   2  373.16   12.00
   1  -1   2  359.86   12.20
   1  -1   2  376.26   12.30
   1  -1   2  375.26   12.30
  -2   1  -2  209.08    7.30
  -2   1  -2  204.28    7.30
  -2   1  -2  211.28    7.40
  -2   1  -2  209.48    7.10
  -2   1  -2  204.38    7.40
  -2   1  -2  205.88    7.30
   2  -1   2  196.78    7.10
   2  -1   2  200.18    7.30
   2  -1   2  203.98    7.30
   2  -1   2  206.88    7.30
   2  -1   2  229.68    7.30
   2  -1   2  209.38    7.30
  -3   1  -2  353.06   12.50
  -3   1  -2  380.86   12.50
  -3   1  -2  351.16   12.60
  -3   1  -2  372.66   12.50
  -3   1  -2  387.26   12.50
   3  -1   2  380.76   12.50
   3  -1   2  357.36   12.40
   3  -1   2  367.36   12.80
   3  -1   2  385.96   12.40
   3  -1   2  375.96   12.70
   3  -1   2  361.76   12.60
  -4   1  -2   15.50    1.40
  -4   1  -2   13.10    1.50
  -4   1  -2   15.60    1.50
  -4   1  -2   15.70    1.50
  -4   1  -2   18.10    1.80
  -4   1  -2   14.40    1.50
   4  -1   2   15.40    1.70
   4  -1   2   14.60    1.20
   4  -1   2   16.80    1.60
   4  -1   2   16.80    1.70
   4  -1   2   14.00    1.50
  -5   1  -2   94.99    4.20
  -5   1  -2   90.49    3.30
  -5   1  -2   87.19    4.30
  -5   1  -2  101.69    4.50
  -5   1  -2   87.69    4.00
  -5   1  -2   97.19    3.50
   5  -1   2  103.89    4.60
   5  -1   2   94.49    4.10
   5  -1   2   89.49    3.50
   5  -1   2   92.59    4.30
  -6   1  -2  345.87   12.30
  -6   1  -2  336.87   12.30
  -6   1  -2  355.16   12.50
  -6   1  -2  355.86   12.60
   6  -1   2  341.17   12.50
   6  -1   2  340.67   12.80
   6  -1   2  364.26   12.30
  -7   1  -2   -0.30    1.60
  -7   1  -2   -0.60    1.60
  -7   1  -2    0.70    1.30
   7  -1   2    1.20    1.60
   7  -1   2    0.00    1.30
   7  -1   2    0.20    1.10
  -8   1  -2    8.70    1.70
  -8   1  -2    9.70    2.00
  -8   1  -2    7.30    2.20
   8  -1   2    7.10    1.60
   8  -1   2    4.80    1.60
   8  -1   2    8.40    2.30
  -9   1  -2   34.80    2.80
  -9   1  -2   31.80    3.30
  -9   1  -2   37.80    3.90
   9  -1   2   33.80    3.10
   9  -1   2   31.30    3.50
 -10   1  -2    5.80    2.40
 -10   1  -2    2.20    2.70
  10  -1   2    4.30    1.90
  10  -1   2    3.40    2.40
 -11   1  -2   13.30    2.70
 -11   1  -2    8.50    3.30
  11  -1   2   12.80    2.60
  11  -1   2   10.20    3.00
  11   0  -2    0.30    2.40
 -11   0   2   -2.80    2.50
 -11   0   2    2.20    1.90
  10   0  -2   -2.40    2.10
 -10   0   2   -0.70    1.70
 -10   0   2   -1.80    2.10
   9   0  -2    2.30    1.80
   9   0  -2    1.10    2.10
  -9   0   2    2.70    2.00
  -9   0   2    4.30    1.70
   8   0  -2   22.50    2.00
   8   0  -2   24.40    3.10
   8   0  -2   22.20    2.60
  -8   0   2   24.90    3.00
  -8   0   2   27.00    2.50
   7   0  -2   -0.50    0.70
   7   0  -2    0.30    1.30
   7   0  -2    0.70    0.80
  -7   0   2    0.40    1.60
  -7   0   2   -0.60    1.50
  -7   0   2   -0.90    1.30
   6   0  -2   23.50    2.10
   6   0  -2   15.60    1.70
   6   0  -2   22.20    2.40
   6   0  -2   19.70    1.50
  -6   0   2   19.70    2.30
  -6   0   2   19.20    2.40
  -6   0   2   21.70    1.90
   5   0  -2  167.28    5.80
   5   0  -2  162.18    6.20
   5   0  -2  172.78    5.90
   5   0  -2  160.88    6.30
   5   0  -2  162.08    6.70
  -5   0   2  168.98    6.80
  -5   0   2  176.08    6.30
  -5   0   2  167.38    6.70
   4   0  -2  216.68    7.30
   4   0  -2  209.58    7.70
   4   0  -2  229.28    8.30
   4   0  -2  213.58    7.90
   4   0  -2  216.08    7.60
   4   0  -2  257.77    9.20
   4   0  -2  215.88    7.20
  -4   0   2  209.18    8.10
  -4   0   2  219.58    7.70
  -4   0   2  206.58    8.00
   3   0  -2    3.80    0.90
   3   0  -2    3.80    1.10
   3   0  -2    4.60    0.40
   3   0  -2    3.40    1.00
   3   0  -2    5.90    0.90
   3   0  -2    4.80    0.90
   3   0  -2    4.90    0.40
   3   0  -2    3.50    1.00
   3   0  -2    5.70    1.20
  -3   0   2    4.20    0.90
  -3   0   2    4.80    1.10
  -3   0   2    3.60    1.20
  -3   0   2    2.00    1.10
   2   0  -2  827.52   26.20
   2   0  -2  828.22   26.30
   2   0  -2  813.32   26.00
   2   0  -2  789.42   26.20
   2   0  -2  779.02   26.30
  -2   0   2  815.22   26.30
  -2   0   2  812.32   26.40
  -2   0   2  792.72   26.00
  -2   0   2  771.42   26.20
  -2   0   2  836.42   26.10
  -2   0   2  793.92   26.20
   1   0  -2 1942.61   61.19
   1   0  -2 2005.60   61.19
   1   0  -2 1932.01   61.49
   1   0  -2 1878.91   61.39
   1   0  -2 1890.41   61.29
   1   0  -2 1955.10   61.19
  -1   0   2 1918.91   61.19
  -1   0   2 1918.61   61.49
  -1   0   2 1947.51   61.39
  -1   0   2 1807.12   61.29
  -1   0   2 1911.91   61.19
   0   0  -2   69.79    2.80
   0   0  -2   66.29    2.80
   0   0  -2   72.99    2.50
   0   0  -2   69.89    2.90
   0   0  -2   69.39    2.50
   0   0  -2   70.39    2.50
   0   0   2   67.49    2.50
   0   0   2   67.49    2.80
   0   0   2   68.09    2.50
   0   0   2   70.99    2.50
   0   0   2   69.29    2.50
   0   0   2   71.79    3.00
  -1   0  -2   19.80    1.00
  -1   0  -2   19.10    1.40
  -1   0  -2   20.30    1.10
  -1   0  -2   17.90    1.30
  -1   0  -2   19.80    1.50
  -1   0  -2   17.90    1.20
  -1   0  -2   21.30    1.50
   1   0   2   18.50    1.10
   1   0   2   18.30    1.50
   1   0   2   18.60    1.20
   1   0   2   20.90    1.00
   1   0   2   20.10    1.40
  -2   0  -2 1320.47   41.30
  -2   0  -2 1281.87   41.20
  -2   0  -2 1278.97   41.30
  -2   0  -2 1299.97   41.20
  -2   0  -2 1251.77   41.20
   2   0   2 1313.07   41.30
   2   0   2 1301.97   41.20
   2   0   2 1298.67   41.30
   2   0   2 1264.37   41.10
   2   0   2 1268.17   41.30
   2   0   2 1250.57   41.00
  -3   0  -2   58.59    2.30
  -3   0  -2   58.19    2.70
  -3   0  -2   56.29    2.60
  -3   0  -2   53.29    2.60
  -3   0  -2   56.49    2.70
   3   0   2   56.19    2.40
   3   0   2   56.19    2.60
   3   0   2   61.79    2.60
   3   0   2   54.49    2.50
   3   0   2   57.49    2.70
   3   0   2   56.39    2.60
   3   0   2   53.59    2.70
  -4   0  -2  542.55   18.10
  -4   0  -2  559.24   17.70
  -4   0  -2  547.55   18.20
  -4   0  -2  564.94   18.30
  -4   0  -2  537.05   18.20
  -4   0  -2  519.05   18.10
   4   0   2  525.35   18.30
   4   0   2  536.95   18.10
   4   0   2  567.64   18.30
   4   0   2  536.25   18.20
   4   0   2  571.64   18.60
  -5   0  -2  641.64   21.60
  -5   0  -2  641.54   21.70
  -5   0  -2  654.83   21.80
  -5   0  -2  649.14   21.60
  -5   0  -2  663.03   21.80
   5   0   2  659.83   21.70
   5   0   2  624.54   21.90
   5   0   2  675.43   21.80
  -6   0  -2   45.80    2.80
  -6   0  -2   49.70    2.80
  -6   0  -2   40.20    3.00
   6   0   2   44.50    2.80
   6   0   2   50.09    2.90
   6   0   2   46.70    3.30
  -7   0  -2  524.35   18.70
  -7   0  -2  544.65   18.20
  -7   0  -2  511.65   18.30
   7   0   2  546.55   19.00
   7   0   2  539.55   18.50
   7   0   2  548.45   18.50
  -8   0  -2    2.00    1.30
  -8   0  -2    0.10    1.70
  -8   0  -2    1.20    1.50
   8   0   2    2.90    1.70
   8   0   2    0.70    1.30
   8   0   2    2.10    1.40
  -9   0  -2  114.29    5.60
  -9   0  -2  106.49    6.00
  -9   0  -2  126.59    5.20
   9   0   2  126.89    5.80
   9   0   2  123.79    6.50
   9   0   2  104.09    5.60
 -10   0  -2    4.50    2.10
 -10   0  -2    5.80    2.60
  10   0   2    4.50    2.20
  10   0   2    3.60    1.80
 -11   0  -2    2.00    2.70
 -11   0  -2    2.60    1.90
  11   0   2    3.90    2.00
  11   0   2    3.40    2.50
  10  -1  -2    6.20    2.70
 -10   1   2    9.10    2.80
 -10   1   2    9.00    2.40
   9  -1  -2    3.80    2.30
  -9   1   2    5.80    2.30
  -9   1   2    8.90    2.10
   8  -1  -2    6.10    2.20
   8  -1  -2    4.70    1.60
  -8   1   2    1.60    2.00
  -8   1   2    4.90    1.70
   7  -1  -2  203.38    8.10
   7  -1  -2  210.88    7.70
   7  -1  -2  215.28    9.00
   7  -1  -2  194.28    7.50
  -7   1   2  218.58    8.10
  -7   1   2  205.18    8.60
   6  -1  -2  236.88    8.80
   6  -1  -2  232.98    8.20
   6  -1  -2  229.78    9.40
  -6   1   2  237.28    8.50
  -6   1   2  232.98    8.70
  -6   1   2  228.78    9.10
   5  -1  -2  218.38    8.70
   5  -1  -2  223.88    7.60
   5  -1  -2  212.38    8.20
   5  -1  -2  216.98    7.80
   5  -1  -2  216.68    7.60
  -5   1   2  219.58    8.40
  -5   1   2  225.78    8.10
  -5   1   2  227.38    8.00
   4  -1  -2  279.47   10.50
   4  -1  -2  306.97    9.90
   4  -1  -2  301.87   10.50
   4  -1  -2  297.27    9.90
   4  -1  -2  293.77   10.20
  -4   1   2  306.87   10.30
  -4   1   2  287.37   10.60
  -4   1   2  300.57   10.30
   3  -1  -2  739.73   24.90
   3  -1  -2  782.32   24.30
   3  -1  -2  770.82   24.70
   3  -1  -2  736.13   24.90
   3  -1  -2  764.12   24.90
   3  -1  -2  759.72   24.70
   3  -1  -2  767.22   24.30
  -3   1   2  763.42   25.00
  -3   1   2  744.83   24.70
  -3   1   2  750.92   24.80
   2  -1  -2   22.50    1.60
   2  -1  -2   22.70    0.80
   2  -1  -2   20.50    1.60
   2  -1  -2   24.60    1.60
   2  -1  -2   22.20    1.50
   2  -1  -2   23.40    0.80
   2  -1  -2   22.60    1.50
   2  -1  -2   23.60    1.40
  -2   1   2   22.50    1.50
  -2   1   2   24.70    1.70
  -2   1   2   20.50    1.70
  -2   1   2   21.10    1.70
   1  -1  -2  322.27   10.80
   1  -1  -2  340.97   10.80
   1  -1  -2  322.07   10.80
   1  -1  -2  323.07   10.80
   1  -1  -2  323.27   10.80
   1  -1  -2  339.47   10.90
   1  -1  -2  327.87   10.70
  -1   1   2  318.27   10.80
  -1   1   2  329.97   10.90
  -1   1   2  325.67   10.90
  -1   1   2  292.97   10.80
  -1   1   2  319.17   10.80
   0  -1  -2  765.02   23.50
   0  -1  -2  738.63   23.40
   0  -1  -2  711.43   23.40
   0  -1  -2  709.93   23.30
   0  -1  -2  743.53   23.30
   0  -1  -2  709.43   23.30
   0  -1  -2  731.93   23.20
   0  -1  -2  746.63   23.20
   0   1   2  704.83   23.30
   0   1   2  759.12   23.40
   0   1   2  697.53   23.10
   0   1   2  702.93   23.50
   0   1   2  753.92   23.60
   0   1   2  697.03   23.40
   0   1   2  718.73   23.10
  -1  -1  -2   75.59    3.00
  -1  -1  -2   78.59    2.90
  -1  -1  -2   74.19    2.80
  -1  -1  -2   70.89    2.50
  -1  -1  -2   78.69    2.80
  -1  -1  -2   78.39    3.00
  -1  -1  -2   71.29    2.80
   1   1   2   76.29    2.80
   1   1   2   74.79    2.80
   1   1   2   77.49    2.50
   1   1   2   71.29    2.80
   1   1   2   71.39    2.90
  -2  -1  -2  517.05   16.90
  -2  -1  -2  534.95   17.10
  -2  -1  -2  517.05   17.10
  -2  -1  -2  511.45   16.90
  -2  -1  -2  530.75   17.30
  -2  -1  -2  503.75   17.10
   2   1   2  532.65   17.10
   2   1   2  527.65   16.90
   2   1   2  522.85   16.90
   2   1   2  510.35   17.10
   2   1   2  537.65   17.10
   2   1   2  534.15   17.30
  -3  -1  -2  506.25   17.50
  -3  -1  -2  528.85   17.50
  -3  -1  -2  529.45   17.40
  -3  -1  -2  556.94   17.80
  -3  -1  -2  509.55   17.10
  -3  -1  -2  529.45   17.50
   3   1   2  552.04   17.80
   3   1   2  517.75   17.50
   3   1   2  543.75   17.10
   3   1   2  554.94   17.60
   3   1   2  530.85   17.40
   3   1   2  548.75   17.60
  -4  -1  -2  420.26   14.20
  -4  -1  -2  415.16   14.30
  -4  -1  -2  447.66   13.70
  -4  -1  -2  418.66   13.60
  -4  -1  -2  428.56   14.20
  -4  -1  -2  422.06   14.30
  -4  -1  -2  438.86   14.60
   4   1   2  414.86   14.30
   4   1   2  423.46   14.30
   4   1   2  442.06   14.50
   4   1   2  417.56   14.30
   4   1   2  417.16   14.30
   4   1   2  427.76   14.20
  -5  -1  -2   21.00    1.70
  -5  -1  -2   23.70    1.70
  -5  -1  -2   22.00    2.00
  -5  -1  -2   22.00    1.80
  -5  -1  -2   24.50    2.10
  -5  -1  -2   22.30    2.00
   5   1   2   24.90    2.20
   5   1   2   26.20    1.80
  -6  -1  -2   95.89    4.10
  -6  -1  -2  102.89    4.30
  -6  -1  -2  104.89    4.30
  -6  -1  -2   97.49    4.60
  -6  -1  -2   94.19    4.40
   6   1   2  103.69    4.70
   6   1   2  103.69    4.40
  -7  -1  -2  284.17   10.80
  -7  -1  -2  283.17   10.60
  -7  -1  -2  321.77   10.90
  -7  -1  -2  280.47   10.30
  -7  -1  -2  279.17   10.20
   7   1   2  281.67   10.70
   7   1   2  286.87   10.50
  -8  -1  -2    3.70    1.30
  -8  -1  -2    4.00    1.60
  -8  -1  -2    4.80    1.90
   8   1   2    5.30    1.70
   8   1   2    4.90    1.40
  -9  -1  -2   18.10    1.80
  -9  -1  -2   16.30    2.60
  -9  -1  -2   23.20    2.50
   9   1   2   23.60    2.50
   9   1   2   21.90    2.90
   9   1   2   14.50    2.30
 -10  -1  -2   31.40    2.80
 -10  -1  -2   32.70    3.60
 -10  -1  -2   30.40    3.00
  10   1   2   27.20    2.90
  10   1   2   30.70    3.70
  10   1   2   31.20    3.30
 -11  -1  -2   45.80    3.60
 -11  -1  -2   40.10    4.30
  11   1   2   51.09    4.90
  11   1   2   47.10    3.90
 -12  -1  -2    6.60    3.00
 -12  -1  -2   -3.20    2.30
  12   1   2    0.60    2.30
  10  -2  -2   -2.10    2.00
 -10   2   2    1.90    2.20
 -10   2   2    4.30    2.80
   9  -2  -2  407.76   16.20
  -9   2   2  395.86   15.80
  -9   2   2  419.16   15.30
   8  -2  -2   14.90    2.60
  -8   2   2   14.80    2.70
  -8   2   2   15.80    2.40
   7  -2  -2    5.10    2.10
   7  -2  -2    4.10    1.20
   7  -2  -2    6.20    1.30
  -7   2   2    6.50    2.00
  -7   2   2    6.90    1.30
  -7   2   2    6.90    1.80
   6  -2  -2   27.40    2.90
   6  -2  -2   26.20    2.10
   6  -2  -2   28.30    2.10
  -6   2   2   24.20    2.70
  -6   2   2   28.20    2.60
  -6   2   2   27.60    2.10
   5  -2  -2  144.69    5.60
   5  -2  -2  138.79    6.20
   5  -2  -2  136.29    5.00
   5  -2  -2  119.89    5.20
   5  -2  -2  126.79    5.10
   5  -2  -2  129.09    5.10
  -5   2   2  131.89    5.20
  -5   2   2  132.89    5.50
  -5   2   2  121.89    5.70
   4  -2  -2   14.00    1.30
   4  -2  -2   18.70    1.40
   4  -2  -2   15.30    1.40
   4  -2  -2   15.40    1.50
   4  -2  -2   15.00    1.40
   4  -2  -2   15.60    1.30
   4  -2  -2   14.10    1.90
  -4   2   2   16.20    1.60
  -4   2   2   15.90    1.70
  -4   2   2   13.10    1.80
   3  -2  -2   20.20    1.50
   3  -2  -2   19.60    1.50
   3  -2  -2   20.00    1.30
   3  -2  -2   21.10    1.30
   3  -2  -2   18.20    1.90
   3  -2  -2   20.90    1.50
  -3   2   2   20.20    1.90
  -3   2   2   18.20    1.70
  -3   2   2   19.80    1.70
   2  -2  -2   50.89    2.70
   2  -2  -2   52.59    2.60
   2  -2  -2   49.70    2.10
   2  -2  -2   44.50    2.50
   2  -2  -2   49.70    2.40
   2  -2  -2   52.59    2.30
   2  -2  -2   49.50    2.40
   2  -2  -2   52.29    2.10
  -2   2   2   49.99    2.40
  -2   2   2   50.19    2.50
  -2   2   2   49.00    2.60
  -2   2   2   43.50    2.40
   1  -2  -2    2.00    0.80
   1  -2  -2    1.50    0.70
   1  -2  -2    2.10    0.60
   1  -2  -2    3.20    0.60
   1  -2  -2    2.00    0.80
   1  -2  -2    2.80    0.70
   1  -2  -2    2.00    0.80
   1  -2  -2    2.50    0.60
  -1   2   2    2.60    0.80
  -1   2   2    1.80    1.00
  -1   2   2    1.30    0.90
  -1   2   2    2.20    0.80
  -1   2   2    1.30    0.70
  -1   2   2    2.00    0.40
  -1   2   2    1.70    0.40
   0  -2  -2  540.05   17.60
   0  -2  -2  540.15   17.70
   0  -2  -2  550.04   17.60
   0  -2  -2  515.25   17.50
   0  -2  -2  558.24   17.40
   0  -2  -2  557.54   17.60
   0  -2  -2  523.75   17.70
   0  -2  -2  538.55   17.50
   0  -2  -2  560.44   17.60
   0   2   2  512.35   17.40
   0   2   2  562.04   17.60
   0   2   2  506.05   17.70
   0   2   2  557.14   17.50
   0   2   2  563.64   17.60
   0   2   2  556.74   17.80
   0   2   2  519.15   17.60
  -1  -2  -2   49.99    2.20
  -1  -2  -2   49.80    2.20
  -1  -2  -2   51.09    2.00
  -1  -2  -2   56.39    2.30
  -1  -2  -2   51.89    2.20
  -1  -2  -2   52.19    2.10
  -1  -2  -2   50.79    2.20
   1   2   2   51.39    2.20
   1   2   2   50.79    2.20
   1   2   2   50.29    2.10
   1   2   2   52.09    2.10
   1   2   2   53.19    2.20
   1   2   2   54.39    2.10
   1   2   2   52.49    2.30
  -2  -2  -2 6219.08  210.88
  -2  -2  -2 6560.44  210.88
  -2  -2  -2 6586.94  211.78
  -2  -2  -2 6856.91  210.88
  -2  -2  -2 6846.92  211.18
  -2  -2  -2 6761.72  210.78
   2   2   2 6635.44  211.78
   2   2   2 6549.65  211.18
   2   2   2 6784.82  210.88
   2   2   2 6469.35  210.78
   2   2   2 6577.34  210.88
   2   2   2 6726.83  211.48
   2   2   2 6758.32  210.88
  -3  -2  -2  598.34   18.90
  -3  -2  -2  583.74   19.10
  -3  -2  -2  518.85   19.00
  -3  -2  -2  586.34   19.00
  -3  -2  -2  590.04   19.10
  -3  -2  -2  597.04   19.40
   3   2   2  589.84   19.10
   3   2   2  601.64   19.10
   3   2   2  583.54   18.80
   3   2   2  604.94   19.40
   3   2   2  569.04   19.10
   3   2   2  573.14   19.00
  -4  -2  -2  393.16   13.40
  -4  -2  -2  415.06   13.10
  -4  -2  -2  391.56   13.50
  -4  -2  -2  404.96   13.50
  -4  -2  -2  410.36   13.40
  -4  -2  -2  379.66   13.50
  -4  -2  -2  410.36   13.80
   4   2   2  387.16   13.40
   4   2   2  404.96   13.80
   4   2   2  397.36   13.50
   4   2   2  393.56   13.40
   4   2   2  404.56   12.90
   4   2   2  400.26   13.50
  -5  -2  -2  585.54   19.10
  -5  -2  -2  567.74   18.50
  -5  -2  -2  574.34   19.20
  -5  -2  -2  544.95   19.20
  -5  -2  -2  594.04   19.10
  -5  -2  -2  575.54   18.90
   5   2   2  591.74   18.40
   5   2   2  598.74   19.30
   5   2   2  572.94   19.60
   5   2   2  545.25   19.10
  -6  -2  -2  140.19    5.70
  -6  -2  -2  132.59    5.10
  -6  -2  -2  131.89    5.50
  -6  -2  -2  135.69    5.30
  -6  -2  -2  137.89    5.20
   6   2   2  132.49    5.40
   6   2   2  138.89    5.90
  -7  -2  -2   87.29    3.60
  -7  -2  -2   75.39    3.70
  -7  -2  -2   74.89    4.10
  -7  -2  -2   78.49    4.00
  -7  -2  -2   81.69    3.60
   7   2   2   81.09    4.50
   7   2   2   81.59    3.90
  -8  -2  -2  214.58    8.80
  -8  -2  -2  223.08    8.10
  -8  -2  -2  232.58    8.20
  -8  -2  -2  222.68    8.20
  -8  -2  -2  215.18    8.90
   8   2   2  216.18    8.40
   8   2   2  221.18    9.10
  -9  -2  -2   -1.70    1.80
  -9  -2  -2    1.40    1.10
  -9  -2  -2    2.50    1.40
  -9  -2  -2    1.50    1.70
   9   2   2    0.40    1.30
   9   2   2    2.50    1.80
 -10  -2  -2   76.59    4.10
 -10  -2  -2   80.99    3.70
 -10  -2  -2   75.29    5.00
  10   2   2   73.59    5.00
  10   2   2   85.99    4.60
 -11  -2  -2   63.59    3.80
 -11  -2  -2   60.19    5.10
  11   2   2   62.99    5.00
  11   2   2   68.39    4.30
  11   2   2   52.59    4.60
 -12  -2  -2   -0.50    2.50
  12   2   2    4.80    2.60
   9  -3  -2   -2.20    2.00
  -9   3   2    0.50    1.90
  -9   3   2    2.60    2.50
   8  -3  -2    6.90    2.50
  -8   3   2    4.40    2.60
  -8   3   2    7.90    2.40
   7  -3  -2   11.50    1.70
   7  -3  -2   14.30    2.70
  -7   3   2   12.60    2.20
  -7   3   2    9.70    2.60
  -7   3   2   11.30    1.60
   6  -3  -2   93.99    5.40
   6  -3  -2   89.29    3.60
   6  -3  -2   86.79    4.20
  -6   3   2   95.09    4.80
  -6   3   2   91.09    5.00
  -6   3   2   92.09    4.20
   5  -3  -2 1030.70   34.30
   5  -3  -2 1017.90   33.70
   5  -3  -2 1051.39   34.20
   5  -3  -2 1080.89   35.30
   5  -3  -2 1021.80   34.10
  -5   3   2 1051.09   34.90
  -5   3   2 1057.89   34.30
  -5   3   2 1073.79   34.70
   4  -3  -2  728.63   23.80
   4  -3  -2  753.32   24.30
   4  -3  -2  705.83   24.40
   4  -3  -2  711.13   24.10
   4  -3  -2  702.93   25.00
  -4   3   2  754.12   24.90
  -4   3   2  766.22   24.70
  -4   3   2  773.22   23.60
  -4   3   2  745.63   24.40
   3  -3  -2    8.90    1.10
   3  -3  -2    9.70    1.00
   3  -3  -2    8.80    1.20
   3  -3  -2    7.30    1.10
   3  -3  -2    9.60    0.70
   3  -3  -2    8.60    1.10
   3  -3  -2    9.90    1.50
  -3   3   2   11.10    1.40
  -3   3   2   11.60    1.00
  -3   3   2    8.00    1.40
  -3   3   2    8.10    1.50
  -3   3   2    9.90    0.80
   2  -3  -2   23.00    1.30
   2  -3  -2   21.90    1.00
   2  -3  -2   19.30    1.60
   2  -3  -2   21.80    1.90
   2  -3  -2   20.80    1.60
   2  -3  -2   22.30    1.50
   2  -3  -2   21.70    1.10
   2  -3  -2   22.60    1.50
  -2   3   2   18.20    1.80
  -2   3   2   20.60    1.20
  -2   3   2   22.30    1.80
  -2   3   2   25.50    1.40
  -2   3   2   19.40    1.70
   1  -3  -2 1051.49   34.50
   1  -3  -2 1064.19   34.10
   1  -3  -2 1059.29   34.40
   1  -3  -2 1089.69   34.00
   1  -3  -2 1086.29   33.90
   1  -3  -2 1112.69   34.30
   1  -3  -2 1048.10   34.30
   1  -3  -2 1078.49   34.50
   1  -3  -2 1068.69   34.50
   1  -3  -2 1088.49   34.20
  -1   3   2 1066.09   34.30
  -1   3   2 1001.70   34.00
  -1   3   2  984.00   34.30
  -1   3   2 1051.49   34.50
  -1   3   2 1062.59   34.00
  -1   3   2 1043.00   34.00
   0  -3  -2  105.59    3.60
   0  -3  -2   96.69    3.90
   0  -3  -2   90.69    3.90
   0  -3  -2   94.79    4.00
   0  -3  -2  102.69    3.70
   0  -3  -2   98.39    3.70
   0  -3  -2   93.89    3.90
   0  -3  -2   94.19    3.60
   0   3   2   94.39    3.70
   0   3   2   97.09    3.70
   0   3   2   98.69    3.90
   0   3   2   90.89    3.70
   0   3   2   94.79    3.90
   0   3   2   96.19    3.60
   0   3   2  104.09    3.60
  -1  -3  -2  987.00   30.10
  -1  -3  -2  950.00   30.50
  -1  -3  -2  878.81   30.70
  -1  -3  -2  985.40   30.60
  -1  -3  -2  952.60   30.60
  -1  -3  -2  945.11   30.30
  -1  -3  -2  946.21   30.50
  -1  -3  -2  953.00   30.60
   1   3   2  971.90   30.60
   1   3   2  914.71   30.60
   1   3   2  936.21   30.60
   1   3   2  969.70   30.60
   1   3   2  912.91   30.30
   1   3   2  897.71   30.50
   1   3   2  968.60   30.50
  -2  -3  -2  441.36   14.40
  -2  -3  -2  433.26   14.40
  -2  -3  -2  420.96   14.40
  -2  -3  -2  405.46   14.30
  -2  -3  -2  423.66   14.00
  -2  -3  -2  435.26   14.60
  -2  -3  -2  431.86   14.50
   2   3   2  418.66   14.30
   2   3   2  461.85   14.60
   2   3   2  448.56   14.50
   2   3   2  445.46   14.40
   2   3   2  446.76   14.30
   2   3   2  436.06   14.00
   2   3   2  413.86   14.30
   2   3   2  426.96   14.30
  -3  -3  -2  619.84   19.50
  -3  -3  -2  564.64   19.50
  -3  -3  -2  584.94   19.40
  -3  -3  -2  593.44   19.80
  -3  -3  -2  599.94   19.50
  -3  -3  -2  594.34   19.50
   3   3   2  620.94   19.40
   3   3   2  594.54   19.50
   3   3   2  578.04   19.40
   3   3   2  580.34   19.80
   3   3   2  577.74   19.50
   3   3   2  598.44   19.40
   3   3   2  582.24   19.50
   3   3   2  608.94   19.30
  -4  -3  -2  277.47    9.20
  -4  -3  -2  245.28    9.20
  -4  -3  -2  267.67    9.10
  -4  -3  -2  241.28    9.10
  -4  -3  -2  265.77    9.20
  -4  -3  -2  266.47    9.70
  -4  -3  -2  270.47    9.20
   4   3   2  256.97    9.20
   4   3   2  269.87    9.70
   4   3   2  254.17    9.10
   4   3   2  272.87    9.20
   4   3   2  272.07    9.20
   4   3   2  267.17    9.10
   4   3   2  272.07    9.30
  -5  -3  -2 1340.37   42.20
  -5  -3  -2 1317.07   42.60
  -5  -3  -2 1370.16   42.70
  -5  -3  -2 1276.27   42.70
  -5  -3  -2 1323.17   42.50
  -5  -3  -2 1279.77   42.30
   5   3   2 1298.17   43.10
   5   3   2 1323.97   42.60
  -6  -3  -2  432.76   14.50
  -6  -3  -2  436.46   14.10
  -6  -3  -2  407.66   14.70
  -6  -3  -2  439.46   14.80
  -6  -3  -2  441.46   14.40
  -6  -3  -2  390.06   13.90
   6   3   2  443.16   14.60
   6   3   2  415.76   15.20
  -7  -3  -2   35.30    2.00
  -7  -3  -2   35.40    2.80
  -7  -3  -2   41.30    2.50
  -7  -3  -2   37.90    2.80
  -7  -3  -2   35.70    2.20
   7   3   2   34.60    1.60
   7   3   2   36.40    3.30
   7   3   2   35.70    1.50
   7   3   2   34.70    2.50
  -8  -3  -2   18.40    1.80
  -8  -3  -2   15.90    1.50
  -8  -3  -2   13.50    2.30
  -8  -3  -2   20.50    1.70
  -8  -3  -2   18.60    2.30
   8   3   2   15.60    2.40
   8   3   2   17.60    2.00
  -9  -3  -2   11.50    2.30
  -9  -3  -2   10.30    1.50
  -9  -3  -2   10.00    2.30
  -9  -3  -2    9.50    1.40
   9   3   2   10.60    1.70
   9   3   2   13.00    2.60
 -10  -3  -2  148.69    5.70
 -10  -3  -2  143.29    7.00
 -10  -3  -2  146.59    7.00
 -10  -3  -2  148.19    5.90
  10   3   2  138.19    7.30
  10   3   2  144.29    6.50
 -11  -3  -2    3.20    2.40
 -11  -3  -2    4.30    2.30
  11   3   2   -0.30    2.00
  11   3   2    1.40    1.60
 -12  -3  -2    0.70    2.30
  12   3   2   -1.90    2.30
   9  -4  -2  147.49    8.40
  -9   4   2  145.69    8.20
  -9   4   2  150.98    7.60
   8  -4  -2   96.29    6.50
  -8   4   2   94.69    6.00
  -8   4   2  101.49    5.70
   7  -4  -2   34.60    2.90
   7  -4  -2   35.10    3.70
  -7   4   2   39.20    2.80
  -7   4   2   43.70    3.80
  -7   4   2   35.40    3.70
   6  -4  -2  364.26   13.30
   6  -4  -2  371.46   14.50
  -6   4   2  368.66   13.80
  -6   4   2  383.76   13.30
  -6   4   2  383.56   14.20
   5  -4  -2    6.20    1.40
   5  -4  -2    5.70    2.00
  -5   4   2    5.80    2.00
  -5   4   2   10.20    2.00
  -5   4   2    6.50    0.70
  -5   4   2    7.30    0.80
  -5   4   2    7.60    1.50
   4  -4  -2  351.26   12.90
   4  -4  -2  347.07   11.30
   4  -4  -2  344.47   12.10
  -4   4   2  347.17   12.20
  -4   4   2  336.87   11.50
  -4   4   2  336.07   12.40
  -4   4   2  356.06   11.60
  -4   4   2  336.97   12.60
   3  -4  -2  186.28    6.60
   3  -4  -2  176.68    7.20
   3  -4  -2  175.58    5.80
  -3   4   2  159.68    6.90
  -3   4   2  179.08    6.70
  -3   4   2  176.78    6.30
  -3   4   2  170.78    6.20
  -3   4   2  168.18    6.80
   2  -4  -2 1099.19   35.50
   2  -4  -2 1034.70   35.90
  -2   4   2 1104.09   35.30
  -2   4   2 1090.49   35.70
  -2   4   2 1068.59   35.60
  -2   4   2 1104.19   35.20
  -2   4   2 1135.79   35.70
   1  -4  -2   41.20    2.50
   1  -4  -2   41.20    2.40
   1  -4  -2   42.80    2.70
   1  -4  -2   47.10    2.30
   1  -4  -2   42.80    2.60
   1  -4  -2   43.90    1.70
  -1   4   2   40.60    1.80
  -1   4   2   47.00    2.60
  -1   4   2   42.40    2.30
  -1   4   2   40.60    2.40
  -1   4   2   43.50    2.20
   0  -4  -2    1.00    0.70
   0  -4  -2   -0.10    0.80
   0  -4  -2    1.20    0.90
   0  -4  -2   -0.10    1.00
   0  -4  -2    0.60    0.90
   0  -4  -2    1.60    0.80
   0  -4  -2    1.30    1.10
   0  -4  -2    1.10    0.60
   0   4   2   -0.10    0.90
   0   4   2    0.20    1.00
   0   4   2    0.90    0.70
   0   4   2    1.00    1.00
   0   4   2    1.90    0.70
   0   4   2    1.80    0.70
   0   4   2   -0.60    1.10
   0   4   2    0.40    0.80
  -1  -4  -2  672.33   20.90
  -1  -4  -2  632.04   21.00
  -1  -4  -2  640.64   21.20
  -1  -4  -2  618.94   20.90
  -1  -4  -2  594.54   20.90
  -1  -4  -2  657.73   20.50
  -1  -4  -2  624.04   20.70
  -1  -4  -2  597.84   21.00
   1   4   2  675.43   21.10
   1   4   2  639.04   20.90
   1   4   2  644.94   20.90
   1   4   2  637.44   21.30
   1   4   2  619.74   21.10
   1   4   2  663.83   21.00
   1   4   2  642.54   20.90
   1   4   2  626.24   20.70
  -2  -4  -2   19.60    1.70
  -2  -4  -2   22.60    1.80
  -2  -4  -2   21.10    1.80
  -2  -4  -2   22.30    1.20
  -2  -4  -2   22.10    1.60
  -2  -4  -2   20.60    1.20
  -2  -4  -2   23.60    1.70
  -2  -4  -2   23.40    1.90
   2   4   2   20.10    1.60
   2   4   2   21.60    2.00
   2   4   2   24.50    1.60
   2   4   2   23.90    1.80
   2   4   2   20.20    1.20
   2   4   2   19.80    1.20
   2   4   2   23.90    2.10
   2   4   2   20.20    1.70
   2   4   2   20.00    1.80
  -3  -4  -2    0.90    0.90
  -3  -4  -2    0.00    0.40
  -3  -4  -2    0.70    0.90
  -3  -4  -2   -0.30    0.90
  -3  -4  -2    0.90    0.90
  -3  -4  -2    0.40    0.70
  -3  -4  -2    0.40    0.80
   3   4   2    0.60    0.80
   3   4   2    0.70    1.10
   3   4   2    0.10    0.90
   3   4   2   -0.40    0.90
   3   4   2   -0.10    0.80
   3   4   2   -0.20    0.60
   3   4   2    0.60    0.70
  -4  -4  -2  574.74   19.10
  -4  -4  -2  568.14   18.90
  -4  -4  -2  544.45   18.90
  -4  -4  -2  576.44   18.90
  -4  -4  -2  546.85   18.10
  -4  -4  -2  560.64   18.90
   4   4   2  566.14   18.80
   4   4   2  578.34   19.10
   4   4   2  601.94   19.00
   4   4   2  594.74   18.90
   4   4   2  573.84   19.40
   4   4   2  540.55   18.80
   4   4   2  558.34   18.90
  -5  -4  -2  177.68    6.50
  -5  -4  -2  184.88    5.90
  -5  -4  -2  174.48    6.60
  -5  -4  -2  165.58    6.60
  -5  -4  -2  185.28    6.70
  -5  -4  -2  173.78    6.70
  -5  -4  -2  177.18    6.60
   5   4   2  171.58    6.60
   5   4   2  177.98    6.60
   5   4   2  178.98    7.30
  -6  -4  -2  178.48    7.10
  -6  -4  -2  197.28    7.10
  -6  -4  -2  193.38    6.50
  -6  -4  -2  187.48    7.30
  -6  -4  -2  188.88    7.40
  -6  -4  -2  195.48    7.00
   6   4   2  195.88    8.10
   6   4   2  199.98    7.40
   6   4   2  197.48    7.00
  -7  -4  -2   13.30    1.00
  -7  -4  -2   10.10    1.50
  -7  -4  -2   12.50    1.90
  -7  -4  -2   15.80    2.00
  -7  -4  -2   14.20    1.30
   7   4   2   11.80    2.20
   7   4   2   11.60    1.70
  -8  -4  -2   45.60    2.80
  -8  -4  -2   42.60    3.40
  -8  -4  -2   44.60    3.30
  -8  -4  -2   39.60    2.10
   8   4   2   41.70    3.00
   8   4   2   51.29    2.80
   8   4   2   45.40    4.10
  -9  -4  -2    0.10    1.10
  -9  -4  -2    1.00    0.70
  -9  -4  -2   -1.00    1.60
  -9  -4  -2   -0.40    1.70
   9   4   2   -0.70    1.90
   9   4   2    0.00    1.30
 -10  -4  -2    2.90    1.00
 -10  -4  -2    2.20    2.00
 -10  -4  -2    0.50    2.00
 -10  -4  -2    1.80    1.10
  10   4   2    1.10    1.50
  10   4   2   -1.10    2.10
 -11  -4  -2  129.49    6.70
 -11  -4  -2  123.49    6.70
  11   4   2  127.19    6.20
  11   4   2  121.29    7.30
 -12  -4  -2   13.10    3.00
 -12  -4  -2    6.00    2.60
  12   4   2    9.40    3.00
  12   4   2   16.10    2.60
   8  -5  -2   29.60    4.10
  -8   5   2   23.10    3.60
  -8   5   2   23.80    3.80
   7  -5  -2   11.50    2.70
   7  -5  -2   19.40    2.40
  -7   5   2   18.00    3.00
  -7   5   2   17.10    3.10
   6  -5  -2   68.59    4.70
   6  -5  -2   60.49    3.70
  -6   5   2   53.79    4.10
  -6   5   2   56.89    4.40
  -6   5   2   60.09    3.50
   5  -5  -2   25.50    3.00
   5  -5  -2   27.60    2.60
  -5   5   2   29.70    2.50
  -5   5   2   32.80    3.10
  -5   5   2   36.80    3.50
  -5   5   2   30.60    1.90
   4  -5  -2   44.80    2.90
   4  -5  -2   41.60    3.70
  -4   5   2   41.90    2.90
  -4   5   2   38.50    3.30
  -4   5   2   37.90    2.20
  -4   5   2   46.20    2.50
  -4   5   2   41.00    3.20
   3  -5  -2    7.30    1.80
   3  -5  -2    7.80    1.40
  -3   5   2    6.70    1.70
  -3   5   2    8.50    1.70
  -3   5   2    7.70    1.80
  -3   5   2    6.40    1.00
  -3   5   2    8.40    1.30
   2  -5  -2  109.29    4.70
   2  -5  -2  104.99    5.10
   2  -5  -2  104.39    5.00
  -2   5   2   94.09    4.60
  -2   5   2  114.29    4.50
  -2   5   2  103.29    4.30
  -2   5   2  114.29    4.80
   1  -5  -2   86.29    3.80
   1  -5  -2   84.89    4.10
   1  -5  -2   83.49    3.90
  -1   5   2   86.09    3.70
  -1   5   2   75.89    3.50
  -1   5   2   78.89    3.90
  -1   5   2   79.29    3.70
   0  -5  -2   22.00    1.90
   0  -5  -2   24.80    1.50
   0  -5  -2   25.20    2.20
   0  -5  -2   23.80    1.90
   0   5   2   26.60    2.20
   0   5   2   23.70    1.80
   0   5   2   22.80    1.80
   0   5   2   25.30    2.50
   0   5   2   24.30    1.60
   0   5   2   22.70    2.00
   0   5   2   25.70    1.50
  -1  -5  -2   43.00    2.00
  -1  -5  -2   43.00    2.50
  -1  -5  -2   41.50    2.40
  -1  -5  -2   39.50    2.10
  -1  -5  -2   42.90    2.70
  -1  -5  -2   41.30    2.20
   1   5   2   41.20    2.80
   1   5   2   40.90    2.20
   1   5   2   43.40    2.40
   1   5   2   41.70    2.30
   1   5   2   38.40    2.30
   1   5   2   44.20    2.40
   1   5   2   41.10    3.00
  -2  -5  -2  358.86   12.50
  -2  -5  -2  387.96   12.50
  -2  -5  -2  367.76   13.00
  -2  -5  -2  388.66   12.90
  -2  -5  -2  374.36   13.10
  -2  -5  -2  380.96   13.10
   2   5   2  380.26   12.50
   2   5   2  390.56   13.50
   2   5   2  388.66   13.20
   2   5   2  370.86   13.00
   2   5   2  383.86   12.50
   2   5   2  367.86   12.90
  -3  -5  -2  212.78    7.10
  -3  -5  -2  206.78    7.40
  -3  -5  -2  216.58    7.90
  -3  -5  -2  213.58    8.20
  -3  -5  -2  214.68    7.70
  -3  -5  -2  216.08    7.80
  -3  -5  -2  205.08    7.70
   3   5   2  216.78    7.10
   3   5   2  217.78    7.40
   3   5   2  211.28    7.60
   3   5   2  213.08    8.20
   3   5   2  216.88    8.20
   3   5   2  209.58    7.80
  -4  -5  -2  119.89    4.70
  -4  -5  -2  117.79    4.60
  -4  -5  -2  117.59    3.80
  -4  -5  -2  111.99    4.80
  -4  -5  -2  118.89    5.60
  -4  -5  -2  111.69    4.80
   4   5   2  117.09    4.50
   4   5   2  109.19    4.80
   4   5   2  118.79    5.40
   4   5   2  117.29    5.10
  -5  -5  -2  163.88    6.20
  -5  -5  -2  155.18    6.50
  -5  -5  -2  155.08    6.20
  -5  -5  -2  179.68    6.30
  -5  -5  -2  157.68    6.30
   5   5   2  155.48    6.90
   5   5   2  157.58    6.40
   5   5   2  165.48    6.40
  -6  -5  -2   24.40    2.10
  -6  -5  -2   27.70    2.30
  -6  -5  -2   22.00    2.00
  -6  -5  -2   24.80    2.30
  -6  -5  -2   27.80    2.20
   6   5   2   26.10    2.80
   6   5   2   26.60    2.30
   6   5   2   27.50    2.30
  -7  -5  -2   56.29    3.70
  -7  -5  -2   53.69    3.30
  -7  -5  -2   56.79    2.00
  -7  -5  -2   55.79    3.00
  -7  -5  -2   54.19    3.20
   7   5   2   54.09    4.20
   7   5   2   61.69    3.30
   7   5   2   57.79    3.10
  -8  -5  -2   35.40    1.50
  -8  -5  -2   33.60    2.20
  -8  -5  -2   35.00    3.00
  -8  -5  -2   39.20    2.70
  -8  -5  -2   33.60    3.10
   8   5   2   32.70    3.70
   8   5   2   36.10    2.40
   8   5   2   36.40    2.90
  -9  -5  -2   63.29    4.20
  -9  -5  -2   51.79    4.10
  -9  -5  -2   57.79    2.40
  -9  -5  -2   59.59    3.30
   9   5   2   54.99    4.70
   9   5   2   55.69    3.70
 -10  -5  -2    1.80    1.10
 -10  -5  -2    5.50    2.10
 -10  -5  -2    6.70    2.30
  10   5   2    4.50    2.50
  10   5   2    6.60    1.80
 -11  -5  -2   47.50    4.40
 -11  -5  -2   34.80    3.80
  11   5   2   37.30    3.50
  11   5   2   34.90    4.20
 -12  -5  -2    1.60    2.70
 -12  -5  -2   -0.70    2.30
  12   5   2    3.50    2.00
  12   5   2    0.10    2.60
   8  -6  -2   -2.10    2.30
  -8   6   2    8.10    2.80
  -8   6   2   -1.50    2.50
   7  -6  -2   29.30    3.50
   7  -6  -2   27.70    4.00
  -7   6   2   26.20    3.70
  -7   6   2   24.10    3.60
   6  -6  -2   19.40    2.50
   6  -6  -2   15.00    2.90
  -6   6   2   19.30    2.30
  -6   6   2   20.30    3.30
  -6   6   2   17.70    2.90
   5  -6  -2   12.30    2.50
   5  -6  -2   13.00    2.10
  -5   6   2   13.30    2.50
  -5   6   2   11.70    1.50
  -5   6   2   11.70    2.60
  -5   6   2   13.40    2.10
   4  -6  -2  166.98    7.70
   4  -6  -2  154.58    6.80
  -4   6   2  152.58    7.00
  -4   6   2  164.08    6.90
  -4   6   2  160.58    6.30
   3  -6  -2  215.68    9.10
   3  -6  -2  218.38    8.80
   3  -6  -2  225.68    8.50
  -3   6   2  192.78    8.40
  -3   6   2  228.48    8.60
  -3   6   2  207.58    8.10
   2  -6  -2  254.07    9.60
   2  -6  -2  255.47    9.90
   2  -6  -2  237.28   10.00
  -2   6   2  268.07    9.80
  -2   6   2  252.07    9.60
  -2   6   2  262.47    9.40
   1  -6  -2   45.60    3.20
   1  -6  -2   42.40    2.80
   1  -6  -2   46.30    3.00
  -1   6   2   42.20    2.80
  -1   6   2   45.60    3.50
  -1   6   2   48.40    2.90
  -1   6   2   42.70    3.00
   0  -6  -2  484.45   16.10
   0  -6  -2  453.65   16.80
   0  -6  -2  488.35   16.60
   0  -6  -2  510.75   16.20
   0  -6  -2  507.35   16.60
   0   6   2  483.55   15.80
   0   6   2  476.95   16.80
   0   6   2  488.05   16.40
   0   6   2  488.85   17.10
   0   6   2  484.95   16.00
   0   6   2  436.26   16.40
  -1  -6  -2   32.70    2.50
  -1  -6  -2   32.70    2.10
  -1  -6  -2   36.20    2.00
  -1  -6  -2   32.60    2.20
  -1  -6  -2   38.60    2.80
   1   6   2   38.50    2.20
   1   6   2   36.40    2.90
   1   6   2   36.30    2.80
   1   6   2   31.30    2.40
   1   6   2   40.20    2.30
  -2  -6  -2   -1.40    0.90
  -2  -6  -2    1.10    1.20
  -2  -6  -2   -0.70    0.80
  -2  -6  -2    0.20    0.60
  -2  -6  -2    0.30    0.80
  -2  -6  -2   -0.60    0.60
   2   6   2   -0.60    0.80
   2   6   2   -0.30    1.20
   2   6   2    0.30    1.10
   2   6   2   -0.60    1.00
  -3  -6  -2  531.85   19.10
  -3  -6  -2  573.24   18.60
  -3  -6  -2  577.04   19.10
  -3  -6  -2  585.64   18.90
  -3  -6  -2  563.64   18.30
  -3  -6  -2  553.44   19.10
   3   6   2  559.14   19.50
   3   6   2  555.24   18.50
   3   6   2  576.94   19.10
   3   6   2  543.45   18.30
   3   6   2  569.14   19.40
  -4  -6  -2  788.42   24.30
  -4  -6  -2  722.53   24.40
  -4  -6  -2  713.03   24.40
  -4  -6  -2  754.42   24.10
   4   6   2  723.83   24.80
   4   6   2  736.53   24.10
   4   6   2  713.33   24.40
   4   6   2  691.73   24.90
  -5  -6  -2  220.78    8.50
  -5  -6  -2  232.48    8.30
  -5  -6  -2  220.68    8.30
  -5  -6  -2  224.98    8.20
   5   6   2  223.88    8.80
   5   6   2  214.98    9.10
   5   6   2  218.38    8.50
  -6  -6  -2   28.40    2.20
  -6  -6  -2   24.90    2.40
  -6  -6  -2   27.10    2.20
  -6  -6  -2   29.90    2.40
   6   6   2   27.10    2.70
   6   6   2   25.10    2.40
   6   6   2   25.20    2.90
  -7  -6  -2 1022.70   34.40
  -7  -6  -2 1036.30   34.80
  -7  -6  -2 1057.69   34.60
   7   6   2 1037.70   35.70
   7   6   2 1032.40   34.70
   7   6   2 1081.09   34.70
  -8  -6  -2  261.87   10.20
  -8  -6  -2  251.77    9.60
  -8  -6  -2  260.47   10.00
   8   6   2  248.08   11.00
   8   6   2  255.77    9.70
   8   6   2  269.37   10.00
  -9  -6  -2  147.59    6.00
  -9  -6  -2  139.09    6.80
  -9  -6  -2  158.08    6.80
   9   6   2  131.79    7.50
   9   6   2  144.09    6.50
   9   6   2  141.79    5.90
 -10  -6  -2   92.19    5.20
 -10  -6  -2   95.39    4.30
 -10  -6  -2   89.49    5.30
  10   6   2   77.29    6.10
  10   6   2   89.19    5.00
 -11  -6  -2   36.10    3.90
 -11  -6  -2   34.80    3.90
  11   6   2   38.00    3.60
  11   6   2   34.00    4.40
 -12  -6  -2   38.40    4.10
 -12  -6  -2   36.50    4.20
  12   6   2   47.40    4.00
  12   6   2   34.70    4.60
   7  -7  -2    1.20    2.30
   7  -7  -2   -1.40    2.30
  -7   7   2    2.90    2.70
   6  -7  -2  141.69    7.00
   6  -7  -2  150.28    8.20
   6  -7  -2  141.69    7.80
  -6   7   2  144.49    7.40
   5  -7  -2   29.80    3.10
   5  -7  -2   29.00    3.40
   5  -7  -2   30.60    3.80
  -5   7   2   30.60    3.10
  -5   7   2   29.40    2.40
  -5   7   2   26.40    3.40
   4  -7  -2  101.89    5.30
   4  -7  -2  102.29    6.10
   4  -7  -2  103.29    5.80
  -4   7   2  104.09    5.40
  -4   7   2   98.29    4.70
  -4   7   2   86.79    5.20
   3  -7  -2    9.40    2.10
   3  -7  -2   17.50    2.30
   3  -7  -2   15.00    2.50
  -3   7   2   15.90    2.10
  -3   7   2   18.90    2.50
  -3   7   2   15.60    2.50
   2  -7  -2  615.24   21.50
   2  -7  -2  613.34   21.90
   2  -7  -2  626.44   21.30
  -2   7   2  612.74   21.20
  -2   7   2  586.94   21.40
  -2   7   2  638.44   21.10
   1  -7  -2  146.29    6.30
   1  -7  -2  142.69    6.20
   1  -7  -2  141.79    6.70
  -1   7   2  143.39    6.50
  -1   7   2  151.58    6.20
  -1   7   2  139.19    6.10
  -1   7   2  133.69    6.70
   0  -7  -2  100.99    4.90
   0  -7  -2  108.69    4.80
   0  -7  -2   97.49    5.20
   0  -7  -2  107.39    4.40
   0   7   2   99.09    5.20
   0   7   2  104.09    4.20
   0   7   2   95.49    4.70
   0   7   2   98.69    4.70
   0   7   2  109.69    3.90
   0   7   2  104.29    5.40
  -1  -7  -2    1.20    0.80
  -1  -7  -2    1.70    1.30
  -1  -7  -2    0.20    1.10
  -1  -7  -2    2.20    1.30
  -1  -7  -2    1.90    0.90
   1   7   2    2.00    1.20
   1   7   2    1.40    1.50
   1   7   2    1.10    1.50
   1   7   2    0.70    1.40
   1   7   2    1.60    1.10
  -2  -7  -2  163.38    7.00
  -2  -7  -2  161.28    6.80
  -2  -7  -2  170.58    6.30
  -2  -7  -2  172.88    6.60
   2   7   2  162.48    7.40
   2   7   2  172.38    6.90
   2   7   2  164.78    6.80
   2   7   2  173.28    6.30
  -3  -7  -2   78.19    4.30
  -3  -7  -2   81.89    3.60
  -3  -7  -2   77.89    4.00
  -3  -7  -2   84.09    3.80
   3   7   2   77.19    4.10
   3   7   2   82.39    3.30
   3   7   2   78.49    3.50
   3   7   2   87.59    4.50
   3   7   2   79.99    4.80
  -4  -7  -2    1.60    1.10
  -4  -7  -2    2.30    1.30
  -4  -7  -2    1.80    1.00
  -4  -7  -2    1.20    1.30
  -4  -7  -2    2.90    1.00
   4   7   2    2.50    0.60
   4   7   2    1.60    1.60
   4   7   2    1.50    1.30
   4   7   2    1.80    0.90
   4   7   2    1.00    1.60
  -5  -7  -2  122.99    5.20
  -5  -7  -2  122.49    5.50
  -5  -7  -2  126.39    5.40
  -5  -7  -2  135.59    5.30
   5   7   2  120.99    5.50
   5   7   2  118.99    6.20
   5   7   2  119.69    5.90
  -6  -7  -2    6.40    1.40
  -6  -7  -2    8.00    1.60
  -6  -7  -2    4.30    1.60
  -6  -7  -2    7.00    1.50
   6   7   2    8.90    2.10
   6   7   2    4.60    2.10
   6   7   2    5.90    1.70
  -7  -7  -2    1.10    1.30
  -7  -7  -2    2.00    1.70
  -7  -7  -2    3.80    1.50
  -7  -7  -2   -0.70    1.10
   7   7   2    0.60    1.60
   7   7   2    1.00    1.60
   7   7   2    2.80    2.20
  -8  -7  -2   70.99    4.00
  -8  -7  -2   62.49    4.20
  -8  -7  -2   70.69    3.80
   8   7   2   73.79    4.20
   8   7   2   67.49    5.30
   8   7   2   64.09    4.20
  -9  -7  -2  357.16   12.30
  -9  -7  -2  328.67   12.70
  -9  -7  -2  313.07   12.90
   9   7   2  348.17   12.70
   9   7   2  319.77   13.90
   9   7   2  345.97   12.50
 -10  -7  -2   32.10    3.40
 -10  -7  -2   33.80    3.60
 -10  -7  -2   31.30    2.70
  10   7   2   28.60    4.10
  10   7   2   30.90    3.20
 -11  -7  -2   82.69    5.60
 -11  -7  -2   78.29    5.10
  11   7   2   67.69    6.20
  11   7   2   73.79    4.90
 -12  -7  -2   -1.50    2.30
 -12  -7  -2   -1.40    2.20
  12   7   2   -2.60    2.90
  12   7   2    2.30    2.00
   6  -8  -2    3.30    2.00
   6  -8  -2    2.80    2.20
   6  -8  -2   -0.10    2.60
  -6   8   2    3.10    2.70
   5  -8  -2   28.10    3.20
   5  -8  -2   31.90    3.80
   5  -8  -2   33.20    4.30
  -5   8   2   22.40    3.00
  -5   8   2   31.80    3.70
   4  -8  -2   96.09    5.40
   4  -8  -2   88.99    5.50
   4  -8  -2  101.19    6.30
  -4   8   2   97.09    5.50
  -4   8   2   85.99    5.60
  -4   8   2   90.19    4.80
   3  -8  -2   11.20    2.10
   3  -8  -2   14.30    2.50
   3  -8  -2   12.80    2.70
  -3   8   2   13.00    2.50
  -3   8   2   14.20    2.20
  -3   8   2   14.70    2.60
   2  -8  -2   12.10    2.20
   2  -8  -2   12.90    2.10
   2  -8  -2    9.10    2.20
  -2   8   2   10.40    2.10
  -2   8   2   13.00    2.40
  -2   8   2   11.30    2.30
   1  -8  -2   22.50    2.70
   1  -8  -2   21.60    2.80
   1  -8  -2   26.10    2.50
   1  -8  -2   28.70    2.80
  -1   8   2   29.80    3.20
  -1   8   2   21.70    3.10
  -1   8   2   26.00    2.70
  -1   8   2   26.00    2.70
   0  -8  -2    6.30    1.90
   0  -8  -2    5.90    1.70
   0  -8  -2    6.00    1.30
   0  -8  -2    3.40    1.40
   0   8   2    6.10    0.80
   0   8   2    3.20    1.60
   0   8   2    5.80    1.10
   0   8   2    5.80    1.90
   0   8   2    6.00    0.80
   0   8   2    6.20    2.10
   0   8   2    4.30    2.00
  -1  -8  -2  119.09    4.90
  -1  -8  -2  111.29    5.40
  -1  -8  -2  118.59    5.20
  -1  -8  -2  103.09    5.50
   1   8   2  120.89    5.00
   1   8   2  102.39    5.90
   1   8   2  106.79    5.00
   1   8   2  109.09    5.40
   1   8   2  114.09    5.90
  -2  -8  -2  275.97   10.30
  -2  -8  -2  279.47   10.70
  -2  -8  -2  277.47   10.90
  -2  -8  -2  271.97   10.00
   2   8   2  272.47   10.60
   2   8   2  298.67   10.60
   2   8   2  288.07   10.00
   2   8   2  287.87   11.40
   2   8   2  266.17   10.80
  -3  -8  -2   75.29    4.10
  -3  -8  -2   79.19    4.60
  -3  -8  -2   72.89    3.80
  -3  -8  -2   79.89    3.70
   3   8   2   74.39    4.40
   3   8   2   88.49    4.80
   3   8   2   82.39    5.00
   3   8   2   81.29    3.50
  -4  -8  -2   -1.10    1.20
  -4  -8  -2   -0.30    1.00
  -4  -8  -2    3.50    1.60
  -4  -8  -2   -0.50    0.90
  -4  -8  -2    0.50    1.20
   4   8   2   -0.40    1.80
   4   8   2   -0.50    1.60
   4   8   2    1.00    0.80
   4   8   2    2.00    1.60
  -5  -8  -2    0.30    1.10
  -5  -8  -2    0.00    1.20
  -5  -8  -2    1.50    1.20
  -5  -8  -2    0.90    1.40
   5   8   2   -0.10    1.70
   5   8   2    1.40    2.00
   5   8   2    3.80    2.10
  -6  -8  -2  170.88    7.20
  -6  -8  -2  164.28    6.80
  -6  -8  -2  183.78    7.00
  -6  -8  -2  164.68    7.30
  -6  -8  -2  177.38    6.90
   6   8   2  162.48    7.30
   6   8   2  161.98    8.30
   6   8   2  173.48    8.00
  -7  -8  -2    8.90    1.70
  -7  -8  -2    5.70    1.90
  -7  -8  -2   10.10    1.90
  -7  -8  -2   11.20    1.80
   7   8   2    8.30    2.40
   7   8   2    7.30    1.90
   7   8   2    8.20    2.70
  -8  -8  -2    4.50    1.70
  -8  -8  -2    7.00    1.70
  -8  -8  -2   11.00    2.40
   8   8   2    3.20    2.60
   8   8   2    3.60    1.80
   8   8   2    6.40    2.10
  -9  -8  -2   -0.50    1.60
  -9  -8  -2    0.20    2.00
   9   8   2   -0.30    1.90
   9   8   2   -4.50    2.60
   9   8   2    1.80    1.80
 -10  -8  -2   15.80    2.50
 -10  -8  -2   17.40    2.90
 -10  -8  -2   23.60    2.40
  10   8   2   16.80    3.70
  10   8   2   19.10    2.60
 -11  -8  -2   -0.70    2.10
 -11  -8  -2   -1.50    1.80
  11   8   2    0.80    1.80
  11   8   2    2.40    3.30
 -12  -8  -2   69.79    5.30
 -12  -8  -2   71.19    5.10
  12   8   2   75.09    5.20
  12   8   2   46.30    5.70
   5  -9  -2   46.90    4.00
   5  -9  -2   46.30    5.20
   5  -9  -2   36.40    4.10
  -5   9   2   42.10    4.40
   4  -9  -2    6.40    2.10
   4  -9  -2    7.10    2.40
   4  -9  -2    3.10    2.40
  -4   9   2    7.70    2.40
  -4   9   2    4.90    1.90
  -4   9   2    3.20    2.50
   3  -9  -2  348.27   13.60
   3  -9  -2  338.97   13.60
   3  -9  -2  343.67   13.30
   3  -9  -2  349.07   14.30
  -3   9   2  346.87   13.10
  -3   9   2  350.46   13.70
  -3   9   2  362.56   13.60
   2  -9  -2    6.30    1.90
   2  -9  -2    5.50    1.70
   2  -9  -2    5.90    1.80
   2  -9  -2    3.60    2.10
  -2   9   2    8.30    2.50
  -2   9   2    3.10    2.00
  -2   9   2    6.30    2.30
   1  -9  -2   40.30    3.70
   1  -9  -2   41.20    3.70
   1  -9  -2   35.70    2.90
   1  -9  -2   39.00    3.40
  -1   9   2   39.10    3.50
  -1   9   2   46.50    3.70
  -1   9   2   40.00    4.20
  -1   9   2   44.90    4.10
   0  -9  -2   89.99    4.80
   0  -9  -2   76.19    4.10
   0  -9  -2   80.69    5.10
   0  -9  -2   83.99    4.50
   0   9   2   77.29    4.50
   0   9   2   80.99    4.90
   0   9   2   84.79    5.70
   0   9   2   79.79    5.10
  -1  -9  -2  108.59    5.00
  -1  -9  -2  100.29    5.40
  -1  -9  -2  119.29    5.30
  -1  -9  -2  107.79    5.90
   1   9   2  118.29    5.20
   1   9   2  110.49    5.00
   1   9   2  107.29    5.60
   1   9   2  107.99    5.90
   1   9   2  114.89    6.40
  -2  -9  -2   33.30    2.70
  -2  -9  -2   37.70    3.60
  -2  -9  -2   34.40    3.10
  -2  -9  -2   32.80    2.50
   2   9   2   31.20    3.70
   2   9   2   35.80    3.70
   2   9   2   32.60    2.60
   2   9   2   33.30    3.00
   2   9   2   29.70    3.00
  -3  -9  -2  111.99    5.60
  -3  -9  -2  106.29    5.00
  -3  -9  -2  109.39    5.80
  -3  -9  -2  108.79    4.90
   3   9   2  117.29    6.60
   3   9   2  108.19    5.70
   3   9   2  109.99    4.70
   3   9   2  114.89    5.80
  -4  -9  -2   88.09    4.60
  -4  -9  -2   89.79    4.20
  -4  -9  -2   84.09    4.90
  -4  -9  -2   79.09    4.00
  -4  -9  -2   78.79    4.70
   4   9   2   81.69    5.30
   4   9   2   80.29    3.50
   4   9   2   75.19    4.60
   4   9   2   73.59    5.30
  -5  -9  -2   32.20    2.70
  -5  -9  -2   29.70    3.10
  -5  -9  -2   35.00    2.70
  -5  -9  -2   28.70    2.80
   5   9   2   31.50    3.30
   5   9   2   27.70    3.50
   5   9   2   33.50    3.80
  -6  -9  -2  197.38    7.50
  -6  -9  -2  179.28    8.10
  -6  -9  -2  190.98    7.70
  -6  -9  -2  189.38    8.00
  -6  -9  -2  190.78    7.50
   6   9   2  184.18    9.00
   6   9   2  192.18    9.00
   6   9   2  183.28    8.10
  -7  -9  -2   47.80    3.70
  -7  -9  -2   44.70    3.20
  -7  -9  -2   42.30    3.10
  -7  -9  -2   41.90    3.50
   7   9   2   46.20    4.20
   7   9   2   43.50    4.70
   7   9   2   39.30    4.10
  -8  -9  -2  126.69    5.90
  -8  -9  -2  115.89    5.60
  -8  -9  -2  118.39    6.30
   8   9   2  127.69    6.30
   8   9   2  112.39    7.30
   8   9   2  126.19    6.80
  -9  -9  -2   10.70    2.10
  -9  -9  -2    5.30    2.10
  -9  -9  -2    6.20    1.90
   9   9   2    3.90    3.00
   9   9   2    8.00    2.40
   9   9   2    8.40    2.40
 -10  -9  -2    0.20    1.70
 -10  -9  -2    1.10    1.60
 -10  -9  -2   -2.20    2.00
  10   9   2    2.50    3.00
  10   9   2   -3.70    2.80
  10   9   2   -1.30    2.00
 -11  -9  -2   17.70    2.90
 -11  -9  -2   14.00    3.00
  11   9   2   19.50    2.90
  11   9   2    4.30    3.60
 -12  -9  -2    0.20    2.40
 -12  -9  -2    3.20    2.20
  12   9   2   -5.40    3.10
  -4  10   2  105.99    6.40
   3 -10  -2  178.58    8.60
   3 -10  -2  187.88    9.40
   3 -10  -2  190.38    8.70
  -3  10   2  182.98    8.60
  -3  10   2  182.58    8.20
  -3  10   2  192.08    9.00
   2 -10  -2   -0.60    1.80
   2 -10  -2   -0.50    2.00
   2 -10  -2   -0.80    1.70
  -2  10   2    0.40    2.00
  -2  10   2   -2.10    2.20
  -2  10   2    1.70    2.20
   1 -10  -2  147.49    6.90
   1 -10  -2  135.99    7.50
   1 -10  -2  152.28    7.30
  -1  10   2  143.99    7.10
  -1  10   2  155.18    7.60
  -1  10   2  125.59    6.60
   0 -10  -2   17.30    2.20
   0 -10  -2   18.00    2.90
   0 -10  -2   14.40    2.50
   0 -10  -2   15.20    2.30
   0  10   2   15.30    3.20
   0  10   2   21.60    2.80
   0  10   2   16.10    3.20
   0  10   2   17.50    2.70
  -1 -10  -2   76.19    5.20
  -1 -10  -2   78.69    4.10
  -1 -10  -2   76.49    4.70
  -1 -10  -2   76.69    4.30
   1  10   2   82.09    5.50
   1  10   2   87.79    5.80
   1  10   2   77.59    4.40
   1  10   2   69.49    4.90
  -2 -10  -2   54.69    4.20
  -2 -10  -2   58.79    3.40
  -2 -10  -2   46.20    3.90
  -2 -10  -2   54.79    3.50
   2  10   2   55.89    3.80
   2  10   2   59.99    4.90
   2  10   2   58.99    4.90
   2  10   2   59.79    4.40
   2  10   2   52.89    3.50
  -3 -10  -2   16.70    2.50
  -3 -10  -2   18.90    2.10
  -3 -10  -2   22.40    2.30
  -3 -10  -2   16.80    2.60
   3  10   2   19.70    3.30
   3  10   2   18.30    2.00
   3  10   2   20.70    2.80
   3  10   2   16.90    3.20
   3  10   2   16.40    2.70
  -4 -10  -2   58.59    3.90
  -4 -10  -2   55.79    3.30
  -4 -10  -2   47.20    4.00
  -4 -10  -2   59.09    3.50
  -4 -10  -2   48.00    4.30
   4  10   2   50.99    2.90
   4  10   2   49.30    4.70
   4  10   2   55.39    4.60
   4  10   2   52.49    4.10
  -5 -10  -2    6.40    2.00
  -5 -10  -2    4.40    1.50
  -5 -10  -2    4.30    1.50
  -5 -10  -2    6.80    2.20
   5  10   2    5.90    2.10
   5  10   2    3.20    2.40
   5  10   2    4.50    2.40
  -6 -10  -2   32.90    2.60
  -6 -10  -2   31.00    2.70
  -6 -10  -2   27.50    2.90
  -6 -10  -2   30.20    3.40
  -6 -10  -2   33.10    3.00
   6  10   2   30.50    4.00
   6  10   2   36.60    4.10
   6  10   2   29.90    3.50
  -7 -10  -2   37.70    2.90
  -7 -10  -2   36.00    2.90
  -7 -10  -2   34.90    3.30
  -7 -10  -2   39.90    3.40
  -7 -10  -2   36.00    3.80
   7  10   2   30.70    4.20
   7  10   2   29.10    3.40
   7  10   2   34.40    4.00
  -8 -10  -2    8.60    1.90
  -8 -10  -2   12.20    2.50
  -8 -10  -2   10.50    2.20
  -8 -10  -2    9.50    1.90
   8  10   2    9.00    2.70
   8  10   2    8.20    3.50
   8  10   2    8.80    2.80
  -9 -10  -2    1.70    2.30
  -9 -10  -2    1.70    1.80
  -9 -10  -2    2.30    1.60
   9  10   2    2.00    2.10
   9  10   2    2.30    2.40
   9  10   2   -2.30    2.90
 -10 -10  -2    3.40    1.90
 -10 -10  -2    3.30    2.30
  10  10   2    5.90    2.50
  10  10   2   -1.00    3.00
  10  10   2    1.70    2.40
 -11 -10  -2    0.70    2.20
 -11 -10  -2    0.40    2.00
  11  10   2   -1.40    1.90
  11  10   2   -5.40    3.20
   2 -11  -2    7.00    2.60
   2 -11  -2   11.10    2.60
   2 -11  -2   11.70    2.50
  -2  11   2    9.90    2.60
  -2  11   2   12.60    2.90
  -2  11   2   11.00    2.80
   1 -11  -2    7.10    2.10
   1 -11  -2    7.20    2.50
   1 -11  -2    6.00    2.40
  -1  11   2    8.80    3.00
  -1  11   2    5.40    2.50
  -1  11   2    5.30    2.60
   0 -11  -2  265.07   11.50
   0 -11  -2  267.27   10.90
   0 -11  -2  283.17   12.00
   0  11   2  274.17   11.10
   0  11   2  287.97   12.80
   0  11   2  273.17   11.90
   0  11   2  288.27   11.60
  -1 -11  -2    1.30    1.70
  -1 -11  -2   -1.20    1.70
  -1 -11  -2    0.30    1.50
   1  11   2   -0.10    2.00
   1  11   2    1.20    2.70
   1  11   2    2.50    2.80
   1  11   2   -0.40    2.30
  -2 -11  -2    1.80    1.40
  -2 -11  -2    1.30    1.80
  -2 -11  -2    2.50    1.90
   2  11   2    1.60    1.80
   2  11   2    2.60    2.20
   2  11   2    2.10    2.70
   2  11   2    5.90    2.80
  -3 -11  -2   97.19    5.10
  -3 -11  -2  112.79    6.30
  -3 -11  -2  104.99    5.90
  -3 -11  -2  102.69    6.00
   3  11   2  103.39    6.70
   3  11   2  109.89    5.30
   3  11   2   95.89    5.80
   3  11   2   97.69    5.70
   3  11   2  106.49    6.60
  -4 -11  -2   37.20    2.90
  -4 -11  -2   37.30    3.90
  -4 -11  -2   31.40    3.50
  -4 -11  -2   31.00    3.30
   4  11   2   28.90    4.20
   4  11   2   25.70    3.30
   4  11   2   31.20    3.70
   4  11   2   39.80    4.40
  -5 -11  -2   24.20    3.10
  -5 -11  -2   26.10    3.30
  -5 -11  -2   20.70    3.30
  -5 -11  -2   22.20    2.40
  -5 -11  -2   26.20    2.70
   5  11   2   24.10    3.40
   5  11   2   21.60    3.60
   5  11   2   19.70    3.50
  -6 -11  -2   16.20    2.30
  -6 -11  -2   21.80    3.20
  -6 -11  -2   24.40    3.20
  -6 -11  -2   19.40    2.20
  -6 -11  -2   14.90    2.10
   6  11   2   20.70    3.10
   6  11   2   16.90    3.60
   6  11   2   20.40    3.60
  -7 -11  -2  196.88    8.20
  -7 -11  -2  173.68    7.70
  -7 -11  -2  187.08    7.70
  -7 -11  -2  190.18    8.50
  -7 -11  -2  181.28    8.80
   7  11   2  195.18    9.20
   7  11   2  182.28    9.70
   7  11   2  196.68    9.80
  -8 -11  -2    1.10    2.10
  -8 -11  -2    3.10    2.00
  -8 -11  -2    0.80    1.50
  -8 -11  -2   -0.50    1.40
   8  11   2   -5.10    2.80
   8  11   2   -1.80    2.60
   8  11   2    0.60    2.50
  -9 -11  -2   22.50    4.00
  -9 -11  -2   17.10    3.20
  -9 -11  -2   22.70    2.90
   9  11   2   19.90    3.40
   9  11   2   13.50    4.00
   9  11   2   15.70    3.50
 -10 -11  -2   53.39    4.90
 -10 -11  -2   54.79    4.20
  10  11   2   64.19    5.10
  10  11   2   61.79    5.70
  10  11   2   43.90    5.80
   0 -12  -2   25.90    3.80
   0 -12  -2   22.00    3.40
   0  12   2   26.20    3.30
   0  12   2   18.90    3.30
   0  12   2   25.60    4.10
  -1 -12  -2  113.39    7.00
  -1 -12  -2  105.89    6.40
   1  12   2  117.69    6.90
   1  12   2  113.59    6.00
   1  12   2  118.89    7.20
   1  12   2  118.79    8.00
  -2 -12  -2  170.88    8.80
  -2 -12  -2  174.68    8.40
   2  12   2  167.98    8.40
   2  12   2  166.28    9.40
   2  12   2  178.28    9.20
  -3 -12  -2  175.68    8.90
  -3 -12  -2  173.18    8.70
  -3 -12  -2  172.48    8.50
   3  12   2  176.78    9.50
   3  12   2  177.48    9.00
   3  12   2  164.28    8.40
  -4 -12  -2    1.90    2.40
  -4 -12  -2   -0.40    2.20
  -4 -12  -2    2.40    2.00
   4  12   2    0.50    2.70
   4  12   2    1.80    2.40
   4  12   2    2.50    2.80
   4  12   2    2.60    2.70
  -5 -12  -2  175.18    8.60
  -5 -12  -2  166.38    8.40
   5  12   2  173.28    9.00
   5  12   2  176.98    9.00
   5  12   2  177.88    9.80
   5  12   2  185.18    8.80
  -6 -12  -2    2.00    2.20
  -6 -12  -2   -0.90    2.10
   6  12   2   -1.80    2.80
   6  12   2   -0.90    2.60
   6  12   2   -1.50    2.70
  -7 -12  -2    5.60    2.60
  -7 -12  -2    6.70    2.50
   7  12   2    5.40    3.00
   7  12   2    5.80    3.20
   7  12   2   -3.20    3.10
  -8 -12  -2   74.79    5.10
  -8 -12  -2   64.89    5.20
   8  12   2   63.59    6.90
   8  12   2   72.19    6.50
   8  12   2   69.89    5.50
  -9 -12  -2   16.80    2.80
  -9 -12  -2    9.10    3.00
   9  12   2    5.80    3.90
   9  12   2   13.80    3.50
   9  12   2   13.70    3.20
  -3 -13  -2    9.00    2.50
  -3 -13  -2    9.70    2.80
  -3 -13  -2    5.10    2.50
   3  13   2    4.60    3.50
   3  13   2    7.60    3.10
   3  13   2    8.40    3.70
  -4 -13  -2    0.30    2.10
  -4 -13  -2    1.30    2.20
  -4 -13  -2   -1.50    2.00
   4  13   2    1.80    3.40
   4  13   2    2.50    3.00
   4  13   2    0.70    2.60
  -5 -13  -2   88.09    6.00
  -5 -13  -2  111.89    6.90
   5  13   2   94.39    7.30
   5  13   2  111.79    7.20
   5  13   2   97.39    7.30
  -6 -13  -2   45.00    4.50
  -6 -13  -2   44.30    4.90
   6  13   2   38.10    4.50
   6  13   2   37.50    5.00
   6  13   2   27.60    4.30
   6  13   2   28.60    4.50
  -7 -13  -2   -1.00    2.10
  -7 -13  -2   -1.60    2.20
   7  13   2   -1.50    3.20
   7  13   2    4.20    3.20
   7  13   2   -4.30    3.10
   7  10  -3   -0.10    2.50
   7  10  -3    0.70    3.30
   7  10  -3    3.90    3.50
  -7 -10   3    4.50    2.60
  -7 -10   3   -0.70    2.00
   6  10  -3   81.39    7.60
   6  10  -3   84.69    7.70
   6  10  -3   92.19    5.90
  -6 -10   3   84.19    6.00
  -6 -10   3   91.59    6.10
  -6 -10   3   88.89    6.20
   5  10  -3  282.77   11.80
   5  10  -3  267.37   12.80
   5  10  -3  250.37   12.90
  -5 -10   3  273.07   12.00
  -5 -10   3  281.17   11.00
  -5 -10   3  283.87   11.90
   4  10  -3   28.40    3.70
   4  10  -3   20.60    4.40
   4  10  -3   24.80    4.00
  -4 -10   3   26.30    3.60
  -4 -10   3   29.80    3.70
  -4 -10   3   27.00    3.10
   3  10  -3  106.89    6.80
   3  10  -3  104.69    7.20
   3  10  -3  102.19    8.10
  -3 -10   3  110.69    6.50
  -3 -10   3  107.79    6.00
  -3 -10   3  106.39    6.30
   2  10  -3  137.89    7.80
   2  10  -3  140.59    7.90
   2  10  -3  129.69    8.60
  -2 -10   3  135.79    7.20
  -2 -10   3  146.59    7.40
  -2 -10   3  134.49    7.40
  -2 -10   3  141.09    7.50
   1  10  -3    9.60    2.70
   1  10  -3    1.90    3.30
   1  10  -3    6.00    2.70
  -1 -10   3   11.40    2.60
  -1 -10   3   10.70    2.60
  -1 -10   3    9.70    2.60
  -1 -10   3    7.00    2.50
   0  10  -3    4.10    2.40
   0  10  -3   -1.10    3.00
   0  10  -3    2.80    2.80
   0 -10   3    3.40    2.10
   0 -10   3    1.40    2.00
   0 -10   3    3.80    2.10
   0 -10   3    1.80    2.00
  -1  10  -3   -0.20    2.60
  -1  10  -3    2.20    2.40
  -1  10  -3    1.30    2.80
   1 -10   3    1.50    2.00
   1 -10   3    4.00    2.20
   1 -10   3   -1.90    1.90
   8   9  -3   -6.00    3.00
   8   9  -3   -1.20    3.20
   8   9  -3    6.50    2.60
  -8  -9   3    3.40    2.50
  -8  -9   3    1.20    2.10
   7   9  -3    6.10    2.60
   7   9  -3    3.80    3.60
   7   9  -3    6.60    3.60
  -7  -9   3    9.30    2.70
  -7  -9   3    9.50    2.60
   6   9  -3  193.38    8.80
   6   9  -3  177.98   10.30
   6   9  -3  185.08   10.10
  -6  -9   3  197.28    7.80
  -6  -9   3  181.78    8.90
  -6  -9   3  178.88    8.70
   5   9  -3    2.30    3.20
   5   9  -3    2.40    2.90
   5   9  -3    5.50    2.30
  -5  -9   3    5.30    1.80
  -5  -9   3    5.50    2.20
  -5  -9   3    4.70    2.30
   4   9  -3    0.20    2.10
   4   9  -3   -0.40    2.50
   4   9  -3    0.10    3.00
  -4  -9   3   -1.40    1.50
  -4  -9   3    0.50    1.70
  -4  -9   3    0.10    2.00
   3   9  -3  203.18    9.30
   3   9  -3  188.68   10.20
   3   9  -3  209.08    9.80
  -3  -9   3  198.18    9.20
  -3  -9   3  205.88    8.70
  -3  -9   3  193.08    9.00
   2   9  -3  101.59    6.70
   2   9  -3  120.89    6.50
   2   9  -3  110.69    5.40
   2   9  -3  106.79    7.40
  -2  -9   3  106.49    6.20
  -2  -9   3  114.79    6.10
  -2  -9   3  117.49    6.40
  -2  -9   3  126.89    6.50
   1   9  -3   15.40    3.20
   1   9  -3   14.30    3.70
   1   9  -3   21.50    2.60
   1   9  -3   14.90    3.00
  -1  -9   3   17.40    2.70
  -1  -9   3   19.80    2.70
  -1  -9   3   18.40    2.70
  -1  -9   3   18.00    2.80
   0   9  -3   42.20    4.40
   0   9  -3   39.40    4.70
   0   9  -3   44.20    3.80
   0  -9   3   39.40    4.00
   0  -9   3   39.80    3.90
   0  -9   3   34.90    3.60
   0  -9   3   45.20    4.10
  -1   9  -3    1.90    2.10
  -1   9  -3   -2.80    2.30
  -1   9  -3   -1.70    2.70
   1  -9   3    0.80    1.80
   1  -9   3   -1.80    1.80
   1  -9   3   -0.60    1.70
  -2   9  -3   36.10    3.70
  -2   9  -3   29.60    4.10
  -2   9  -3   23.10    3.80
   2  -9   3   38.00    4.00
   2  -9   3   39.70    4.20
   2  -9   3   31.10    3.60
  -3   9  -3   -0.30    2.50
  -3   9  -3    0.10    2.60
  -3   9  -3   -4.40    2.30
  -3   9  -3    0.70    2.70
   3  -9   3    1.30    2.00
   3  -9   3   -2.70    1.90
   3  -9   3    1.10    1.90
   9   8  -3    4.00    3.40
   9   8  -3    8.20    3.80
  -9  -8   3    5.80    2.50
  -9  -8   3    9.40    3.10
   8   8  -3   18.90    4.20
   8   8  -3   10.00    3.60
   8   8  -3   17.00    2.80
  -8  -8   3   13.60    3.00
  -8  -8   3   20.30    3.30
   7   8  -3    4.70    3.20
   7   8  -3    5.90    3.50
   7   8  -3    9.10    2.50
  -7  -8   3    6.20    2.20
  -7  -8   3   12.50    2.70
   6   8  -3   19.30    3.90
   6   8  -3   18.70    3.80
   6   8  -3   22.90    2.90
  -6  -8   3   18.70    2.90
  -6  -8   3   25.60    2.20
  -6  -8   3   26.40    3.50
   5   8  -3   31.50    4.30
   5   8  -3   36.30    3.50
   5   8  -3   33.90    4.60
  -5  -8   3   39.30    3.00
  -5  -8   3   32.50    3.40
  -5  -8   3   35.10    3.80
   4   8  -3    2.80    2.20
   4   8  -3    0.90    2.80
   4   8  -3    0.00    2.60
  -4  -8   3    1.00    1.70
  -4  -8   3    0.20    1.40
  -4  -8   3    2.00    2.00
   3   8  -3   26.10    4.00
   3   8  -3   28.80    2.50
   3   8  -3   21.40    3.00
   3   8  -3   19.90    3.30
  -3  -8   3   20.40    2.50
  -3  -8   3   27.90    3.40
  -3  -8   3   16.60    2.60
   2   8  -3  514.45   19.00
   2   8  -3  513.05   17.90
   2   8  -3  537.05   19.60
   2   8  -3  518.45   20.20
  -2  -8   3  526.85   19.10
  -2  -8   3  508.55   18.80
  -2  -8   3  530.65   18.60
  -2  -8   3  502.45   18.80
   1   8  -3    6.50    3.10
   1   8  -3   10.50    2.50
   1   8  -3    8.80    2.10
   1   8  -3    8.50    2.60
  -1  -8   3   13.50    2.40
  -1  -8   3    9.90    2.10
  -1  -8   3    7.40    2.20
  -1  -8   3   14.20    2.40
   0   8  -3  367.76   14.60
   0   8  -3  384.96   15.60
   0   8  -3  377.36   14.50
   0   8  -3  383.06   13.90
   0  -8   3  386.56   14.60
   0  -8   3  372.26   14.60
   0  -8   3  378.66   14.40
  -1   8  -3  216.68    8.80
  -1   8  -3  200.08    9.80
  -1   8  -3  189.38    9.10
  -1   8  -3  215.18    9.20
   1  -8   3  188.18    8.80
   1  -8   3  213.18    9.30
   1  -8   3  219.78    9.30
  -2   8  -3    6.90    2.40
  -2   8  -3    7.10    2.50
  -2   8  -3    6.30    2.90
   2  -8   3    4.30    1.90
   2  -8   3    7.70    2.30
   2  -8   3    8.40    2.30
  -3   8  -3   70.09    5.60
  -3   8  -3   52.79    4.80
  -3   8  -3   58.39    5.10
   3  -8   3   68.29    5.00
   3  -8   3   61.59    4.90
   3  -8   3   67.39    4.70
  -4   8  -3  136.69    7.90
  -4   8  -3  163.28    8.10
  -4   8  -3  146.79    7.50
  -4   8  -3  158.08    7.60
   4  -8   3  147.49    7.80
   4  -8   3  150.38    7.90
   4  -8   3  137.19    7.50
  10   7  -3    6.80    3.80
 -10  -7   3    7.50    2.90
   9   7  -3   21.10    4.40
   9   7  -3   14.30    3.60
  -9  -7   3   20.50    3.30
   8   7  -3   10.10    3.60
   8   7  -3    7.60    2.10
   8   7  -3   12.30    3.30
  -8  -7   3   11.00    2.80
  -8  -7   3   14.30    2.70
   7   7  -3   28.40    3.80
   7   7  -3   19.00    3.90
   7   7  -3   26.80    3.00
  -7  -7   3   24.80    3.10
  -7  -7   3   27.50    3.60
   6   7  -3   65.69    5.80
   6   7  -3   70.69    4.40
   6   7  -3   61.49    5.60
  -6  -7   3   67.49    4.40
  -6  -7   3   64.49    4.80
  -6  -7   3   63.29    3.20
   5   7  -3   64.59    5.40
   5   7  -3   68.79    4.40
   5   7  -3   68.19    5.60
  -5  -7   3   68.69    3.60
  -5  -7   3   68.59    4.30
  -5  -7   3   62.59    4.60
   4   7  -3  147.69    7.80
   4   7  -3  127.09    5.40
   4   7  -3  152.98    6.80
   4   7  -3  142.39    7.90
  -4  -7   3  143.69    6.00
  -4  -7   3  135.39    6.80
  -4  -7   3  142.19    6.60
   3   7  -3   91.19    6.00
   3   7  -3   96.19    6.20
   3   7  -3   91.59    4.20
   3   7  -3   93.99    5.20
  -3  -7   3   97.59    5.00
  -3  -7   3   86.09    5.30
  -3  -7   3   93.89    4.70
   2   7  -3   66.89    4.80
   2   7  -3   60.49    3.60
   2   7  -3   60.19    5.10
   2   7  -3   67.19    4.30
  -2  -7   3   64.59    4.40
  -2  -7   3   65.19    3.80
  -2  -7   3   64.19    4.20
  -2  -7   3   63.99    4.00
   1   7  -3   17.70    2.20
   1   7  -3   19.20    2.90
   1   7  -3   18.50    2.80
   1   7  -3   13.70    3.10
  -1  -7   3   22.60    2.90
  -1  -7   3   15.20    2.30
  -1  -7   3   15.20    2.20
  -1  -7   3   19.80    2.40
   0   7  -3  376.26   15.00
   0   7  -3  404.76   15.10
   0   7  -3  415.46   14.50
   0   7  -3  388.96   15.80
   0  -7   3  422.36   13.50
   0  -7   3  403.06   15.10
   0  -7   3  410.56   15.00
   0  -7   3  388.96   14.80
  -1   7  -3   -0.50    2.20
  -1   7  -3    1.00    1.60
  -1   7  -3   -0.80    1.90
  -1   7  -3    0.70    2.00
   1  -7   3   -0.40    0.80
   1  -7   3   -0.50    1.30
   1  -7   3    0.10    1.70
   1  -7   3    0.20    1.50
  -2   7  -3   28.90    3.80
  -2   7  -3   40.10    3.60
  -2   7  -3   35.20    3.00
  -2   7  -3   24.20    3.10
   2  -7   3   24.10    2.80
   2  -7   3   27.40    3.20
   2  -7   3   28.80    3.10
   2  -7   3   31.80    2.30
  -3   7  -3  459.05   17.40
  -3   7  -3  448.36   16.70
  -3   7  -3  460.35   17.20
   3  -7   3  453.65   17.20
   3  -7   3  470.45   17.10
   3  -7   3  433.46   17.00
   3  -7   3  462.45   16.20
  -4   7  -3   52.99    4.60
  -4   7  -3   48.10    4.50
  -4   7  -3   50.99    4.70
  -4   7  -3   49.00    4.10
   4  -7   3   49.40    4.20
   4  -7   3   48.60    3.60
   4  -7   3   52.39    4.40
   4  -7   3   50.59    4.50
  -5   7  -3   51.49    4.60
  -5   7  -3   39.40    4.10
  -5   7  -3   43.60    4.60
   5  -7   3   41.20    4.20
   5  -7   3   36.60    3.90
   5  -7   3   40.40    4.50
  -6   7  -3  325.27   13.20
  -6   7  -3  340.87   13.30
   6  -7   3  319.67   13.90
   6  -7   3  316.47   13.70
   6  -7   3  313.07   13.40
  10   6  -3   -0.90    3.10
 -10  -6   3    4.20    1.90
 -10  -6   3    6.40    2.60
   9   6  -3   98.89    7.60
   9   6  -3  113.49    6.70
  -9  -6   3  110.49    6.30
  -9  -6   3  104.89    5.30
   8   6  -3   -0.40    2.20
   8   6  -3    0.20    1.60
   8   6  -3   -3.40    2.50
  -8  -6   3    1.80    2.00
  -8  -6   3   -0.50    1.20
  -8  -6   3    3.70    2.30
   7   6  -3   10.70    3.10
   7   6  -3    7.70    1.90
   7   6  -3    8.50    2.80
  -7  -6   3    6.70    2.10
  -7  -6   3   11.60    1.60
  -7  -6   3    9.80    2.40
   6   6  -3   62.19    5.20
   6   6  -3   57.99    3.80
   6   6  -3   62.29    5.40
  -6  -6   3   66.09    2.70
  -6  -6   3   64.69    4.60
  -6  -6   3   66.29    4.40
  -6  -6   3   60.69    3.00
   5   6  -3   -2.30    2.20
   5   6  -3    2.00    1.50
   5   6  -3    1.40    2.20
  -5  -6   3    2.10    1.00
  -5  -6   3    0.20    1.50
  -5  -6   3    0.60    1.60
  -5  -6   3    0.90    0.60
   4   6  -3   -1.30    1.30
   4   6  -3    0.00    2.10
   4   6  -3    0.50    2.30
  -4  -6   3    0.80    1.30
  -4  -6   3   -1.90    1.00
  -4  -6   3    0.80    0.40
  -4  -6   3   -0.10    1.60
   3   6  -3   10.20    1.90
   3   6  -3    9.50    2.60
   3   6  -3    8.60    2.50
  -3  -6   3   13.30    2.10
  -3  -6   3    9.60    1.60
  -3  -6   3   10.00    2.00
   2   6  -3   11.90    2.50
   2   6  -3    9.00    2.00
   2   6  -3    8.50    2.50
  -2  -6   3    8.50    1.70
  -2  -6   3    9.50    2.00
  -2  -6   3   12.10    1.90
  -2  -6   3    6.70    1.60
   1   6  -3  214.98    9.50
   1   6  -3  223.18    9.30
   1   6  -3  200.78    8.60
   1   6  -3  212.08    8.00
  -1  -6   3  207.88    8.80
  -1  -6   3  209.58    8.40
  -1  -6   3  211.48    8.40
  -1  -6   3  205.58    8.50
   0   6  -3   -1.00    1.80
   0   6  -3    1.40    2.10
   0   6  -3   -0.70    1.50
   0   6  -3   -0.50    1.70
   0  -6   3   -0.70    1.30
   0  -6   3    1.50    0.60
   0  -6   3    1.60    1.40
   0  -6   3    0.30    1.50
  -1   6  -3    0.60    1.80
  -1   6  -3    4.80    1.90
  -1   6  -3    5.80    1.80
  -1   6  -3    1.90    2.30
   1  -6   3    3.30    0.90
   1  -6   3    4.50    1.60
   1  -6   3    2.80    1.80
   1  -6   3    5.40    1.60
  -2   6  -3    2.30    1.50
  -2   6  -3    2.40    2.00
  -2   6  -3    1.60    2.10
  -2   6  -3   -0.40    1.70
   2  -6   3    0.70    1.70
   2  -6   3    0.30    1.50
   2  -6   3    3.20    1.10
   2  -6   3    3.20    1.70
  -3   6  -3   45.50    3.60
  -3   6  -3   37.00    3.70
  -3   6  -3   40.60    3.00
  -3   6  -3   43.80    3.90
   3  -6   3   39.40    3.60
   3  -6   3   42.20    3.80
   3  -6   3   44.50    3.60
  -4   6  -3  138.09    6.80
  -4   6  -3  129.09    6.60
  -4   6  -3  115.89    6.20
   4  -6   3  129.89    6.60
   4  -6   3  129.79    6.80
   4  -6   3  113.29    6.20
  -5   6  -3   46.40    4.10
  -5   6  -3   40.10    3.70
  -5   6  -3   46.90    3.60
  -5   6  -3   42.00    3.90
  -5   6  -3   41.80    4.00
   5  -6   3   37.50    3.90
   5  -6   3   43.80    3.90
  -6   6  -3   89.19    5.70
  -6   6  -3   94.69    5.80
   6  -6   3   95.49    6.00
   6  -6   3   91.29    6.10
  -7   6  -3   23.60    3.30
  -7   6  -3   23.50    3.50
   7  -6   3   14.70    3.30
   7  -6   3   19.30    3.10
  11   5  -3   10.20    3.60
 -11  -5   3   15.40    3.00
 -11  -5   3   15.30    3.30
  10   5  -3    2.70    3.10
 -10  -5   3    2.40    1.90
 -10  -5   3    9.40    2.60
   9   5  -3    6.90    3.20
   9   5  -3    8.00    2.80
  -9  -5   3    7.20    2.60
  -9  -5   3    5.00    1.90
   8   5  -3  126.59    8.00
   8   5  -3  141.59    7.20
  -8  -5   3  150.08    7.10
  -8  -5   3  142.29    6.30
   7   5  -3    3.00    2.00
   7   5  -3    1.60    1.30
   7   5  -3    2.20    2.40
  -7  -5   3    1.00    1.20
  -7  -5   3    1.50    1.70
  -7  -5   3   -0.70    1.70
   6   5  -3   53.69    3.30
   6   5  -3   57.29    4.40
   6   5  -3   55.49    4.90
  -6  -5   3   43.00    3.90
  -6  -5   3   52.39    3.70
  -6  -5   3   49.00    2.80
   5   5  -3  379.26   13.60
   5   5  -3  345.67   14.00
   5   5  -3  340.07   12.40
  -5  -5   3  348.47   11.50
  -5  -5   3  317.07   12.60
  -5  -5   3  334.37   13.00
  -5  -5   3  349.67   11.50
  -5  -5   3  340.27   11.80
   4   5  -3    0.30    0.50
   4   5  -3    1.10    1.70
   4   5  -3   -0.10    1.80
   4   5  -3   -0.70    1.20
  -4  -5   3    1.70    1.40
  -4  -5   3    0.10    0.50
  -4  -5   3   -0.10    1.50
  -4  -5   3   -0.10    0.80
  -4  -5   3    0.10    0.70
   3   5  -3  322.67   11.60
   3   5  -3  319.77   12.60
   3   5  -3  294.97   12.30
  -3  -5   3  308.47   11.90
  -3  -5   3  319.97   11.50
  -3  -5   3  326.17   11.10
   2   5  -3  200.78    8.70
   2   5  -3  193.98    7.80
   2   5  -3  197.58    8.60
  -2  -5   3  196.78    7.70
  -2  -5   3  182.88    8.00
  -2  -5   3  203.68    7.80
  -2  -5   3  205.88    7.60
   1   5  -3    2.00    1.80
   1   5  -3    2.00    1.60
   1   5  -3    3.40    1.80
  -1  -5   3    3.20    1.20
  -1  -5   3    5.10    1.40
  -1  -5   3    2.10    1.40
  -1  -5   3    3.50    1.30
   0   5  -3  116.19    5.40
   0   5  -3  106.39    5.90
   0  -5   3  115.19    4.00
   0  -5   3  113.59    5.20
   0  -5   3  114.29    5.40
   0  -5   3  108.49    5.10
  -1   5  -3  269.67   10.80
  -1   5  -3  279.67   10.70
  -1   5  -3  272.87    9.90
  -1   5  -3  233.08   10.10
   1  -5   3  276.27   10.10
   1  -5   3  257.67   10.00
   1  -5   3  264.87   10.30
   1  -5   3  267.57    9.20
  -2   5  -3   15.80    1.60
  -2   5  -3   17.80    2.50
  -2   5  -3   14.50    2.70
  -2   5  -3   11.40    2.20
   2  -5   3   16.70    2.20
   2  -5   3   15.30    2.30
   2  -5   3   17.80    2.10
   2  -5   3   13.50    1.20
  -3   5  -3  145.99    5.80
  -3   5  -3  131.39    6.60
  -3   5  -3  152.98    7.10
  -3   5  -3  151.88    6.60
   3  -5   3  155.98    6.70
   3  -5   3  151.18    7.00
   3  -5   3  141.89    6.70
  -4   5  -3   -0.20    1.30
  -4   5  -3   -0.80    1.70
  -4   5  -3    0.10    1.90
  -4   5  -3    1.20    1.80
   4  -5   3    0.90    1.40
   4  -5   3    0.60    1.60
  -5   5  -3   43.70    3.20
  -5   5  -3   47.70    3.70
  -5   5  -3   49.10    3.30
  -5   5  -3   42.10    3.70
  -5   5  -3   41.80    3.70
   5  -5   3   44.10    3.90
   5  -5   3   38.90    3.50
  -6   5  -3  395.86   15.00
  -6   5  -3  393.26   14.60
  -6   5  -3  398.06   15.10
   6  -5   3  382.16   15.30
   6  -5   3  415.66   15.30
  -7   5  -3    4.90    2.20
  -7   5  -3    1.40    2.50
  -7   5  -3    1.10    2.10
   7  -5   3    1.00    1.80
   7  -5   3   -2.10    1.90
  -8   5  -3  169.48    8.30
  -8   5  -3  182.48    8.10
  -8   5  -3  172.18    8.40
   8  -5   3  178.08    9.10
   8  -5   3  172.48    8.70
  11   4  -3    6.90    3.50
 -11  -4   3   14.20    2.80
 -11  -4   3    7.90    2.90
  10   4  -3   22.90    4.00
 -10  -4   3   27.80    3.70
 -10  -4   3   28.30    3.40
   9   4  -3   -3.30    2.50
  -9  -4   3   -0.20    1.80
  -9  -4   3    1.90    1.80
   8   4  -3   13.20    2.30
   8   4  -3   11.00    3.00
  -8  -4   3   14.60    2.20
  -8  -4   3   16.50    2.70
   7   4  -3   22.00    2.00
   7   4  -3   23.60    2.70
   7   4  -3   22.40    3.60
  -7  -4   3   20.30    2.90
  -7  -4   3   24.80    2.90
  -7  -4   3   19.40    2.20
   6   4  -3    9.40    2.00
   6   4  -3   12.10    1.60
   6   4  -3    9.40    2.60
  -6  -4   3    8.00    2.00
  -6  -4   3   11.70    1.60
  -6  -4   3   11.60    2.00
   5   4  -3  185.28    7.00
   5   4  -3  190.28    9.00
   5   4  -3  211.38    8.50
   5   4  -3  193.48    6.90
   5   4  -3  204.08    7.40
  -5  -4   3  191.48    8.20
  -5  -4   3  195.28    7.20
  -5  -4   3  195.18    7.90
   4   4  -3    1.20    0.60
   4   4  -3    0.90    0.70
   4   4  -3    0.60    1.70
   4   4  -3    2.70    1.60
   4   4  -3    1.20    1.10
  -4  -4   3    2.00    0.70
  -4  -4   3    1.10    1.40
  -4  -4   3    2.50    1.20
  -4  -4   3    1.70    0.70
  -4  -4   3    1.30    0.60
   3   4  -3  885.61   32.10
   3   4  -3  987.10   31.40
   3   4  -3  956.10   30.40
   3   4  -3  994.10   32.70
  -3  -4   3  969.80   30.60
  -3  -4   3  925.61   31.80
  -3  -4   3  958.60   31.00
  -3  -4   3  962.40   31.00
  -3  -4   3  941.21   31.50
   2   4  -3   15.90    2.20
   2   4  -3   17.60    2.40
   2   4  -3   15.20    1.70
  -2  -4   3   17.20    1.50
  -2  -4   3   17.80    1.80
  -2  -4   3   17.10    2.00
  -2  -4   3   18.40    1.70
   1   4  -3  111.89    4.80
   1   4  -3  106.09    5.40
  -1  -4   3   99.39    4.90
  -1  -4   3  114.49    4.70
  -1  -4   3  110.79    4.70
  -1  -4   3  112.19    4.70
   0   4  -3  801.92   27.50
   0   4  -3  811.72   27.00
   0  -4   3  854.91   25.90
   0  -4   3  804.12   26.90
   0  -4   3  778.22   26.80
   0  -4   3  797.02   27.20
   0  -4   3  806.42   26.90
  -1   4  -3    1.60    1.30
  -1   4  -3    2.50    0.90
  -1   4  -3    3.10    1.70
   1  -4   3    2.90    1.40
   1  -4   3    2.20    1.10
   1  -4   3    1.50    1.10
   1  -4   3    2.30    1.00
  -2   4  -3   23.40    2.60
  -2   4  -3   23.60    2.50
  -2   4  -3   22.50    1.80
  -2   4  -3   23.40    1.60
  -2   4  -3   25.00    2.30
   2  -4   3   24.70    2.60
   2  -4   3   24.90    2.30
   2  -4   3   16.70    2.00
   2  -4   3   22.30    1.40
   2  -4   3   24.00    1.90
  -3   4  -3   46.30    3.40
  -3   4  -3   43.80    2.50
  -3   4  -3   41.00    3.20
  -3   4  -3   41.10    3.10
  -3   4  -3   39.60    2.50
   3  -4   3   44.60    3.20
   3  -4   3   43.00    2.40
   3  -4   3   44.90    3.20
  -4   4  -3   12.90    1.50
  -4   4  -3   15.40    1.90
  -4   4  -3   17.70    2.40
  -4   4  -3   12.80    2.10
  -4   4  -3   13.20    2.40
   4  -4   3   17.50    2.20
   4  -4   3   14.50    1.50
   4  -4   3   14.10    2.10
  -5   4  -3   61.19    3.70
  -5   4  -3   61.69    3.90
  -5   4  -3   62.39    4.10
  -5   4  -3   65.79    4.20
   5  -4   3   68.39    4.30
   5  -4   3   59.09    4.00
  -6   4  -3    5.00    2.20
  -6   4  -3    5.60    1.30
  -6   4  -3   10.10    1.70
  -6   4  -3   11.30    2.20
  -6   4  -3    7.80    2.20
   6  -4   3    5.90    2.00
   6  -4   3    7.50    2.20
  -7   4  -3   20.20    3.00
  -7   4  -3   21.50    2.90
  -7   4  -3   18.90    2.80
   7  -4   3   18.10    2.80
   7  -4   3   22.00    3.10
  -8   4  -3  124.49    6.90
  -8   4  -3  135.09    7.00
  -8   4  -3  141.49    6.80
   8  -4   3  129.99    6.90
   8  -4   3  142.79    7.60
  -9   4  -3    4.20    2.70
  -9   4  -3    5.40    2.10
  -9   4  -3    3.50    2.90
   9  -4   3    8.10    2.60
   9  -4   3    2.80    2.60
  11   3  -3   19.60    3.90
 -11  -3   3   18.40    3.50
 -11  -3   3   22.70    3.40
  10   3  -3   19.10    3.70
 -10  -3   3   18.10    3.10
 -10  -3   3   19.20    3.00
   9   3  -3   53.19    5.40
  -9  -3   3   45.00    3.80
  -9  -3   3   54.09    4.60
   8   3  -3   31.20    3.80
   8   3  -3   30.40    2.90
  -8  -3   3   30.20    3.00
  -8  -3   3   25.20    3.00
   7   3  -3    3.90    1.50
   7   3  -3    6.60    2.40
   7   3  -3    5.30    1.20
  -7  -3   3    5.40    1.60
  -7  -3   3    8.00    2.00
   6   3  -3   92.09    3.90
   6   3  -3   99.89    5.00
   6   3  -3   93.79    5.80
  -6  -3   3   90.99    5.00
  -6  -3   3   91.29    4.90
  -6  -3   3   94.29    4.40
   5   3  -3  627.04   23.30
   5   3  -3  678.83   22.70
   5   3  -3  673.23   21.70
   5   3  -3  671.63   21.50
  -5  -3   3  667.83   21.90
  -5  -3   3  642.94   22.40
  -5  -3   3  630.44   22.60
   4   3  -3   22.00    2.40
   4   3  -3   20.20    1.40
   4   3  -3   26.00    2.90
   4   3  -3   22.00    1.70
   4   3  -3   18.60    1.50
   4   3  -3   18.80    1.40
  -4  -3   3   20.80    2.10
  -4  -3   3   21.60    1.60
  -4  -3   3   18.60    2.10
   3   3  -3  175.58    6.00
   3   3  -3  182.98    7.80
   3   3  -3  180.68    6.10
   3   3  -3  183.48    6.60
   3   3  -3  178.18    7.40
  -3  -3   3  179.98    6.80
  -3  -3   3  176.08    6.20
  -3  -3   3  170.78    6.00
  -3  -3   3  165.78    7.00
  -3  -3   3  173.48    6.10
   2   3  -3   20.20    2.30
   2   3  -3   21.10    1.90
  -2  -3   3   22.90    1.80
  -2  -3   3   27.30    2.30
  -2  -3   3   26.40    1.50
  -2  -3   3   23.40    1.60
   1   3  -3   24.50    2.00
   1   3  -3   26.30    2.60
   1   3  -3   30.90    2.00
  -1  -3   3   26.90    2.30
  -1  -3   3   24.20    2.30
  -1  -3   3   31.00    1.90
  -1  -3   3   27.80    1.80
  -1  -3   3   31.70    2.00
  -1  -3   3   28.40    1.80
   0   3  -3   28.90    2.20
   0   3  -3   35.30    2.20
   0   3  -3   33.90    2.80
   0   3  -3   32.10    2.20
   0  -3   3   32.60    1.30
   0  -3   3   32.60    2.10
   0  -3   3   33.30    2.10
   0  -3   3   31.10    2.40
   0  -3   3   30.80    2.10
   0  -3   3   33.80    1.30
   0  -3   3   32.20    2.30
  -1   3  -3  490.35   15.80
  -1   3  -3  455.85   15.80
  -1   3  -3  477.95   15.10
  -1   3  -3  464.85   16.00
  -1   3  -3  414.06   16.20
   1  -3   3  450.25   15.80
   1  -3   3  490.45   16.20
   1  -3   3  446.66   15.90
   1  -3   3  499.65   15.90
  -2   3  -3   -0.20    0.70
  -2   3  -3    0.00    0.80
  -2   3  -3    0.30    1.20
  -2   3  -3   -0.40    1.30
   2  -3   3   -1.40    0.70
   2  -3   3   -0.30    0.50
   2  -3   3   -0.80    0.90
   2  -3   3    1.70    1.20
   2  -3   3   -0.50    0.90
  -3   3  -3  259.17    9.20
  -3   3  -3  270.17    9.80
  -3   3  -3  266.07    9.00
  -3   3  -3  252.77    9.40
  -3   3  -3  248.88    9.50
   3  -3   3  259.57    8.90
   3  -3   3  254.77    9.00
   3  -3   3  244.98    9.50
   3  -3   3  240.98    9.40
  -4   3  -3   91.19    4.60
  -4   3  -3   87.29    4.50
  -4   3  -3   90.29    4.60
  -4   3  -3   84.69    3.90
  -4   3  -3   93.39    4.10
   4  -3   3   92.89    4.50
   4  -3   3   85.29    3.80
   4  -3   3   94.19    4.50
  -5   3  -3    1.00    1.70
  -5   3  -3    1.00    1.70
  -5   3  -3    0.60    0.90
  -5   3  -3    0.40    1.40
  -5   3  -3    0.70    1.20
   5  -3   3    2.30    1.50
   5  -3   3    1.90    0.90
   5  -3   3    0.80    1.30
  -6   3  -3    7.50    1.40
  -6   3  -3    7.90    1.20
  -6   3  -3    3.00    2.00
  -6   3  -3    8.10    2.10
  -6   3  -3   11.00    2.20
   6  -3   3    7.90    1.90
   6  -3   3    7.30    1.90
   6  -3   3    9.10    1.40
  -7   3  -3   13.80    2.70
  -7   3  -3   10.60    2.40
  -7   3  -3    7.60    2.20
   7  -3   3   11.50    2.20
   7  -3   3   17.10    2.70
  -8   3  -3   13.70    2.70
  -8   3  -3   14.70    2.80
  -8   3  -3   10.30    2.30
   8  -3   3   15.60    2.80
   8  -3   3   15.60    2.70
  -9   3  -3   28.30    3.00
  -9   3  -3   35.10    3.70
  -9   3  -3   22.60    3.60
   9  -3   3   31.20    3.90
   9  -3   3   29.20    3.50
 -11  -2   3   91.59    6.30
  10   2  -3   10.70    2.90
 -10  -2   3    4.30    2.60
 -10  -2   3    9.90    2.90
   9   2  -3   24.20    3.50
  -9  -2   3   30.20    2.50
  -9  -2   3   28.00    3.40
  -9  -2   3   31.70    3.40
   8   2  -3   65.99    5.10
   8   2  -3   76.69    4.20
  -8  -2   3   81.99    3.80
  -8  -2   3   76.99    4.80
  -8  -2   3   79.29    4.60
   7   2  -3   49.80    4.20
   7   2  -3   44.70    2.40
   7   2  -3   43.00    3.10
  -7  -2   3   39.20    2.60
  -7  -2   3   44.40    3.50
  -7  -2   3   46.80    3.40
   6   2  -3  256.67    9.00
   6   2  -3  259.97   10.80
   6   2  -3  273.17   10.00
  -6  -2   3  261.87    9.80
  -6  -2   3  258.47   10.10
   5   2  -3  242.98    9.10
   5   2  -3  228.28    8.00
   5   2  -3  250.87    8.70
   5   2  -3  233.08    9.80
   5   2  -3  229.08    8.00
  -5  -2   3  245.58    8.70
  -5  -2   3  224.08    8.90
  -5  -2   3  221.38    9.10
   4   2  -3  150.28    5.40
   4   2  -3  155.88    6.30
   4   2  -3  147.19    5.30
   4   2  -3  151.88    5.30
   4   2  -3  149.49    6.90
   4   2  -3  135.89    5.50
  -4  -2   3  148.69    6.00
  -4  -2   3  148.59    5.70
  -4  -2   3  142.29    6.20
   3   2  -3   23.80    2.30
   3   2  -3   22.80    1.40
   3   2  -3   17.50    2.30
   3   2  -3   21.30    1.40
   3   2  -3   23.40    1.40
   3   2  -3   22.60    1.50
  -3  -2   3   22.70    1.50
  -3  -2   3   22.40    1.90
  -3  -2   3   22.50    2.10
   2   2  -3  100.09    4.70
   2   2  -3   99.29    3.90
   2   2  -3  101.49    4.10
   2   2  -3  107.69    3.70
   2   2  -3  102.69    4.00
   2   2  -3  101.99    4.10
  -2  -2   3  100.89    3.60
  -2  -2   3  102.49    4.50
  -2  -2   3  102.99    4.10
  -2  -2   3   95.79    3.60
  -2  -2   3  103.19    3.70
  -2  -2   3   98.59    4.70
   1   2  -3  860.71   26.30
   1   2  -3  760.02   27.30
   1   2  -3  889.91   27.00
   1   2  -3  831.32   27.60
   1   2  -3  790.02   26.90
   1   2  -3  838.32   26.90
  -1  -2   3  819.42   26.90
  -1  -2   3  813.12   26.80
  -1  -2   3  844.22   28.00
  -1  -2   3  789.02   27.30
  -1  -2   3  824.32   27.30
  -1  -2   3  852.31   26.80
   0   2  -3 1863.71   59.89
   0   2  -3 1845.32   59.49
   0   2  -3 1782.02   59.59
   0   2  -3 2072.39   60.49
   0   2  -3 1828.72   59.69
   0   2  -3 1842.22   60.19
   0  -2   3 1690.53   60.09
   0  -2   3 1896.81   59.59
   0  -2   3 1881.21   59.49
   0  -2   3 1801.72   59.49
   0  -2   3 1880.41   58.99
   0  -2   3 1836.92   59.99
   0  -2   3 1881.11   59.99
   0  -2   3 1908.81   59.69
  -1   2  -3    2.30    0.90
  -1   2  -3    2.80    1.30
  -1   2  -3    2.70    0.60
  -1   2  -3    2.80    1.10
  -1   2  -3    4.10    0.90
   1  -2   3    1.50    1.00
   1  -2   3    4.40    1.30
   1  -2   3    3.60    0.90
   1  -2   3    1.90    1.00
   1  -2   3    3.50    0.60
   1  -2   3    2.10    0.80
   1  -2   3    2.20    1.00
  -2   2  -3    0.50    1.00
  -2   2  -3    0.60    0.70
  -2   2  -3    1.10    0.80
  -2   2  -3   -0.10    1.10
  -2   2  -3   -0.20    0.70
   2  -2   3    0.00    0.80
   2  -2   3    0.70    0.50
   2  -2   3    0.50    0.80
   2  -2   3    0.70    1.00
   2  -2   3    1.00    0.90
  -3   2  -3 1258.07   41.90
  -3   2  -3 1355.56   41.60
  -3   2  -3 1283.97   42.00
  -3   2  -3 1322.47   41.80
   3  -2   3 1303.97   42.00
   3  -2   3 1301.97   41.60
   3  -2   3 1291.97   42.00
   3  -2   3 1252.17   41.50
   3  -2   3 1199.28   41.70
  -4   2  -3    5.10    1.10
  -4   2  -3    6.20    1.30
  -4   2  -3    6.30    1.30
  -4   2  -3    5.90    1.50
  -4   2  -3    6.50    1.60
   4  -2   3    6.90    1.10
   4  -2   3    6.90    1.40
   4  -2   3    7.10    1.40
   4  -2   3    6.10    1.10
  -5   2  -3  108.99    4.90
  -5   2  -3  126.39    5.50
  -5   2  -3  109.89    5.30
  -5   2  -3  116.19    4.90
  -5   2  -3  119.59    5.20
   5  -2   3  123.99    5.40
   5  -2   3  120.39    5.30
   5  -2   3  118.49    4.80
   5  -2   3  117.49    4.90
  -6   2  -3  134.59    6.30
  -6   2  -3  142.09    6.30
  -6   2  -3  139.29    5.50
  -6   2  -3  140.39    5.10
  -6   2  -3  142.89    6.20
  -6   2  -3  147.09    6.30
   6  -2   3  139.09    6.30
   6  -2   3  149.99    6.50
   6  -2   3  137.59    5.70
  -7   2  -3    3.80    1.90
  -7   2  -3    4.50    2.20
  -7   2  -3    6.00    1.90
   7  -2   3    5.80    1.40
   7  -2   3    7.50    1.80
   7  -2   3    7.20    2.10
  -8   2  -3   29.60    3.20
  -8   2  -3   28.00    2.90
  -8   2  -3   23.50    3.10
   8  -2   3   30.70    3.10
   8  -2   3   26.50    3.30
  -9   2  -3   43.70    3.70
  -9   2  -3   48.00    4.20
  -9   2  -3   49.30    4.30
   9  -2   3   44.40    4.00
   9  -2   3   45.50    4.40
 -10   2  -3    2.20    2.30
 -10   2  -3    0.60    2.80
  10  -2   3    0.50    2.20
  10  -2   3    1.40    1.80
  11   1  -3   11.20    3.00
 -11  -1   3   11.00    3.20
  10   1  -3    4.30    2.40
  10   1  -3   -1.60    2.10
 -10  -1   3    0.80    1.60
 -10  -1   3    4.90    2.70
   9   1  -3  125.19    6.90
  -9  -1   3  138.99    7.00
  -9  -1   3  136.29    5.90
  -9  -1   3  127.59    6.90
   8   1  -3  242.08   10.40
  -8  -1   3  247.78    9.20
  -8  -1   3  241.58   10.10
  -8  -1   3  240.88    9.90
   7   1  -3    4.10    1.30
   7   1  -3    4.50    0.90
   7   1  -3    3.10    1.90
  -7  -1   3    4.50    1.80
  -7  -1   3    3.70    1.30
  -7  -1   3    1.70    1.70
   6   1  -3  452.45   15.40
   6   1  -3  448.86   17.00
   6   1  -3  471.95   15.40
   6   1  -3  477.55   16.30
  -6  -1   3  466.55   16.60
  -6  -1   3  469.45   16.40
  -6  -1   3  484.05   15.90
   5   1  -3  173.18    5.90
   5   1  -3  169.38    5.90
   5   1  -3  172.78    7.60
   5   1  -3  174.08    6.90
  -5  -1   3  168.98    6.80
  -5  -1   3  177.78    6.40
  -5  -1   3  166.88    7.00
   4   1  -3  147.29    5.40
   4   1  -3  165.48    6.20
   4   1  -3  147.79    6.60
   4   1  -3  144.79    5.10
   4   1  -3  146.69    5.00
  -4  -1   3  150.48    5.50
  -4  -1   3  141.29    5.90
  -4  -1   3  139.39    6.10
  -4  -1   3  145.49    5.80
   3   1  -3  172.88    5.60
   3   1  -3  152.98    6.60
   3   1  -3  168.68    6.00
   3   1  -3  172.78    6.10
   3   1  -3  170.48    5.70
   3   1  -3  164.88    7.10
  -3  -1   3  166.48    6.20
  -3  -1   3  175.18    6.40
  -3  -1   3  161.98    6.60
   2   1  -3   12.50    1.10
   2   1  -3   11.80    1.40
   2   1  -3    8.60    1.50
   2   1  -3   11.50    1.70
   2   1  -3   12.70    1.00
   2   1  -3   12.70    1.10
   2   1  -3   12.10    1.20
   2   1  -3   12.10    1.40
   2   1  -3   12.60    1.00
  -2  -1   3   13.10    1.80
  -2  -1   3   12.00    1.10
  -2  -1   3   12.80    1.40
  -2  -1   3   10.40    1.50
   1   1  -3   32.00    1.50
   1   1  -3   30.70    1.60
   1   1  -3   29.40    1.70
   1   1  -3   34.30    2.50
   1   1  -3   29.50    2.00
   1   1  -3   35.50    1.40
   1   1  -3   34.50    2.30
   1   1  -3   29.20    1.90
   1   1  -3   32.80    1.70
   1   1  -3   31.30    1.70
  -1  -1   3   34.00    1.50
  -1  -1   3   34.70    1.80
  -1  -1   3   35.50    2.10
  -1  -1   3   32.00    2.40
  -1  -1   3   27.00    1.40
   0   1  -3   81.89    4.00
   0   1  -3   88.69    3.80
   0   1  -3   82.59    3.70
   0   1  -3   85.79    3.50
   0   1  -3   90.29    3.50
   0   1  -3   89.29    3.30
   0   1  -3   96.99    3.00
   0  -1   3   95.29    4.00
   0  -1   3   91.29    3.40
   0  -1   3   88.99    3.10
   0  -1   3   90.09    3.90
   0  -1   3   88.39    3.50
   0  -1   3   85.59    3.30
   0  -1   3   88.59    3.80
   0  -1   3   88.59    3.30
  -1   1  -3  103.39    4.30
  -1   1  -3  107.79    4.20
  -1   1  -3  101.09    4.50
  -1   1  -3  104.99    4.10
  -1   1  -3  107.39    3.90
  -1   1  -3  106.59    3.70
   1  -1   3  105.49    4.50
   1  -1   3  108.69    4.10
   1  -1   3  104.49    3.90
   1  -1   3  107.99    4.40
   1  -1   3  107.99    3.70
   1  -1   3  100.09    4.30
   1  -1   3  108.99    4.10
  -2   1  -3  172.08    6.50
  -2   1  -3  196.08    6.30
  -2   1  -3  183.68    6.60
  -2   1  -3  174.58    6.60
  -2   1  -3  182.38    6.80
  -2   1  -3  172.98    6.30
   2  -1   3  179.08    6.30
   2  -1   3  175.18    6.60
   2  -1   3  183.98    6.60
   2  -1   3  174.78    6.50
   2  -1   3  181.38    6.40
   2  -1   3  179.38    6.80
  -3   1  -3   82.39    3.90
  -3   1  -3   89.69    3.90
  -3   1  -3   91.09    3.60
  -3   1  -3   85.69    3.80
   3  -1   3   85.69    3.80
   3  -1   3   85.39    3.50
   3  -1   3   93.89    3.50
   3  -1   3   89.69    3.70
   3  -1   3   85.49    3.80
   3  -1   3   86.39    3.80
  -4   1  -3  100.99    4.20
  -4   1  -3  113.69    4.50
  -4   1  -3  100.69    4.40
  -4   1  -3  103.59    4.50
   4  -1   3  110.49    4.40
   4  -1   3  101.49    4.50
   4  -1   3  101.19    4.20
   4  -1   3   99.09    4.10
   4  -1   3  103.09    4.40
  -5   1  -3  550.14   18.30
  -5   1  -3  561.94   17.90
  -5   1  -3  518.25   18.30
  -5   1  -3  522.15   18.20
  -5   1  -3  528.45   18.30
   5  -1   3  522.65   18.40
   5  -1   3  564.34   18.10
   5  -1   3  515.05   18.30
  -6   1  -3   34.00    1.50
  -6   1  -3   34.90    1.40
  -6   1  -3   34.50    3.10
  -6   1  -3   35.00    2.90
  -6   1  -3   35.40    1.90
  -6   1  -3   40.10    3.10
   6  -1   3   35.70    2.90
   6  -1   3   34.40    2.60
   6  -1   3   37.90    2.80
  -7   1  -3    8.80    1.80
  -7   1  -3   14.60    2.30
  -7   1  -3   13.20    2.20
   7  -1   3    7.90    1.90
   7  -1   3    9.60    1.80
   7  -1   3   11.10    2.20
  -8   1  -3  150.58    6.80
  -8   1  -3  149.29    7.00
  -8   1  -3  155.78    6.70
   8  -1   3  139.79    6.40
   8  -1   3  165.18    7.10
   8  -1   3  162.88    7.40
  -9   1  -3   19.30    2.40
  -9   1  -3   17.40    2.60
  -9   1  -3   20.00    3.10
   9  -1   3   20.70    3.00
   9  -1   3   16.70    2.50
 -10   1  -3    1.60    2.70
 -10   1  -3    1.70    2.20
 -10   1  -3    1.30    1.60
  10  -1   3    1.40    2.30
  10  -1   3    2.00    1.90
 -11   1  -3    4.80    2.90
 -11   1  -3   11.90    2.70
  11  -1   3    6.60    2.80
  11  -1   3    4.40    2.30
  10   0  -3   17.10    3.30
 -10   0   3   14.50    2.30
 -10   0   3   13.60    3.10
   9   0  -3   12.40    2.90
   9   0  -3    9.10    2.30
  -9   0   3   11.60    2.70
  -9   0   3   15.30    2.30
   8   0  -3  175.08    8.20
   8   0  -3  188.48    8.60
  -8   0   3  188.78    7.60
  -8   0   3  198.38    8.50
   7   0  -3   20.80    2.10
   7   0  -3   24.00    1.70
   7   0  -3   20.50    2.50
  -7   0   3   23.90    2.80
  -7   0   3   23.50    2.30
  -7   0   3   23.00    2.80
   6   0  -3   19.60    2.40
   6   0  -3   21.50    2.10
   6   0  -3   23.00    1.50
   6   0  -3   21.60    1.50
  -6   0   3   19.80    2.40
  -6   0   3   26.20    2.10
  -6   0   3   26.00    2.60
   5   0  -3   99.29    3.50
   5   0  -3   98.69    3.60
   5   0  -3  102.99    4.50
   5   0  -3   96.19    4.90
  -5   0   3  102.29    4.30
  -5   0   3   93.69    4.50
  -5   0   3   94.09    4.60
   4   0  -3   57.99    2.00
   4   0  -3   57.09    2.00
   4   0  -3   51.29    3.30
   4   0  -3   57.79    3.10
  -4   0   3   58.19    2.80
  -4   0   3   56.99    3.10
  -4   0   3   52.49    3.10
   3   0  -3    2.80    1.00
   3   0  -3    3.10    0.80
   3   0  -3    2.20    0.80
   3   0  -3    2.10    0.90
  -3   0   3    3.70    1.10
  -3   0   3    3.00    1.10
  -3   0   3    2.30    1.00
  -3   0   3    2.10    1.20
  -3   0   3    2.30    1.30
   2   0  -3  118.39    4.20
   2   0  -3  110.79    4.60
   2   0  -3  115.19    4.20
   2   0  -3  106.39    4.40
   2   0  -3  107.69    4.40
   2   0  -3  110.79    4.30
  -2   0   3  108.59    4.30
  -2   0   3  109.49    4.70
  -2   0   3  106.19    4.50
  -2   0   3  104.19    4.50
  -2   0   3  115.19    4.40
   1   0  -3   42.70    1.80
   1   0  -3   52.29    2.20
   1   0  -3   47.80    2.10
   1   0  -3   50.09    2.10
   1   0  -3   50.19    1.90
   1   0  -3   49.00    2.30
   1   0  -3   49.30    2.60
   1   0  -3   46.20    2.40
  -1   0   3   50.29    2.80
  -1   0   3   48.50    2.50
  -1   0   3   48.30    2.20
   0   0  -3   28.40    1.80
   0   0  -3   27.80    1.60
   0   0  -3   30.40    2.00
   0   0  -3   26.20    1.30
   0   0  -3   27.30    1.70
   0   0  -3   35.20    1.40
   0   0  -3   29.80    1.50
   0   0  -3   29.10    2.20
   0   0  -3   28.00    1.40
   0   0   3   30.40    1.40
   0   0   3   29.80    2.00
   0   0   3   26.60    1.40
   0   0   3   30.20    1.50
   0   0   3   29.30    1.90
   0   0   3   29.20    1.50
  -1   0  -3  230.18    7.30
  -1   0  -3  226.38    7.80
  -1   0  -3  249.38    7.50
  -1   0  -3  222.08    7.70
  -1   0  -3  221.08    8.10
  -1   0  -3  214.78    7.70
  -1   0  -3  232.28    8.00
   1   0   3  218.88    7.30
   1   0   3  215.18    7.60
   1   0   3  227.18    7.50
   1   0   3  231.98    8.00
   1   0   3  209.98    7.70
   1   0   3  221.58    7.90
   1   0   3  215.88    7.30
  -2   0  -3    2.00    0.70
  -2   0  -3    1.30    1.00
  -2   0  -3    2.50    0.90
  -2   0  -3    2.50    0.80
  -2   0  -3    0.80    0.90
  -2   0  -3    2.10    0.90
  -2   0  -3    2.70    0.80
  -2   0  -3    3.10    0.80
   2   0   3    1.80    0.80
   2   0   3    1.50    0.50
   2   0   3    2.40    0.90
   2   0   3    3.70    0.70
   2   0   3    1.50    0.70
  -3   0  -3    7.40    1.10
  -3   0  -3    5.70    1.10
  -3   0  -3    6.40    1.10
  -3   0  -3    6.10    1.10
  -3   0  -3    6.80    0.80
  -3   0  -3    6.20    1.10
   3   0   3    6.80    0.80
   3   0   3    5.80    1.00
   3   0   3    5.60    1.20
   3   0   3    6.10    1.00
   3   0   3    6.20    1.10
   3   0   3    6.80    1.00
  -4   0  -3   -0.20    0.50
  -4   0  -3    0.10    0.90
  -4   0  -3   -0.40    1.00
  -4   0  -3   -0.40    0.90
  -4   0  -3   -0.40    0.70
   4   0   3    1.60    0.90
   4   0   3   -0.70    0.80
   4   0   3    0.10    0.90
   4   0   3    0.60    0.70
   4   0   3    1.00    1.00
  -5   0  -3   26.30    2.30
  -5   0  -3   28.10    2.20
  -5   0  -3   27.80    1.60
  -5   0  -3   28.20    1.10
  -5   0  -3   24.20    2.10
  -5   0  -3   25.70    2.20
   5   0   3   27.70    2.10
   5   0   3   25.50    2.20
   5   0   3   26.60    2.10
  -6   0  -3  381.76   12.20
  -6   0  -3  381.76   13.40
  -6   0  -3  376.16   13.50
  -6   0  -3  376.06   13.40
   6   0   3  363.06   13.60
   6   0   3  388.56   13.50
   6   0   3  390.96   13.50
  -7   0  -3  206.58    8.50
  -7   0  -3  208.68    8.30
  -7   0  -3  211.18    8.30
   7   0   3  212.18    8.70
   7   0   3  219.38    8.50
   7   0   3  220.68    8.50
  -8   0  -3   73.49    4.60
  -8   0  -3   84.19    4.40
  -8   0  -3   76.89    4.20
   8   0   3   82.69    4.50
   8   0   3   75.59    4.80
   8   0   3   81.19    4.50
  -9   0  -3  534.05   18.30
  -9   0  -3  523.45   18.70
  -9   0  -3  497.75   18.90
   9   0   3  534.65   19.30
   9   0   3  511.75   18.60
   9   0   3  562.14   19.00
 -10   0  -3   16.50    2.20
 -10   0  -3   19.70    2.90
 -10   0  -3   21.60    3.30
  10   0   3   17.40    2.60
  10   0   3   16.00    2.80
 -11   0  -3  109.49    6.70
 -11   0  -3  100.69    6.00
  11   0   3  114.19    6.30
  11   0   3  123.89    7.20
  10  -1  -3    3.60    2.50
 -10   1   3    2.40    1.90
 -10   1   3    0.90    2.60
   9  -1  -3   -0.70    2.00
  -9   1   3   -2.80    2.30
  -9   1   3    0.10    1.60
   8  -1  -3    1.40    1.50
   8  -1  -3    0.20    1.90
  -8   1   3   -0.20    1.90
  -8   1   3    3.20    1.80
   7  -1  -3   73.29    3.80
   7  -1  -3   79.89    5.10
   7  -1  -3   76.99    3.50
   7  -1  -3   65.89    4.10
  -7   1   3   78.79    4.60
  -7   1   3   81.29    4.20
   6  -1  -3   79.69    4.60
   6  -1  -3   78.79    3.90
   6  -1  -3   79.39    3.30
   6  -1  -3   79.59    4.20
  -6   1   3   72.29    4.30
  -6   1   3   84.19    4.00
   5  -1  -3  143.89    6.00
   5  -1  -3  129.29    6.10
   5  -1  -3  137.19    5.00
   5  -1  -3  140.39    5.00
  -5   1   3  154.08    5.80
  -5   1   3  138.59    5.60
  -5   1   3  139.49    6.00
   4  -1  -3    6.80    0.60
   4  -1  -3    6.60    0.60
   4  -1  -3    5.80    1.30
  -4   1   3    6.10    1.30
  -4   1   3    4.80    1.40
  -4   1   3    5.60    1.40
  -4   1   3    5.30    1.20
   3  -1  -3 2322.47   74.79
   3  -1  -3 2194.48   74.99
  -3   1   3 2383.06   74.99
  -3   1   3 2326.67   74.89
  -3   1   3 2331.77   74.69
  -3   1   3 2353.16   75.09
  -3   1   3 2414.56   74.89
   2  -1  -3 1170.88   36.30
   2  -1  -3 1207.98   36.40
   2  -1  -3 1140.89   36.20
   2  -1  -3 1071.49   36.40
   2  -1  -3 1165.38   36.30
   2  -1  -3 1069.69   36.30
  -2   1   3 1153.08   36.30
  -2   1   3 1078.69   36.20
  -2   1   3 1109.59   36.30
  -2   1   3 1064.49   36.50
  -2   1   3 1109.69   36.40
  -2   1   3 1108.19   36.30
   1  -1  -3   88.69    3.40
   1  -1  -3   86.29    3.60
   1  -1  -3   83.39    3.30
   1  -1  -3   88.49    3.60
   1  -1  -3   82.69    3.50
   1  -1  -3   83.69    3.30
   1  -1  -3   86.09    3.40
  -1   1   3   81.29    3.40
  -1   1   3   82.69    3.70
  -1   1   3   92.69    3.80
  -1   1   3   83.59    3.40
  -1   1   3   83.39    3.50
   0  -1  -3 2438.76   81.69
   0  -1  -3 2428.76   81.29
   0  -1  -3 2679.33   81.59
   0  -1  -3 2685.83   81.89
   0  -1  -3 2628.34   81.59
   0  -1  -3 2604.64   81.39
   0  -1  -3 2414.96   81.39
   0  -1  -3 2484.35   81.39
   0  -1  -3 2616.04   81.59
   0   1   3 2532.05   81.59
   0   1   3 2658.23   81.59
   0   1   3 2627.44   81.29
   0   1   3 2368.36   81.69
   0   1   3 2653.83   81.29
   0   1   3 2572.14   81.89
  -1  -1  -3 3217.58   99.19
  -1  -1  -3 3115.49   99.39
  -1  -1  -3 3072.59   99.19
  -1  -1  -3 3108.89   99.19
  -1  -1  -3 3173.08   99.49
   1   1   3 3122.69   99.19
   1   1   3 3058.59   99.39
   1   1   3 3210.98   99.59
   1   1   3 3041.50   99.19
   1   1   3 3100.89   99.19
   1   1   3 3080.39   99.29
  -2  -1  -3  586.54   18.80
  -2  -1  -3  587.34   19.10
  -2  -1  -3  560.04   18.80
  -2  -1  -3  565.14   18.70
  -2  -1  -3  588.64   18.80
   2   1   3  566.34   18.80
   2   1   3  568.84   19.00
   2   1   3  576.44   18.80
   2   1   3  583.54   18.70
   2   1   3  579.74   18.30
   2   1   3  551.34   18.70
  -3  -1  -3  267.57    8.80
  -3  -1  -3  261.47    8.80
  -3  -1  -3  253.77    9.20
  -3  -1  -3  274.27    9.40
  -3  -1  -3  263.27    9.10
  -3  -1  -3  264.27    9.20
  -3  -1  -3  266.27    9.10
   3   1   3  267.27    9.40
   3   1   3  278.67    9.20
   3   1   3  263.67    8.80
   3   1   3  260.47    9.20
   3   1   3  265.37    9.40
  -4  -1  -3   83.09    3.70
  -4  -1  -3   83.29    3.80
  -4  -1  -3   85.19    3.50
  -4  -1  -3   84.89    3.00
  -4  -1  -3   85.69    3.90
  -4  -1  -3   84.89    3.60
  -4  -1  -3   86.49    3.40
   4   1   3   82.59    3.40
   4   1   3   85.09    3.90
   4   1   3   77.69    3.60
   4   1   3   94.59    4.10
  -5  -1  -3    8.20    0.80
  -5  -1  -3    6.80    1.30
  -5  -1  -3    6.90    1.30
   5   1   3    7.60    1.40
   5   1   3    9.90    1.20
   5   1   3   11.20    1.50
  -6  -1  -3    6.10    1.40
  -6  -1  -3    3.70    1.30
  -6  -1  -3    7.70    1.60
   6   1   3    3.50    1.20
   6   1   3    5.20    1.40
  -7  -1  -3   44.90    2.90
  -7  -1  -3   46.40    3.00
  -7  -1  -3   40.70    3.20
   7   1   3   46.10    3.30
   7   1   3   45.80    3.30
   7   1   3   43.00    2.90
  -8  -1  -3  675.93   23.90
  -8  -1  -3  725.43   23.90
  -8  -1  -3  681.03   24.30
   8   1   3  737.93   24.20
   8   1   3  716.33   24.60
   8   1   3  711.03   24.30
  -9  -1  -3    4.90    2.10
  -9  -1  -3    4.20    1.60
  -9  -1  -3    4.20    1.70
   9   1   3    4.60    1.60
   9   1   3    3.40    1.90
   9   1   3    4.70    1.90
 -10  -1  -3   -1.60    1.70
 -10  -1  -3   -2.70    2.00
 -10  -1  -3    0.50    1.40
  10   1   3   -2.00    1.30
  10   1   3    0.50    1.60
  10   1   3    0.10    1.70
 -11  -1  -3  105.29    6.40
 -11  -1  -3  114.99    5.80
  11   1   3  105.79    5.90
  11   1   3  116.39    6.80
 -12  -1  -3   22.90    3.00
 -12  -1  -3   10.00    3.20
  12   1   3   25.50    3.30
  12   1   3   20.30    3.60
  10  -2  -3    9.10    3.20
 -10   2   3    7.80    3.00
 -10   2   3    7.00    2.50
   9  -2  -3   32.30    4.10
  -9   2   3   27.70    3.90
  -9   2   3   30.80    3.30
   8  -2  -3  124.49    7.00
  -8   2   3  123.99    6.00
  -8   2   3  123.09    6.60
   7  -2  -3   64.09    3.70
   7  -2  -3   80.39    5.10
  -7   2   3   75.79    3.80
  -7   2   3   70.49    4.80
  -7   2   3   75.99    4.40
   6  -2  -3    7.10    1.90
   6  -2  -3   10.30    1.20
   6  -2  -3    9.30    1.50
  -6   2   3   10.10    2.00
  -6   2   3    8.90    2.10
  -6   2   3    7.80    1.50
   5  -2  -3   78.89    3.30
   5  -2  -3   80.99    3.80
   5  -2  -3   77.19    4.40
  -5   2   3   85.39    4.00
  -5   2   3   78.79    4.30
  -5   2   3   79.09    4.00
   4  -2  -3   11.50    1.80
   4  -2  -3    9.40    0.90
   4  -2  -3   11.50    1.40
   4  -2  -3    9.90    1.40
   4  -2  -3   10.20    1.00
  -4   2   3   11.80    1.60
  -4   2   3    9.80    1.50
  -4   2   3    9.60    1.70
   3  -2  -3  374.56   12.50
   3  -2  -3  391.96   13.30
   3  -2  -3  391.26   13.50
   3  -2  -3  405.06   12.60
   3  -2  -3  409.26   13.20
   3  -2  -3  361.66   13.40
  -3   2   3  389.06   13.20
  -3   2   3  355.36   13.30
  -3   2   3  383.86   13.30
   2  -2  -3   28.00    1.20
   2  -2  -3   24.10    1.70
   2  -2  -3   30.00    1.80
   2  -2  -3   26.10    1.80
   2  -2  -3   25.60    2.00
   2  -2  -3   26.50    1.20
   2  -2  -3   25.80    1.80
   2  -2  -3   27.40    2.00
  -2   2   3   26.50    1.90
  -2   2   3   27.00    2.10
  -2   2   3   25.70    2.00
  -2   2   3   26.20    2.00
   1  -2  -3  809.62   24.50
   1  -2  -3  707.23   24.00
   1  -2  -3  775.42   24.00
   1  -2  -3  755.72   24.60
   1  -2  -3  693.73   24.40
   1  -2  -3  772.32   24.60
   1  -2  -3  745.53   24.40
   1  -2  -3  734.93   24.40
   1  -2  -3  776.52   24.50
   1  -2  -3  735.53   24.30
  -1   2   3  743.23   24.60
  -1   2   3  721.23   24.50
  -1   2   3  768.02   24.40
   0  -2  -3   51.59    2.00
   0  -2  -3   48.50    2.10
   0  -2  -3   49.90    2.20
   0  -2  -3   46.60    2.40
   0  -2  -3   50.79    2.00
   0  -2  -3   51.69    2.00
   0  -2  -3   47.70    2.30
   0   2   3   44.10    2.30
   0   2   3   50.79    1.90
   0   2   3   50.09    2.40
   0   2   3   46.30    2.50
   0   2   3   48.70    2.00
   0   2   3   47.20    1.80
   0   2   3   50.09    2.50
   0   2   3   46.40    2.10
  -1  -2  -3 9822.82  305.37
  -1  -2  -3 9999.00  305.67
  -1  -2  -3 9262.07  303.77
  -1  -2  -3 9993.60  304.27
  -1  -2  -3 9755.22  304.67
  -1  -2  -3 9169.98  303.87
  -1  -2  -3 9469.45  304.57
  -1  -2  -3 9930.91  304.87
   1   2   3 9932.51  304.57
   1   2   3 9580.34  304.77
   1   2   3 9179.28  304.67
   1   2   3 9249.07  303.67
   1   2   3 9248.87  303.87
   1   2   3 9760.82  306.17
   1   2   3 9274.67  304.67
  -2  -2  -3 3413.96  109.99
  -2  -2  -3 3453.85  109.89
  -2  -2  -3 3320.17  109.89
  -2  -2  -3 3531.45  110.19
  -2  -2  -3 3433.46  109.59
  -2  -2  -3 3545.95  109.89
   2   2   3 3368.16  109.89
   2   2   3 3458.75  109.89
   2   2   3 3381.16  110.19
   2   2   3 3502.75  109.69
   2   2   3 3480.55  109.89
   2   2   3 3488.25  109.89
   2   2   3 3499.85  110.19
  -3  -2  -3   80.59    3.40
  -3  -2  -3   82.89    3.60
  -3  -2  -3   81.09    3.00
  -3  -2  -3   85.19    3.40
  -3  -2  -3   79.49    3.00
   3   2   3   79.19    3.40
   3   2   3   77.99    3.60
   3   2   3   79.89    3.10
   3   2   3   79.19    3.00
   3   2   3   85.49    3.30
   3   2   3   77.19    3.30
  -4  -2  -3   11.20    1.20
  -4  -2  -3   11.60    1.40
  -4  -2  -3   13.60    1.60
  -4  -2  -3   15.20    0.90
  -4  -2  -3   15.80    1.60
  -4  -2  -3   13.60    1.30
  -4  -2  -3   11.30    1.40
   4   2   3   14.60    1.20
   4   2   3   14.00    1.00
   4   2   3   14.60    1.40
   4   2   3   16.30    1.50
   4   2   3   14.80    1.40
   4   2   3   17.20    1.80
  -5  -2  -3   21.40    1.80
  -5  -2  -3   20.90    1.10
  -5  -2  -3   22.00    1.80
  -5  -2  -3   20.80    1.90
   5   2   3   16.30    1.90
   5   2   3   17.00    1.40
   5   2   3   17.80    1.70
  -6  -2  -3   15.60    1.70
  -6  -2  -3   16.30    1.80
  -6  -2  -3   12.90    1.60
  -6  -2  -3   15.80    1.60
   6   2   3   17.50    1.80
   6   2   3   13.60    1.90
  -7  -2  -3    0.20    1.10
  -7  -2  -3   -0.20    1.00
  -7  -2  -3   -0.10    1.20
  -7  -2  -3   -2.00    1.30
   7   2   3   -0.40    1.40
   7   2   3   -1.10    1.10
  -8  -2  -3   14.20    2.30
  -8  -2  -3   15.00    1.90
  -8  -2  -3   14.40    2.10
  -8  -2  -3   13.70    1.80
   8   2   3   13.20    2.30
   8   2   3   14.20    1.90
  -9  -2  -3   10.60    2.40
  -9  -2  -3    6.50    1.70
  -9  -2  -3   10.50    1.90
   9   2   3    8.10    1.90
   9   2   3    7.40    2.10
 -10  -2  -3   -0.30    1.30
 -10  -2  -3    1.20    2.20
 -10  -2  -3    1.90    1.50
  10   2   3   -1.40    1.30
  10   2   3    2.00    1.80
  10   2   3    2.80    1.90
 -11  -2  -3    3.10    1.70
 -11  -2  -3    7.10    2.50
  11   2   3    1.20    1.70
  11   2   3    2.10    2.10
  11   2   3    3.10    2.20
 -12  -2  -3   78.39    5.90
  12   2   3   87.99    6.10
  12   2   3   66.09    4.90
   9  -3  -3   -0.90    2.00
  -9   3   3   -1.40    2.00
  -9   3   3   -2.90    2.40
   8  -3  -3   60.19    5.20
  -8   3   3   61.49    4.30
  -8   3   3   60.99    5.20
   7  -3  -3   19.30    3.10
  -7   3   3   21.70    2.20
  -7   3   3   18.90    3.00
  -7   3   3   24.20    2.80
   6  -3  -3  114.09    6.20
   6  -3  -3  113.59    4.70
   6  -3  -3  113.19    4.60
  -6   3   3  111.59    5.40
  -6   3   3  113.29    5.80
  -6   3   3  115.19    5.10
   5  -3  -3   53.49    2.90
   5  -3  -3   45.90    2.50
   5  -3  -3   47.00    2.50
   5  -3  -3   47.70    3.60
  -5   3   3   50.59    3.00
  -5   3   3   42.80    3.10
  -5   3   3   40.90    3.40
   4  -3  -3    9.20    1.10
   4  -3  -3    9.20    1.10
   4  -3  -3   10.30    1.90
   4  -3  -3   12.00    1.30
  -4   3   3    8.30    1.50
  -4   3   3   10.00    1.70
  -4   3   3    6.20    1.70
   3  -3  -3   15.00    1.30
   3  -3  -3   11.90    1.30
   3  -3  -3   14.20    1.20
   3  -3  -3   13.50    1.30
   3  -3  -3   13.00    1.80
  -3   3   3   14.10    1.60
  -3   3   3   12.50    1.60
  -3   3   3   12.10    1.80
   2  -3  -3   33.60    2.10
   2  -3  -3   39.30    2.00
   2  -3  -3   37.90    1.90
   2  -3  -3   38.80    2.40
   2  -3  -3   39.90    1.90
   2  -3  -3   46.20    2.60
  -2   3   3   43.30    2.30
  -2   3   3   35.00    2.40
  -2   3   3   39.50    2.40
  -2   3   3   35.00    2.50
   1  -3  -3  213.28    7.60
   1  -3  -3  226.08    7.40
   1  -3  -3  219.88    7.80
   1  -3  -3  213.08    7.90
   1  -3  -3  222.58    7.40
   1  -3  -3  214.08    7.80
   1  -3  -3  211.28    7.30
   1  -3  -3  216.38    7.80
   1  -3  -3  230.58    7.50
   1  -3  -3  207.28    7.50
  -1   3   3  208.38    7.70
  -1   3   3  212.58    7.10
  -1   3   3  204.78    7.80
  -1   3   3  202.88    7.60
  -1   3   3  219.38    7.10
  -1   3   3  224.28    7.80
   0  -3  -3  309.07   10.40
   0  -3  -3  300.67   10.10
   0  -3  -3  288.57   10.20
   0  -3  -3  308.17   10.20
   0  -3  -3  298.47   10.40
   0  -3  -3  321.07   10.20
   0  -3  -3  315.27   10.10
   0  -3  -3  293.77   10.30
   0  -3  -3  282.27    9.80
   0   3   3  281.87   10.40
   0   3   3  295.67   10.20
   0   3   3  294.37   10.00
   0   3   3  313.47   10.00
   0   3   3  311.77   10.50
   0   3   3  302.57   10.30
   0   3   3  309.67   10.30
  -1  -3  -3   11.80    1.30
  -1  -3  -3    9.60    1.00
  -1  -3  -3   14.90    1.30
  -1  -3  -3    9.70    1.20
  -1  -3  -3    8.40    1.10
  -1  -3  -3    9.90    1.00
  -1  -3  -3    9.20    1.00
   1   3   3   12.60    1.20
   1   3   3   10.20    1.10
   1   3   3   11.90    1.10
   1   3   3   11.20    1.00
   1   3   3    9.30    1.20
   1   3   3    9.60    1.20
   1   3   3   10.20    1.30
   1   3   3   10.00    1.00
  -2  -3  -3  611.44   20.50
  -2  -3  -3  587.04   20.70
  -2  -3  -3  646.34   20.70
  -2  -3  -3  630.64   20.50
  -2  -3  -3  634.74   20.80
  -2  -3  -3  649.83   21.00
  -2  -3  -3  634.84   20.70
   2   3   3  627.44   20.70
   2   3   3  651.53   20.60
   2   3   3  646.94   21.00
   2   3   3  651.33   20.80
   2   3   3  623.14   20.70
  -3  -3  -3  488.45   16.50
  -3  -3  -3  502.65   16.30
  -3  -3  -3  493.05   16.80
  -3  -3  -3  495.35   16.50
  -3  -3  -3  452.45   16.50
  -3  -3  -3  503.15   16.30
  -3  -3  -3  531.55   16.60
   3   3   3  513.15   16.90
   3   3   3  498.75   16.30
   3   3   3  500.65   16.50
   3   3   3  484.95   16.30
   3   3   3  505.95   16.50
   3   3   3  489.65   16.50
  -4  -3  -3   -0.40    0.80
  -4  -3  -3    0.40    0.60
  -4  -3  -3    0.20    1.00
  -4  -3  -3    0.10    0.90
  -4  -3  -3   -0.40    0.80
  -4  -3  -3    0.10    1.00
   4   3   3    0.20    0.90
   4   3   3    0.10    0.70
   4   3   3    0.20    1.20
   4   3   3   -0.50    0.90
   4   3   3    0.30    0.70
   4   3   3    0.30    0.80
  -5  -3  -3   28.90    1.90
  -5  -3  -3   27.60    2.10
  -5  -3  -3   28.60    2.10
  -5  -3  -3   30.70    1.70
  -5  -3  -3   25.40    2.20
   5   3   3   28.80    1.50
   5   3   3   27.80    1.70
   5   3   3   28.30    2.00
   5   3   3   26.20    2.50
  -6  -3  -3  805.52   27.10
  -6  -3  -3  819.72   26.70
  -6  -3  -3  837.12   26.60
  -6  -3  -3  803.12   27.20
  -6  -3  -3  830.82   27.10
   6   3   3  819.92   27.70
   6   3   3  824.82   27.20
   6   3   3  820.62   26.30
  -7  -3  -3    2.40    1.30
  -7  -3  -3    3.20    1.50
  -7  -3  -3    1.20    1.40
  -7  -3  -3    1.10    1.00
   7   3   3    1.50    1.50
   7   3   3    2.30    1.30
  -8  -3  -3   90.69    4.50
  -8  -3  -3   88.79    3.90
  -8  -3  -3   88.29    4.30
  -8  -3  -3   83.79    4.60
   8   3   3   92.49    4.60
   8   3   3   88.59    5.10
  -9  -3  -3  186.28    7.20
  -9  -3  -3  172.68    6.90
  -9  -3  -3  189.08    7.70
  -9  -3  -3  170.58    7.80
   9   3   3  186.48    8.20
   9   3   3  182.98    7.60
 -10  -3  -3    3.60    2.10
 -10  -3  -3    8.70    1.70
 -10  -3  -3    6.40    2.50
 -10  -3  -3    8.30    1.60
  10   3   3    5.60    1.70
  10   3   3    5.20    2.30
 -11  -3  -3    3.40    1.40
 -11  -3  -3    0.80    1.40
 -11  -3  -3   -0.90    2.00
  11   3   3    1.00    1.70
  11   3   3    1.10    2.20
 -12  -3  -3   18.80    3.40
  12   3   3   10.10    2.90
  12   3   3   12.90    2.60
  12   3   3   10.70    2.90
   9  -4  -3   26.70    4.10
  -9   4   3   24.10    3.50
  -9   4   3   24.80    3.90
   8  -4  -3   65.19    5.50
  -8   4   3   60.99    4.80
  -8   4   3   62.99    5.10
   7  -4  -3    3.20    2.20
  -7   4   3    2.20    2.40
  -7   4   3    3.80    1.40
  -7   4   3    4.10    2.20
   6  -4  -3  301.87   10.90
   6  -4  -3  299.17   12.20
  -6   4   3  307.47   11.10
  -6   4   3  294.97   11.90
  -6   4   3  300.57   11.50
   5  -4  -3   13.20    1.60
   5  -4  -3   16.10    2.50
  -5   4   3   13.40    1.80
  -5   4   3   11.10    2.30
  -5   4   3    9.60    2.00
   4  -4  -3  480.75   16.00
   4  -4  -3  453.85   15.70
   4  -4  -3  462.05   15.20
   4  -4  -3  469.45   16.90
   4  -4  -3  491.35   15.30
  -4   4   3  473.95   16.40
  -4   4   3  492.25   16.80
  -4   4   3  459.35   16.50
   3  -4  -3  145.59    5.10
   3  -4  -3  158.08    5.10
   3  -4  -3  146.29    6.30
   3  -4  -3  151.18    5.70
   3  -4  -3  150.58    5.40
  -3   4   3  150.78    6.10
  -3   4   3  148.99    5.00
  -3   4   3  150.58    6.40
  -3   4   3  146.89    6.00
   2  -4  -3  456.35   16.50
   2  -4  -3  493.95   16.10
   2  -4  -3  476.85   15.80
   2  -4  -3  514.55   15.70
   2  -4  -3  478.15   16.70
  -2   4   3  472.15   15.70
  -2   4   3  485.45   16.40
  -2   4   3  494.65   15.90
  -2   4   3  465.75   16.40
  -2   4   3  467.65   15.60
   1  -4  -3  177.18    6.60
   1  -4  -3  189.88    7.10
   1  -4  -3  184.18    7.10
   1  -4  -3  192.38    6.40
   1  -4  -3  180.88    6.60
  -1   4   3  178.68    6.90
  -1   4   3  182.68    6.40
  -1   4   3  187.08    6.40
  -1   4   3  182.58    6.80
  -1   4   3  183.18    6.50
   0  -4  -3   16.70    1.60
   0  -4  -3   14.10    1.30
   0  -4  -3   13.10    1.50
   0  -4  -3   13.80    1.30
   0  -4  -3   14.60    1.40
   0  -4  -3   11.50    1.40
   0  -4  -3   12.90    1.50
   0  -4  -3   13.60    1.30
   0  -4  -3   12.50    1.40
   0   4   3   11.80    1.50
   0   4   3   14.10    1.50
   0   4   3   16.10    1.30
   0   4   3   14.00    1.30
   0   4   3   14.20    1.30
   0   4   3   13.80    1.40
  -1  -4  -3  166.68    6.30
  -1  -4  -3  168.88    6.00
  -1  -4  -3  184.08    6.30
  -1  -4  -3  166.78    6.50
  -1  -4  -3  176.38    6.40
  -1  -4  -3  154.88    6.20
  -1  -4  -3  173.18    6.20
  -1  -4  -3  163.48    6.10
   1   4   3  173.48    6.10
   1   4   3  173.88    6.40
   1   4   3  165.98    6.30
   1   4   3  170.18    6.10
   1   4   3  168.38    6.10
   1   4   3  158.38    6.30
   1   4   3  175.38    6.30
   1   4   3  181.08    6.30
  -2  -4  -3  338.27   11.20
  -2  -4  -3  315.57   10.90
  -2  -4  -3  320.47   11.00
  -2  -4  -3  319.37   11.10
  -2  -4  -3  319.87   10.90
  -2  -4  -3  313.87   10.90
  -2  -4  -3  308.47   10.60
   2   4   3  311.77   11.00
   2   4   3  321.87   10.30
   2   4   3  307.47   10.90
   2   4   3  326.97   10.90
   2   4   3  321.67   10.60
   2   4   3  319.77   11.00
   2   4   3  330.67   11.20
   2   4   3  312.37   10.90
  -3  -4  -3  344.27   12.10
  -3  -4  -3  359.46   12.40
  -3  -4  -3  355.96   11.60
  -3  -4  -3  351.76   12.10
  -3  -4  -3  357.16   12.00
  -3  -4  -3  351.46   12.10
   3   4   3  350.26   12.10
   3   4   3  352.96   11.70
   3   4   3  366.26   12.00
   3   4   3  345.87   12.00
   3   4   3  344.07   12.10
   3   4   3  360.26   12.10
   3   4   3  368.46   12.50
  -4  -4  -3   72.09    3.20
  -4  -4  -3   70.09    3.30
  -4  -4  -3   68.49    3.30
  -4  -4  -3   70.99    3.30
  -4  -4  -3   74.09    3.50
   4   4   3   71.19    3.80
   4   4   3   72.49    3.20
   4   4   3   73.79    3.10
   4   4   3   72.49    3.20
   4   4   3   70.89    3.30
  -5  -4  -3  617.34   20.10
  -5  -4  -3  596.54   20.20
  -5  -4  -3  582.44   20.20
  -5  -4  -3  629.14   20.20
  -5  -4  -3  583.34   20.20
   5   4   3  597.94   20.10
   5   4   3  622.94   20.90
   5   4   3  631.54   19.90
   5   4   3  581.14   20.20
  -6  -4  -3  111.69    4.70
  -6  -4  -3  104.49    4.70
  -6  -4  -3  109.69    4.40
  -6  -4  -3  105.29    4.00
  -6  -4  -3  103.19    4.70
  -6  -4  -3  106.99    4.70
   6   4   3  108.59    4.10
   6   4   3  102.89    5.20
   6   4   3  104.99    4.60
  -7  -4  -3   73.59    3.80
  -7  -4  -3   72.39    3.10
  -7  -4  -3   74.59    3.90
  -7  -4  -3   78.19    3.90
  -7  -4  -3   78.29    3.10
   7   4   3   74.19    3.80
   7   4   3   76.69    4.50
   7   4   3   74.99    3.00
  -8  -4  -3  331.37   10.90
  -8  -4  -3  336.77   11.60
  -8  -4  -3  299.07   10.50
  -8  -4  -3  312.27   11.80
  -8  -4  -3  320.37   11.80
   8   4   3  306.57   12.40
   8   4   3  318.17   10.40
   8   4   3  324.27   11.70
  -9  -4  -3   19.60    2.60
  -9  -4  -3   28.30    2.90
  -9  -4  -3   18.80    2.10
  -9  -4  -3   20.20    1.70
   9   4   3   16.80    2.80
   9   4   3   14.40    2.20
 -10  -4  -3    5.50    1.60
 -10  -4  -3    3.60    1.90
 -10  -4  -3    5.00    2.10
 -10  -4  -3    5.50    1.20
  10   4   3    4.70    1.60
  10   4   3    4.10    2.50
 -11  -4  -3   36.10    3.80
 -11  -4  -3   32.60    3.80
 -11  -4  -3   40.20    2.90
  11   4   3   29.20    3.90
  11   4   3   38.60    3.50
 -12  -4  -3    2.60    2.50
 -12  -4  -3   -0.70    2.20
  12   4   3   -0.10    2.50
  12   4   3   -2.10    1.70
   8  -5  -3   10.30    2.90
  -8   5   3    6.30    2.90
  -8   5   3   17.10    3.10
   7  -5  -3    1.40    2.20
  -7   5   3    2.20    2.40
  -7   5   3    1.10    2.00
   6  -5  -3  190.28    8.70
   6  -5  -3  180.18    7.40
  -6   5   3  183.58    7.50
  -6   5   3  172.38    8.20
  -6   5   3  173.28    7.90
   5  -5  -3   18.00    2.00
   5  -5  -3   13.70    2.50
  -5   5   3   21.60    2.80
  -5   5   3   22.70    2.50
  -5   5   3   14.70    2.60
   4  -5  -3  225.08    8.30
   4  -5  -3  210.38    9.10
  -4   5   3  196.98    7.20
  -4   5   3  227.28    8.80
  -4   5   3  209.08    8.80
  -4   5   3  225.48    7.30
  -4   5   3  233.58    8.60
   3  -5  -3  803.22   28.50
   3  -5  -3  868.51   28.00
  -3   5   3  830.62   28.20
  -3   5   3  871.31   27.40
  -3   5   3  861.91   28.20
  -3   5   3  821.12   27.30
   2  -5  -3    1.20    1.20
   2  -5  -3    0.50    0.90
   2  -5  -3    0.10    1.20
  -2   5   3   -0.40    0.80
  -2   5   3    0.90    0.60
  -2   5   3   -0.10    1.10
  -2   5   3   -0.40    1.20
   1  -5  -3  235.38    7.90
   1  -5  -3  229.38    8.90
   1  -5  -3  240.38    9.00
   1  -5  -3  243.58    8.60
  -1   5   3  215.88    8.30
  -1   5   3  252.97    8.10
  -1   5   3  235.48    8.80
  -1   5   3  232.88    8.30
  -1   5   3  246.78    8.70
   0  -5  -3    6.50    1.20
   0  -5  -3    7.90    0.90
   0  -5  -3    7.90    1.50
   0  -5  -3    6.60    1.30
   0   5   3    6.00    0.90
   0   5   3    5.50    1.10
   0   5   3    7.80    1.00
   0   5   3    5.90    1.20
   0   5   3    7.20    1.00
   0   5   3    7.50    1.40
  -1  -5  -3  100.99    3.40
  -1  -5  -3   93.59    4.20
  -1  -5  -3   97.69    3.80
  -1  -5  -3   98.19    4.00
  -1  -5  -3  100.29    4.30
  -1  -5  -3   94.69    4.10
   1   5   3   98.49    4.00
   1   5   3  103.59    4.10
   1   5   3   88.49    4.00
   1   5   3  100.39    4.00
   1   5   3   98.69    4.40
  -2  -5  -3    2.10    1.00
  -2  -5  -3    1.90    1.00
  -2  -5  -3    3.00    0.40
  -2  -5  -3    2.90    1.00
  -2  -5  -3    2.60    0.70
  -2  -5  -3    1.60    0.90
   2   5   3    2.80    0.90
   2   5   3    2.40    1.00
   2   5   3    3.10    1.00
   2   5   3    2.80    1.00
   2   5   3    2.20    1.20
   2   5   3    3.80    1.30
  -3  -5  -3  102.39    4.40
  -3  -5  -3  102.39    4.50
  -3  -5  -3  111.69    4.50
  -3  -5  -3  103.79    3.80
  -3  -5  -3  105.09    4.50
   3   5   3  108.39    4.80
   3   5   3  107.19    3.90
   3   5   3  113.59    4.80
   3   5   3  107.89    4.80
   3   5   3  107.19    4.50
   3   5   3  105.29    4.60
  -4  -5  -3  169.28    6.90
  -4  -5  -3  155.38    5.40
  -4  -5  -3  154.78    6.10
  -4  -5  -3  167.28    6.10
  -4  -5  -3  150.28    6.10
   4   5   3  155.08    6.30
   4   5   3  158.68    6.10
   4   5   3  152.38    6.50
   4   5   3  159.48    6.10
   4   5   3  161.28    5.70
  -5  -5  -3   73.99    3.60
  -5  -5  -3   77.79    3.70
  -5  -5  -3   77.09    3.60
  -5  -5  -3   76.89    2.70
  -5  -5  -3   74.19    3.60
   5   5   3   82.89    3.60
   5   5   3   71.09    4.10
   5   5   3   73.19    3.40
   5   5   3   75.09    3.60
  -6  -5  -3  204.08    7.70
  -6  -5  -3  208.78    6.80
  -6  -5  -3  206.28    7.70
  -6  -5  -3  199.18    7.70
  -6  -5  -3  208.28    7.80
  -6  -5  -3  189.78    7.60
   6   5   3  196.48    8.40
   6   5   3  190.98    7.70
   6   5   3  208.28    7.40
  -7  -5  -3    0.80    0.90
  -7  -5  -3    1.00    0.50
  -7  -5  -3    0.20    1.20
  -7  -5  -3    0.80    1.30
  -7  -5  -3    0.50    1.20
   7   5   3   -0.10    0.90
   7   5   3    1.60    1.30
   7   5   3   -0.20    1.60
  -8  -5  -3    7.30    0.80
  -8  -5  -3    5.60    1.10
  -8  -5  -3    5.90    1.60
  -8  -5  -3    5.50    1.70
  -8  -5  -3    8.30    1.90
   8   5   3    7.50    1.10
   8   5   3    7.70    2.30
   8   5   3    6.00    1.70
  -9  -5  -3  170.28    6.10
  -9  -5  -3  168.08    7.50
  -9  -5  -3  166.28    7.40
  -9  -5  -3  179.08    7.10
   9   5   3  181.68    7.40
   9   5   3  166.78    8.40
 -10  -5  -3    8.00    2.30
 -10  -5  -3   10.80    1.80
 -10  -5  -3    4.80    2.00
  10   5   3    7.60    2.60
  10   5   3   11.10    2.10
 -11  -5  -3   43.60    3.10
 -11  -5  -3   39.80    4.00
 -11  -5  -3   41.80    4.00
  11   5   3   44.70    3.80
  11   5   3   34.90    4.30
 -12  -5  -3   57.49    4.90
 -12  -5  -3   58.19    4.70
  12   5   3   53.79    5.60
  12   5   3   64.69    4.60
   7  -6  -3   26.90    3.90
  -7   6   3   18.30    3.30
   6  -6  -3    0.20    2.20
   6  -6  -3    1.30    1.60
  -6   6   3    1.50    2.10
  -6   6   3    2.40    1.60
   5  -6  -3   76.89    5.00
   5  -6  -3   62.69    3.90
  -5   6   3   78.49    4.30
  -5   6   3   60.79    4.40
   4  -6  -3   29.40    3.30
   4  -6  -3   34.90    3.50
   4  -6  -3   32.50    2.70
  -4   6   3   38.00    3.10
  -4   6   3   31.20    2.00
  -4   6   3   32.10    3.20
   3  -6  -3   80.99    4.00
   3  -6  -3   79.49    4.80
   3  -6  -3   79.29    4.60
  -3   6   3   78.39    3.60
  -3   6   3   86.19    4.50
  -3   6   3   74.99    4.40
  -3   6   3   84.49    3.60
   2  -6  -3   72.39    4.10
   2  -6  -3   70.09    3.70
   2  -6  -3   70.79    4.20
  -2   6   3   68.79    3.20
  -2   6   3   76.09    3.40
  -2   6   3   63.89    3.80
  -2   6   3   75.29    4.10
   1  -6  -3   22.30    1.10
   1  -6  -3   24.40    2.10
   1  -6  -3   23.30    2.50
   1  -6  -3   21.40    2.30
  -1   6   3   23.00    1.30
  -1   6   3   20.90    1.90
  -1   6   3   19.50    2.20
  -1   6   3   19.00    2.10
  -1   6   3   23.20    1.80
   0  -6  -3 1000.30   33.10
   0  -6  -3 1004.60   33.90
   0  -6  -3 1039.80   33.70
   0  -6  -3 1007.30   33.80
   0   6   3 1029.20   33.10
   0   6   3 1008.00   33.90
   0   6   3 1048.40   33.50
   0   6   3 1064.39   33.10
   0   6   3  995.90   33.50
  -1  -6  -3  596.74   21.30
  -1  -6  -3  626.24   21.30
  -1  -6  -3  642.34   20.60
  -1  -6  -3  594.54   21.40
  -1  -6  -3  674.83   21.10
   1   6   3  619.24   21.50
   1   6   3  609.04   21.20
   1   6   3  656.03   21.00
   1   6   3  676.63   21.10
  -2  -6  -3   79.99    3.70
  -2  -6  -3   83.59    3.00
  -2  -6  -3   80.99    3.20
  -2  -6  -3   82.29    3.80
  -2  -6  -3   81.39    3.80
  -2  -6  -3   74.59    3.90
   2   6   3   69.69    4.10
   2   6   3   82.49    3.40
   2   6   3   82.09    3.80
   2   6   3   79.09    3.70
   2   6   3   73.99    4.00
  -3  -6  -3  326.57   10.40
  -3  -6  -3  315.57   10.40
  -3  -6  -3  294.37   11.00
  -3  -6  -3  301.17   11.10
  -3  -6  -3  310.67   11.00
   3   6   3  308.47   11.50
   3   6   3  320.67   11.30
   3   6   3  316.37   10.50
   3   6   3  313.47   10.40
   3   6   3  304.37   11.10
   3   6   3  321.07   11.40
  -4  -6  -3   35.40    2.40
  -4  -6  -3   37.40    2.50
  -4  -6  -3   39.20    1.60
  -4  -6  -3   38.50    2.50
   4   6   3   38.00    2.90
   4   6   3   33.70    2.60
   4   6   3   37.90    2.70
   4   6   3   39.60    2.00
   4   6   3   40.80    3.00
  -5  -6  -3    4.30    0.40
  -5  -6  -3    4.70    1.30
  -5  -6  -3    3.30    1.20
  -5  -6  -3    6.10    1.30
   5   6   3    4.30    1.50
   5   6   3    4.80    1.00
   5   6   3    2.70    1.20
   5   6   3    5.40    1.50
   5   6   3    3.10    1.60
  -6  -6  -3   29.10    2.30
  -6  -6  -3   35.10    2.60
  -6  -6  -3   26.60    2.40
  -6  -6  -3   31.30    2.50
   6   6   3   34.50    2.60
   6   6   3   33.80    2.70
   6   6   3   31.60    3.20
   6   6   3   31.60    2.50
  -7  -6  -3  217.28    8.50
  -7  -6  -3  229.28    8.60
  -7  -6  -3  211.18    8.40
  -7  -6  -3  222.68    8.60
   7   6   3  210.48    9.40
   7   6   3  228.98    8.30
   7   6   3  221.08    8.60
   7   6   3  216.28    8.40
  -8  -6  -3    1.40    1.50
  -8  -6  -3   -1.80    1.30
  -8  -6  -3   -0.10    1.70
   8   6   3   -0.30    1.10
   8   6   3   -1.30    1.40
   8   6   3   -0.50    2.00
  -9  -6  -3  127.09    5.60
  -9  -6  -3  124.79    6.30
  -9  -6  -3  117.69    5.90
   9   6   3  127.49    5.10
   9   6   3  116.29    6.80
   9   6   3  136.29    6.00
 -10  -6  -3    0.40    1.40
 -10  -6  -3    3.30    2.10
 -10  -6  -3    1.70    1.90
  10   6   3    1.20    1.50
  10   6   3    1.90    2.50
 -11  -6  -3  138.99    6.90
 -11  -6  -3  131.29    5.80
 -11  -6  -3  128.79    7.00
  11   6   3  114.59    7.50
  11   6   3  141.19    6.70
 -12  -6  -3   28.40    3.70
 -12  -6  -3   24.70    3.70
  12   6   3   26.60    4.20
  12   6   3   33.00    3.50
   7  -7  -3   15.60    3.70
   7  -7  -3   16.90    3.20
  -7   7   3   17.70    3.20
   6  -7  -3   28.00    3.90
   6  -7  -3   24.90    4.40
   6  -7  -3   23.70    3.40
  -6   7   3   25.30    3.50
   5  -7  -3  112.69    6.30
   5  -7  -3  109.29    5.70
   5  -7  -3  108.99    6.70
  -5   7   3  113.49    5.80
  -5   7   3  109.79    6.10
   4  -7  -3   44.90    4.20
   4  -7  -3   38.10    3.20
   4  -7  -3   43.40    4.00
  -4   7   3   42.40    3.50
  -4   7   3   45.50    2.60
  -4   7   3   37.00    3.60
   3  -7  -3   70.99    4.60
   3  -7  -3   78.29    5.00
   3  -7  -3   72.19    4.10
  -3   7   3   62.59    4.30
  -3   7   3   75.19    3.70
  -3   7   3   70.79    4.40
   2  -7  -3   84.99    5.20
   2  -7  -3   98.59    4.70
   2  -7  -3   91.19    4.80
  -2   7   3   86.89    4.30
  -2   7   3   80.79    4.60
  -2   7   3   98.49    5.10
   1  -7  -3   98.59    4.60
   1  -7  -3   86.49    4.90
   1  -7  -3   87.29    4.60
  -1   7   3   84.69    4.80
  -1   7   3   89.69    4.50
  -1   7   3   97.29    4.50
   0  -7  -3  606.44   21.00
   0  -7  -3  621.84   21.30
   0  -7  -3  621.24   21.00
   0  -7  -3  602.34   20.20
   0  -7  -3  625.54   20.30
   0   7   3  628.84   20.80
   0   7   3  605.34   20.10
   0   7   3  601.14   21.20
   0   7   3  608.94   20.20
   0   7   3  615.24   20.80
  -1  -7  -3   15.30    1.80
  -1  -7  -3   15.00    1.30
  -1  -7  -3   14.60    1.60
  -1  -7  -3   15.40    1.90
  -1  -7  -3   17.00    2.20
   1   7   3   14.70    2.10
   1   7   3   14.50    2.30
   1   7   3   14.30    1.80
   1   7   3   16.50    2.00
   1   7   3   14.00    1.60
  -2  -7  -3  419.16   14.60
  -2  -7  -3  407.06   14.80
  -2  -7  -3  398.56   14.40
  -2  -7  -3  421.96   13.80
   2   7   3  420.56   14.90
   2   7   3  430.76   14.60
   2   7   3  428.56   14.10
   2   7   3  398.56   15.10
   2   7   3  412.36   14.60
  -3  -7  -3  280.47    9.60
  -3  -7  -3  266.47   10.20
  -3  -7  -3  274.97   10.50
  -3  -7  -3  275.47   10.10
  -3  -7  -3  288.77    9.60
   3   7   3  281.17   10.40
   3   7   3  280.27   10.60
   3   7   3  283.47   10.60
   3   7   3  271.87   10.80
   3   7   3  294.77    9.60
  -4  -7  -3   87.69    3.40
  -4  -7  -3   82.89    3.80
  -4  -7  -3   74.29    4.00
  -4  -7  -3   86.89    4.20
  -4  -7  -3   79.09    4.10
  -4  -7  -3   79.19    3.00
   4   7   3   74.59    4.00
   4   7   3   71.59    4.10
   4   7   3   80.79    3.30
   4   7   3   80.89    3.10
   4   7   3   77.29    4.60
   4   7   3   75.79    4.40
  -5  -7  -3  248.28    9.50
  -5  -7  -3  257.57    9.60
  -5  -7  -3  264.27    9.50
  -5  -7  -3  252.87    8.30
   5   7   3  254.27   10.00
   5   7   3  253.97   10.20
   5   7   3  248.28    9.00
   5   7   3  253.67    9.60
   5   7   3  256.47    9.70
  -6  -7  -3   28.20    2.60
  -6  -7  -3   26.60    2.40
  -6  -7  -3   27.90    2.60
   6   7   3   23.20    3.00
   6   7   3   38.00    3.20
   6   7   3   25.60    2.50
  -7  -7  -3   45.90    3.20
  -7  -7  -3   45.00    3.10
  -7  -7  -3   42.30    3.00
  -7  -7  -3   42.00    3.20
   7   7   3   45.10    3.40
   7   7   3   45.40    4.10
   7   7   3   48.50    3.50
  -8  -7  -3  233.98    9.70
  -8  -7  -3  250.37    9.50
  -8  -7  -3  227.38    9.30
  -8  -7  -3  243.68    9.60
   8   7   3  246.18    9.70
   8   7   3  246.38   10.70
   8   7   3  244.78    9.30
   8   7   3  246.08    9.50
  -9  -7  -3    1.30    1.70
  -9  -7  -3    0.80    1.90
  -9  -7  -3   -0.20    1.50
   9   7   3    1.30    1.60
   9   7   3    2.90    1.50
   9   7   3    1.90    2.50
 -10  -7  -3    0.30    1.90
 -10  -7  -3   -0.60    1.40
 -10  -7  -3   -1.00    1.70
  10   7   3    0.40    1.70
  10   7   3   -1.50    2.40
 -11  -7  -3   40.60    4.00
 -11  -7  -3   39.90    3.30
 -11  -7  -3   33.00    3.70
  11   7   3   25.90    4.20
  11   7   3   42.50    3.90
 -12  -7  -3   -1.50    2.20
 -12  -7  -3    3.50    2.30
  12   7   3    3.20    3.00
  12   7   3    2.60    1.90
   6  -8  -3   35.10    4.40
   6  -8  -3   38.60    4.30
  -6   8   3   39.30    4.20
   5  -8  -3    2.30    2.30
   5  -8  -3    0.20    1.60
   5  -8  -3    1.20    2.10
  -5   8   3    3.80    2.50
  -5   8   3    5.40    2.10
   4  -8  -3    9.50    2.50
   4  -8  -3    6.30    2.60
   4  -8  -3    8.20    2.00
  -4   8   3    6.90    2.50
  -4   8   3    6.70    1.80
  -4   8   3   11.90    2.40
   3  -8  -3   -0.40    1.70
   3  -8  -3    1.60    1.40
   3  -8  -3   -1.80    1.80
  -3   8   3   -0.20    1.40
  -3   8   3    1.20    1.90
  -3   8   3    1.40    1.80
   2  -8  -3   57.59    4.40
   2  -8  -3   60.59    4.20
   2  -8  -3   66.09    4.00
  -2   8   3   63.99    3.80
  -2   8   3   55.29    4.00
  -2   8   3   62.49    4.40
   1  -8  -3  140.69    6.90
   1  -8  -3  148.19    6.00
   1  -8  -3  151.68    6.60
   1  -8  -3  153.18    6.70
  -1   8   3  148.29    6.30
  -1   8   3  136.19    6.80
  -1   8   3  136.89    6.40
   0  -8  -3    3.80    1.60
   0  -8  -3    3.00    1.40
   0  -8  -3    1.50    1.00
   0  -8  -3    3.90    1.80
   0   8   3    4.20    1.70
   0   8   3    3.50    1.70
   0   8   3    1.30    0.80
   0   8   3    3.30    0.70
   0   8   3    5.10    1.90
  -1  -8  -3   -0.40    0.80
  -1  -8  -3    0.40    0.80
  -1  -8  -3    0.90    1.30
  -1  -8  -3    0.60    1.40
  -1  -8  -3   -0.70    1.30
   1   8   3    0.70    1.50
   1   8   3   -1.40    1.60
   1   8   3    0.40    1.90
   1   8   3    0.00    1.50
   1   8   3    0.90    1.10
  -2  -8  -3  456.15   15.10
  -2  -8  -3  428.36   14.30
  -2  -8  -3  410.76   15.20
  -2  -8  -3  405.16   15.40
   2   8   3  423.06   15.50
   2   8   3  421.16   15.10
   2   8   3  422.16   14.60
   2   8   3  438.16   15.10
   2   8   3  418.66   15.90
  -3  -8  -3  204.18    7.90
  -3  -8  -3  204.68    7.30
  -3  -8  -3  199.28    8.20
  -3  -8  -3  204.18    8.40
   3   8   3  204.68    8.30
   3   8   3  207.28    7.40
   3   8   3  203.88    8.50
   3   8   3  207.18    8.30
   3   8   3  199.58    8.80
  -4  -8  -3    6.30    1.40
  -4  -8  -3    7.40    1.00
  -4  -8  -3    9.30    1.70
  -4  -8  -3    7.50    1.90
  -4  -8  -3   10.30    1.30
  -4  -8  -3   10.90    2.00
   4   8   3    7.20    1.10
   4   8   3    6.20    2.20
   4   8   3    8.30    2.10
   4   8   3    7.90    2.00
   4   8   3    8.90    1.10
   4   8   3    6.00    1.80
  -5  -8  -3   19.00    2.10
  -5  -8  -3   14.90    2.30
  -5  -8  -3   17.40    1.70
  -5  -8  -3   16.20    2.10
   5   8   3   17.90    2.60
   5   8   3    9.50    1.90
   5   8   3   12.40    2.40
   5   8   3   13.50    2.50
  -6  -8  -3  155.18    6.70
  -6  -8  -3  138.19    6.40
  -6  -8  -3  158.78    6.40
   6   8   3  151.88    6.70
   6   8   3  149.59    7.00
   6   8   3  150.08    7.40
  -7  -8  -3    9.50    1.80
  -7  -8  -3    7.70    1.90
  -7  -8  -3    8.00    1.80
  -7  -8  -3    9.60    1.80
   7   8   3    8.00    2.10
   7   8   3    6.00    2.40
   7   8   3    8.60    2.20
  -8  -8  -3  155.58    6.90
  -8  -8  -3  161.18    6.90
  -8  -8  -3  153.18    6.90
  -8  -8  -3  153.28    7.10
   8   8   3  150.98    8.20
   8   8   3  158.38    7.20
   8   8   3  164.48    7.30
  -9  -8  -3   10.00    2.40
  -9  -8  -3   10.60    2.20
   9   8   3    8.80    2.10
   9   8   3   11.10    2.30
   9   8   3   10.90    2.20
   9   8   3   10.00    3.10
 -10  -8  -3  101.99    5.80
 -10  -8  -3  114.69    5.40
 -10  -8  -3  111.39    6.10
  10   8   3  109.59    6.00
  10   8   3  104.29    7.40
 -11  -8  -3    3.30    1.70
 -11  -8  -3    6.40    2.40
 -11  -8  -3    0.80    2.10
  11   8   3    3.30    2.10
  11   8   3    1.30    3.30
 -12  -8  -3   -0.30    2.20
 -12  -8  -3    0.80    2.40
  12   8   3    1.90    2.00
  12   8   3   -4.30    3.10
   5  -9  -3   45.00    4.10
   5  -9  -3   40.30    4.30
   5  -9  -3   46.50    5.10
  -5   9   3   43.60    4.40
   4  -9  -3    2.20    2.00
   4  -9  -3    2.90    1.90
   4  -9  -3    2.10    2.50
  -4   9   3    0.30    2.30
  -4   9   3    1.70    2.10
   3  -9  -3   49.70    4.00
   3  -9  -3   39.20    4.30
   3  -9  -3   49.50    4.30
  -3   9   3   50.39    4.20
  -3   9   3   44.90    3.60
  -3   9   3   51.09    4.30
   2  -9  -3   79.19    4.80
   2  -9  -3   77.19    4.80
   2  -9  -3   75.49    4.30
   2  -9  -3   72.99    5.30
  -2   9   3   79.49    4.50
  -2   9   3   75.59    4.80
  -2   9   3   66.99    5.00
   1  -9  -3   90.99    4.90
   1  -9  -3   82.29    5.10
   1  -9  -3   81.89    4.10
   1  -9  -3   79.99    4.80
  -1   9   3   79.09    5.30
  -1   9   3   89.39    4.80
  -1   9   3   83.69    4.80
   0  -9  -3    3.20    1.80
   0  -9  -3    0.90    1.80
   0  -9  -3    3.30    1.20
   0  -9  -3    1.50    1.50
   0   9   3    1.80    1.80
   0   9   3    4.40    1.90
   0   9   3    2.90    2.10
  -1  -9  -3    3.40    1.70
  -1  -9  -3    2.80    1.60
  -1  -9  -3    7.40    1.30
  -1  -9  -3    4.10    1.60
   1   9   3    4.70    1.20
   1   9   3    4.90    1.80
   1   9   3    4.20    1.30
   1   9   3    1.90    2.40
   1   9   3    4.50    2.10
   1   9   3    1.80    1.90
  -2  -9  -3   12.70    2.00
  -2  -9  -3   14.10    1.50
  -2  -9  -3   10.60    2.10
  -2  -9  -3    9.50    2.20
   2   9   3   10.20    1.80
   2   9   3    6.80    2.10
   2   9   3   13.20    2.00
   2   9   3   10.70    2.50
   2   9   3   11.60    2.60
  -3  -9  -3  869.01   28.70
  -3  -9  -3  907.21   29.40
  -3  -9  -3  860.51   29.70
  -3  -9  -3  853.51   29.90
   3   9   3  832.72   29.90
   3   9   3  898.11   29.80
   3   9   3  880.71   28.80
   3   9   3  846.22   30.40
   3   9   3  919.41   29.70
  -4  -9  -3   30.00    2.80
  -4  -9  -3   23.60    2.80
  -4  -9  -3   33.80    2.20
  -4  -9  -3   29.00    2.70
  -4  -9  -3   33.70    3.20
   4   9   3   31.20    2.10
   4   9   3   22.80    2.80
   4   9   3   33.10    3.50
   4   9   3   27.70    3.50
   4   9   3   34.00    3.70
  -5  -9  -3  151.08    6.00
  -5  -9  -3  148.09    6.70
  -5  -9  -3  148.29    6.90
  -5  -9  -3  148.39    6.40
   5   9   3  148.29    7.00
   5   9   3  142.89    7.30
   5   9   3  139.89    6.70
   5   9   3  156.18    7.60
  -6  -9  -3  252.67   10.00
  -6  -9  -3  247.58    9.80
  -6  -9  -3  256.27    9.60
   6   9   3  234.98   10.70
   6   9   3  231.58    9.90
   6   9   3  242.18   10.40
   6   9   3  252.67   10.10
  -7  -9  -3   -1.00    1.40
  -7  -9  -3    0.60    1.60
  -7  -9  -3   -1.10    1.30
  -7  -9  -3    0.20    1.60
   7   9   3   -0.20    2.10
   7   9   3   -0.90    1.80
   7   9   3   -3.50    2.30
  -8  -9  -3  205.88    8.90
  -8  -9  -3  214.38    8.60
  -8  -9  -3  204.68    8.50
  -8  -9  -3  215.68    8.60
   8   9   3  211.88    9.30
   8   9   3  210.38    9.00
   8   9   3  193.38    9.90
  -9  -9  -3  157.18    6.80
  -9  -9  -3  141.39    7.10
  -9  -9  -3  146.09    6.80
   9   9   3  144.29    7.20
   9   9   3  143.29    6.90
   9   9   3  139.69    7.10
   9   9   3  132.79    8.10
 -10  -9  -3    2.70    2.00
 -10  -9  -3    3.00    1.80
 -10  -9  -3    1.50    2.30
  10   9   3    0.00    2.10
  10   9   3    5.00    2.20
  10   9   3    3.00    3.00
 -11  -9  -3  129.79    6.10
 -11  -9  -3  123.19    7.00
 -11  -9  -3  120.69    6.50
  11   9   3  115.89    8.10
  11   9   3  135.79    6.90
 -12  -9  -3    8.20    2.60
 -12  -9  -3    8.30    2.60
  12   9   3    2.70    3.60
  12   9   3    6.60    2.60
   4 -10  -3   10.00    2.70
   4 -10  -3    9.20    3.20
   4 -10  -3   10.60    2.60
  -4  10   3   12.80    3.10
  -4  10   3   16.10    3.00
   3 -10  -3  213.28    9.40
   3 -10  -3  197.38    9.90
   3 -10  -3  202.18    9.20
  -3  10   3  202.58    9.50
  -3  10   3  193.28    8.50
  -3  10   3  208.48    9.30
   2 -10  -3   20.50    2.90
   2 -10  -3   22.50    3.00
   2 -10  -3   21.70    3.30
  -2  10   3   27.00    3.50
  -2  10   3   24.30    3.60
  -2  10   3   23.50    2.90
   1 -10  -3  122.39    6.90
   1 -10  -3  127.69    6.20
   1 -10  -3  120.29    6.30
  -1  10   3  127.99    6.20
  -1  10   3  115.69    6.60
  -1  10   3  114.59    6.10
   0 -10  -3  107.59    5.60
   0 -10  -3  105.39    5.90
   0 -10  -3  113.29    6.30
   0  10   3  107.29    5.50
   0  10   3  106.19    5.80
   0  10   3  103.79    6.10
  -1 -10  -3  155.38    6.80
  -1 -10  -3  149.19    7.00
  -1 -10  -3  151.98    7.50
   1  10   3  153.98    7.40
   1  10   3  146.49    6.60
   1  10   3  141.79    7.80
   1  10   3  144.09    7.10
  -2 -10  -3   -0.50    1.70
  -2 -10  -3    2.00    1.50
  -2 -10  -3    1.60    1.60
  -2 -10  -3    2.20    1.10
   2  10   3   -2.30    1.30
   2  10   3    0.90    1.80
   2  10   3    1.70    1.50
   2  10   3    0.00    2.10
   2  10   3    1.40    2.20
  -3 -10  -3  180.48    8.50
  -3 -10  -3  193.38    7.30
  -3 -10  -3  190.08    8.30
  -3 -10  -3  204.48    7.90
   3  10   3  183.58    9.10
   3  10   3  186.68    7.40
   3  10   3  187.78    8.40
   3  10   3  191.68    8.70
   3  10   3  193.78    8.30
  -4 -10  -3   53.69    4.00
  -4 -10  -3   39.70    3.90
  -4 -10  -3   51.69    2.90
  -4 -10  -3   48.60    3.90
  -4 -10  -3   50.39    3.50
   4  10   3   51.49    2.80
   4  10   3   49.90    4.20
   4  10   3   45.00    4.20
   4  10   3   45.00    4.00
   4  10   3   46.70    4.50
  -5 -10  -3   36.80    2.60
  -5 -10  -3   31.40    3.00
  -5 -10  -3   38.30    3.50
  -5 -10  -3   34.80    3.50
  -5 -10  -3   29.00    3.20
   5  10   3   40.30    4.20
   5  10   3   38.60    3.90
   5  10   3   38.10    3.90
   5  10   3   26.90    3.10
  -6 -10  -3   91.49    4.50
  -6 -10  -3   87.89    4.70
  -6 -10  -3   97.39    5.10
  -6 -10  -3   86.79    5.20
   6  10   3   90.29    5.60
   6  10   3   98.09    6.40
   6  10   3   87.19    5.30
   6  10   3  101.69    6.10
  -7 -10  -3   24.10    2.70
  -7 -10  -3   18.70    2.80
  -7 -10  -3   26.10    3.00
  -7 -10  -3   23.80    2.50
   7  10   3   23.90    3.00
   7  10   3   22.20    3.50
   7  10   3   18.90    3.50
   7  10   3   20.80    3.40
  -8 -10  -3   60.89    4.10
  -8 -10  -3   65.19    4.60
  -8 -10  -3   68.69    4.50
  -8 -10  -3   62.69    4.00
   8  10   3   68.99    5.00
   8  10   3   65.79    5.00
   8  10   3   66.59    6.20
   8  10   3   67.59    5.00
  -9 -10  -3   -0.10    1.80
  -9 -10  -3    1.40    2.20
  -9 -10  -3    0.90    1.70
   9  10   3    3.70    2.40
   9  10   3   -0.90    2.70
   9  10   3   -1.40    2.40
   9  10   3   -0.10    2.10
 -10 -10  -3   24.60    3.10
 -10 -10  -3   20.20    2.70
 -10 -10  -3   25.40    3.50
  10  10   3   27.10    3.60
  10  10   3   29.90    3.60
  10  10   3   21.40    4.50
  10  10   3   28.60    3.50
 -11 -10  -3   64.09    5.20
 -11 -10  -3   66.59    4.40
 -11 -10  -3   68.79    4.90
  11  10   3   48.80    5.90
  11  10   3   66.49    5.30
   2 -11  -3    7.30    2.40
   2 -11  -3    5.30    2.60
   2 -11  -3    4.50    2.30
  -2  11   3    5.00    2.30
  -2  11   3    6.70    2.60
  -2  11   3   15.30    3.10
   1 -11  -3  165.28    7.70
   1 -11  -3  167.08    7.90
   1 -11  -3  133.89    7.90
  -1  11   3  161.58    7.50
  -1  11   3  172.58    8.40
  -1  11   3  154.18    7.50
   0 -11  -3   10.90    2.20
   0 -11  -3   14.30    2.70
   0 -11  -3   17.60    3.00
   0  11   3   21.20    3.10
   0  11   3   13.70    3.10
   0  11   3   18.70    2.90
  -1 -11  -3    1.30    1.60
  -1 -11  -3    0.80    1.80
  -1 -11  -3   -0.30    1.60
   1  11   3   -1.00    2.40
   1  11   3    1.60    2.30
   1  11   3    2.70    2.00
  -2 -11  -3    3.10    1.70
  -2 -11  -3    1.70    2.00
  -2 -11  -3    3.50    2.00
   2  11   3    6.00    2.30
   2  11   3    2.20    1.70
   2  11   3    2.80    2.70
   2  11   3    4.30    2.70
  -3 -11  -3   22.30    3.00
  -3 -11  -3   23.10    2.60
  -3 -11  -3   21.80    3.10
   3  11   3   22.80    2.40
   3  11   3   18.20    2.90
   3  11   3   21.50    3.50
   3  11   3   20.40    2.70
   3  11   3   21.40    3.70
  -4 -11  -3    4.90    2.20
  -4 -11  -3    5.20    1.70
  -4 -11  -3    3.70    1.80
  -4 -11  -3    5.30    2.10
   4  11   3    3.90    2.70
   4  11   3    5.00    2.30
   4  11   3    8.10    3.00
   4  11   3    2.90    2.30
  -5 -11  -3   40.00    4.00
  -5 -11  -3   40.50    3.80
  -5 -11  -3   38.50    3.80
  -5 -11  -3   39.00    3.20
   5  11   3   40.70    4.20
   5  11   3   38.50    3.80
   5  11   3   41.30    4.60
   5  11   3   46.50    4.70
  -6 -11  -3    0.90    2.00
  -6 -11  -3    0.50    1.80
  -6 -11  -3    0.70    1.50
   6  11   3    2.70    2.50
   6  11   3    4.40    2.80
   6  11   3   -0.80    2.30
   6  11   3    3.50    2.70
  -7 -11  -3    8.10    2.30
  -7 -11  -3    7.20    1.80
  -7 -11  -3    6.80    2.30
  -7 -11  -3    4.10    1.60
   7  11   3    4.10    2.50
   7  11   3    4.40    2.80
   7  11   3    5.50    3.00
   7  11   3    9.60    3.20
  -8 -11  -3   23.80    3.10
  -8 -11  -3   19.60    2.60
  -8 -11  -3   25.10    2.80
  -8 -11  -3   30.80    3.60
   8  11   3   17.80    3.40
   8  11   3   32.30    4.10
   8  11   3   26.80    4.20
   8  11   3   25.30    3.40
  -9 -11  -3   42.50    3.90
  -9 -11  -3   42.10    3.60
  -9 -11  -3   36.20    4.00
  -9 -11  -3   38.60    3.50
   9  11   3   39.50    4.00
   9  11   3   30.50    4.80
   9  11   3   34.10    4.20
   9  11   3   38.00    4.30
 -10 -11  -3    1.60    2.00
 -10 -11  -3   -1.60    1.80
 -10 -11  -3   -2.80    1.90
  10  11   3    1.10    2.50
  10  11   3   -5.50    2.40
  10  11   3   -1.70    2.30
  10  11   3   -3.60    3.20
 -11 -11  -3   54.19    4.90
 -11 -11  -3   49.80    4.30
  11  11   3   57.89    4.80
  11  11   3   34.10    5.30
   0 -12  -3   85.29    5.40
   0 -12  -3   91.69    6.40
   0 -12  -3   95.09    6.00
   0  12   3   82.09    5.80
   0  12   3   95.69    6.50
   0  12   3   93.59    5.50
  -1 -12  -3   25.60    3.00
  -1 -12  -3   28.40    3.90
  -1 -12  -3   26.60    3.50
   1  12   3   21.90    3.40
   1  12   3   25.70    3.20
   1  12   3   24.60    3.90
  -2 -12  -3   84.79    5.50
  -2 -12  -3   90.99    5.80
  -2 -12  -3   82.79    4.90
   2  12   3   83.29    6.00
   2  12   3   80.69    4.80
   2  12   3   83.49    7.00
   2  12   3   83.59    5.90
  -3 -12  -3  242.08   10.00
  -3 -12  -3  252.57   11.10
  -3 -12  -3  245.88   10.80
   3  12   3  240.48   10.70
   3  12   3  247.18   11.40
   3  12   3  251.97   12.00
  -4 -12  -3    1.80    2.00
  -4 -12  -3   -1.50    1.50
  -4 -12  -3   -1.00    2.00
  -4 -12  -3    1.50    1.90
   4  12   3   -0.80    2.40
   4  12   3    0.00    2.60
   4  12   3   -3.80    2.00
   4  12   3   -1.60    2.60
  -5 -12  -3  170.28    7.40
  -5 -12  -3  165.28    8.00
  -5 -12  -3  160.18    8.30
  -5 -12  -3  170.88    8.50
   5  12   3  163.48    9.00
   5  12   3  151.88    8.00
   5  12   3  166.88    8.80
   5  12   3  162.98    8.40
  -6 -12  -3   47.90    4.20
  -6 -12  -3   42.20    3.60
  -6 -12  -3   43.40    4.40
   6  12   3   51.99    5.00
   6  12   3   38.00    4.60
   6  12   3   54.29    4.90
   6  12   3   43.30    5.10
  -7 -12  -3   25.20    3.40
  -7 -12  -3   24.00    3.40
  -7 -12  -3   21.90    2.60
   7  12   3   23.80    4.20
   7  12   3   17.50    3.70
   7  12   3   18.90    3.50
   7  12   3   18.10    3.90
  -8 -12  -3   14.10    3.00
  -8 -12  -3   12.60    2.40
  -8 -12  -3   15.50    2.90
   8  12   3    5.10    3.10
   8  12   3    7.40    3.60
   8  12   3   13.40    3.40
   8  12   3   15.00    3.20
  -9 -12  -3   -0.20    2.20
  -9 -12  -3    1.80    2.10
   9  12   3   -4.20    2.90
   9  12   3    0.90    3.30
   9  12   3    1.60    2.80
   9  12   3    2.10    2.40
 -10 -12  -3   23.10    3.20
 -10 -12  -3   19.20    3.40
  10  12   3   25.40    4.00
  10  12   3   16.40    3.90
  10  12   3   17.70    4.40
  -2 -13  -3   92.99    6.30
  -2 -13  -3   88.59    6.10
   2  13   3   91.19    6.30
   2  13   3   89.19    6.50
  -3 -13  -3   -1.00    2.20
  -3 -13  -3    0.60    2.20
  -3 -13  -3    1.50    2.40
   3  13   3    3.70    3.20
   3  13   3   -1.10    2.60
   3  13   3   -2.00    2.80
  -4 -13  -3   -3.30    1.90
  -4 -13  -3    2.50    2.20
  -4 -13  -3    0.00    2.10
   4  13   3   -0.60    2.60
   4  13   3   -1.20    2.80
   4  13   3   -1.40    2.80
  -5 -13  -3   92.29    6.10
  -5 -13  -3  102.59    6.40
  -5 -13  -3   77.49    5.90
   5  13   3   92.69    7.00
   5  13   3   86.79    6.20
   5  13   3   84.79    7.30
  -6 -13  -3   17.50    3.10
  -6 -13  -3   15.30    3.40
   6  13   3   14.20    3.60
   6  13   3   12.90    3.30
   6  13   3   14.40    3.70
   6  13   3   11.80    3.60
  -7 -13  -3   14.50    3.10
  -7 -13  -3   16.50    3.30
   7  13   3   24.60    4.20
   7  13   3   23.70    3.90
   7  13   3   13.90    3.80
   7  13   3   11.30    3.50
  -8 -13  -3   34.10    4.40
  -8 -13  -3   44.60    4.30
   8  13   3   25.00    4.70
   8  13   3   39.90    4.80
   8  13   3   30.60    4.60
   5  10  -4   77.99    7.30
   5  10  -4   64.19    6.50
   5  10  -4   76.19    5.90
  -5 -10   4   71.29    5.80
  -5 -10   4   72.39    5.30
   4  10  -4   32.10    4.70
   4  10  -4   33.40    4.20
   4  10  -4   46.40    6.00
  -4 -10   4   36.80    4.10
  -4 -10   4   43.80    4.70
  -4 -10   4   45.40    3.70
   3  10  -4   18.20    3.70
   3  10  -4   22.90    3.60
   3  10  -4   18.00    4.70
  -3 -10   4   20.90    3.20
  -3 -10   4   23.70    3.80
  -3 -10   4   22.20    3.10
   2  10  -4   33.10    4.30
   2  10  -4   21.70    4.90
   2  10  -4   42.10    4.40
  -2 -10   4   45.80    4.00
  -2 -10   4   39.80    4.00
  -2 -10   4   38.90    4.30
   1  10  -4  313.67   13.60
   1  10  -4  302.87   14.60
  -1 -10   4  319.77   13.60
  -1 -10   4  326.97   13.00
  -1 -10   4  330.97   13.40
  -1 -10   4  322.07   13.20
   7   9  -4   89.29    7.90
   7   9  -4   80.09    7.50
   7   9  -4   92.49    6.10
  -7  -9   4   88.89    5.90
  -7  -9   4   85.89    6.30
   6   9  -4   12.50    4.10
   6   9  -4   11.50    4.20
   6   9  -4   23.30    3.40
  -6  -9   4   24.20    3.70
  -6  -9   4   20.10    3.40
   5   9  -4   29.90    4.90
   5   9  -4   28.40    3.50
   5   9  -4   27.10    4.70
  -5  -9   4   29.50    3.80
  -5  -9   4   32.80    3.00
  -5  -9   4   25.40    3.40
   4   9  -4   15.90    4.30
   4   9  -4   16.00    3.70
   4   9  -4   18.50    3.30
  -4  -9   4   20.50    3.10
  -4  -9   4   13.40    2.30
  -4  -9   4   18.50    3.10
   3   9  -4   30.20    4.40
   3   9  -4   34.60    4.00
   3   9  -4   27.20    4.70
  -3  -9   4   35.70    3.40
  -3  -9   4   27.10    3.30
  -3  -9   4   34.50    4.00
   2   9  -4   -0.30    2.60
   2   9  -4   -1.50    2.50
   2   9  -4   -1.70    3.40
  -2  -9   4    1.30    1.80
  -2  -9   4   -0.40    2.00
  -2  -9   4    1.10    1.90
   1   9  -4   61.89    5.40
   1   9  -4   56.99    4.30
   1   9  -4   62.29    6.70
   1   9  -4   57.69    5.40
  -1  -9   4   62.89    4.80
  -1  -9   4   56.39    4.90
  -1  -9   4   59.69    4.40
  -1  -9   4   55.69    4.50
   0   9  -4   28.70    4.70
   0   9  -4   36.10    4.30
   0   9  -4   39.20    3.70
   0  -9   4   34.70    3.70
   0  -9   4   33.00    3.60
   0  -9   4   35.50    3.90
   0  -9   4   31.20    3.50
  -1   9  -4   30.00    4.70
  -1   9  -4   26.40    3.50
  -1   9  -4   23.20    3.80
   1  -9   4   31.70    3.60
   1  -9   4   36.60    4.10
   1  -9   4   41.70    4.00
   1  -9   4   39.00    3.90
  -2   9  -4    1.30    2.90
  -2   9  -4   -1.50    2.70
  -2   9  -4    4.70    2.50
   2  -9   4   -2.30    1.80
   2  -9   4   -0.30    2.00
   2  -9   4    0.70    1.80
   8   8  -4   -2.20    2.90
   8   8  -4   -0.70    3.20
  -8  -8   4    0.90    2.20
  -8  -8   4    4.60    2.60
   7   8  -4   -3.50    2.90
   7   8  -4   -0.10    2.10
   7   8  -4   -2.30    3.20
  -7  -8   4    1.30    2.30
  -7  -8   4    0.70    2.00
   6   8  -4   25.00    4.60
   6   8  -4   22.10    4.20
   6   8  -4   29.60    3.30
  -6  -8   4   27.10    3.40
  -6  -8   4   27.70    3.70
   5   8  -4   78.39    6.80
   5   8  -4   84.79    5.30
   5   8  -4   69.09    6.80
  -5  -8   4   79.19    4.10
  -5  -8   4   77.59    5.20
  -5  -8   4   73.89    5.30
   4   8  -4   18.60    3.90
   4   8  -4   24.20    3.20
   4   8  -4   16.50    3.60
  -4  -8   4   23.60    3.20
  -4  -8   4   23.70    2.50
  -4  -8   4   25.10    3.50
   3   8  -4   19.30    2.50
   3   8  -4   19.50    4.20
   3   8  -4   15.70    3.40
   3   8  -4   18.10    2.90
  -3  -8   4   22.80    3.30
  -3  -8   4   16.30    2.40
  -3  -8   4   21.90    2.90
   2   8  -4    6.80    2.90
   2   8  -4    8.80    2.70
   2   8  -4    8.70    2.20
   2   8  -4    1.80    3.00
  -2  -8   4    8.80    2.10
  -2  -8   4    9.20    2.40
  -2  -8   4   11.00    2.20
  -2  -8   4    9.00    2.10
   1   8  -4    2.80    2.40
   1   8  -4    0.60    2.10
   1   8  -4   -1.50    2.30
   1   8  -4   -0.80    2.90
  -1  -8   4    0.30    1.80
  -1  -8   4   -0.80    1.60
  -1  -8   4    1.30    1.60
  -1  -8   4    2.30    1.80
   0   8  -4   30.60    3.70
   0   8  -4   28.90    3.20
   0   8  -4   22.00    4.30
   0   8  -4   26.90    3.70
   0  -8   4   27.10    3.20
   0  -8   4   28.60    3.10
   0  -8   4   32.20    3.70
   0  -8   4   35.80    3.50
  -1   8  -4   19.10    4.00
  -1   8  -4   21.30    3.30
  -1   8  -4   20.00    3.10
   1  -8   4   19.90    3.20
   1  -8   4   21.40    3.00
   1  -8   4   18.60    2.80
  -2   8  -4  414.36   15.40
  -2   8  -4  406.96   16.70
  -2   8  -4  402.06   16.10
   2  -8   4  416.86   15.90
   2  -8   4  420.26   15.80
   2  -8   4  396.56   16.00
  -3   8  -4    0.30    2.50
  -3   8  -4    3.20    2.40
  -3   8  -4   -0.10    2.70
   3  -8   4    3.50    2.20
   3  -8   4    0.90    1.80
   3  -8   4    3.10    2.20
  -4   8  -4    5.20    3.00
  -4   8  -4    1.60    2.60
  -4   8  -4    6.00    2.90
   4  -8   4    3.90    2.20
   4  -8   4    1.40    2.10
   4  -8   4    3.50    2.10
   9   7  -4  179.68   11.00
   9   7  -4  206.68   10.40
  -9  -7   4  197.38    9.60
  -9  -7   4  206.18   10.10
   8   7  -4   -1.50    2.90
   8   7  -4   -2.70    3.10
  -8  -7   4   -0.10    2.00
  -8  -7   4    0.70    2.40
   7   7  -4  228.18   10.80
   7   7  -4  198.08   10.80
   7   7  -4  213.08    9.00
  -7  -7   4  206.48    9.40
  -7  -7   4  201.68    9.80
   6   7  -4   40.30    5.00
   6   7  -4   43.70    3.80
   6   7  -4   35.10    4.70
  -6  -7   4   41.60    4.30
  -6  -7   4   39.40    3.60
   5   7  -4    5.10    2.10
   5   7  -4    2.60    2.90
   5   7  -4    4.80    2.90
  -5  -7   4    4.50    2.10
  -5  -7   4    3.80    1.20
  -5  -7   4    2.90    1.70
   4   7  -4  368.06   13.40
   4   7  -4  334.77   14.50
   4   7  -4  341.27   14.50
  -4  -7   4  371.66   13.40
  -4  -7   4  304.77   13.40
  -4  -7   4  343.67   12.40
   3   7  -4    0.30    2.60
   3   7  -4    0.30    2.40
   3   7  -4   -0.30    1.90
  -3  -7   4    0.10    1.80
  -3  -7   4    1.00    1.40
  -3  -7   4    1.70    1.50
   2   7  -4   70.29    4.00
   2   7  -4   75.69    5.40
   2   7  -4   67.59    4.90
   2   7  -4   69.39    5.70
  -2  -7   4   71.09    4.20
  -2  -7   4   69.39    4.80
  -2  -7   4   63.39    4.10
   1   7  -4   61.99    5.10
   1   7  -4   65.49    5.50
   1   7  -4   56.19    3.90
   1   7  -4   60.29    4.70
  -1  -7   4   56.39    3.80
  -1  -7   4   71.89    4.70
  -1  -7   4   60.29    4.20
  -1  -7   4   63.19    4.10
   0   7  -4   42.70    4.10
   0   7  -4   49.50    3.70
   0   7  -4   47.40    5.00
   0   7  -4   53.29    4.50
   0  -7   4   56.09    3.80
   0  -7   4   55.69    3.90
   0  -7   4   48.70    4.20
   0  -7   4   53.79    3.80
  -1   7  -4   10.40    2.50
  -1   7  -4   11.90    2.60
  -1   7  -4    7.20    3.00
  -1   7  -4    8.70    2.50
   1  -7   4    9.60    2.10
   1  -7   4   11.10    2.50
   1  -7   4   13.50    2.30
  -2   7  -4   17.00    2.60
  -2   7  -4   17.00    3.00
  -2   7  -4   17.20    3.50
  -2   7  -4   17.00    2.90
   2  -7   4   16.50    2.50
   2  -7   4   17.30    2.80
   2  -7   4   20.90    2.80
  -3   7  -4   76.09    5.00
  -3   7  -4   79.69    5.90
  -3   7  -4   64.29    5.30
   3  -7   4   67.29    5.10
   3  -7   4   77.79    4.90
   3  -7   4   76.99    4.90
  -4   7  -4   18.80    3.30
  -4   7  -4   27.60    3.70
  -4   7  -4   24.10    3.70
   4  -7   4   24.00    3.40
   4  -7   4   21.30    3.10
   4  -7   4   22.80    3.30
  -5   7  -4   18.70    3.30
  -5   7  -4   21.00    3.40
   5  -7   4   22.60    3.40
   5  -7   4   28.10    3.80
   5  -7   4   17.30    3.10
  10   6  -4   -2.20    3.30
 -10  -6   4    3.60    2.40
   9   6  -4    0.40    2.70
   9   6  -4   -3.50    3.10
  -9  -6   4    0.90    2.10
   8   6  -4   17.10    3.60
   8   6  -4   19.10    4.10
  -8  -6   4   20.50    3.10
  -8  -6   4   20.90    3.40
   7   6  -4   70.09    5.70
   7   6  -4   70.39    4.20
   7   6  -4   68.19    6.20
  -7  -6   4   63.19    5.10
  -7  -6   4   67.69    4.80
   6   6  -4   -1.80    1.40
   6   6  -4    2.30    2.30
   6   6  -4    0.40    2.70
  -6  -6   4   -4.50    1.60
  -6  -6   4   -1.30    1.70
   5   6  -4  136.39    6.30
   5   6  -4  135.29    7.90
   5   6  -4  136.99    7.50
  -5  -6   4  137.19    7.00
  -5  -6   4  136.39    6.40
  -5  -6   4  137.19    5.20
   4   6  -4  151.78    6.60
   4   6  -4  140.09    7.60
   4   6  -4  150.28    8.10
  -4  -6   4  150.88    6.70
  -4  -6   4  138.69    7.00
  -4  -6   4  144.79    5.80
   3   6  -4   15.40    3.20
   3   6  -4   15.20    3.00
   3   6  -4   16.30    2.30
  -3  -6   4   15.80    2.60
  -3  -6   4   14.80    2.10
  -3  -6   4   18.00    2.00
   2   6  -4  259.57   10.10
   2   6  -4  252.17   11.00
   2   6  -4  271.17   11.10
  -2  -6   4  245.48    9.50
  -2  -6   4  216.08   10.00
  -2  -6   4  254.67    9.80
   1   6  -4   82.79    5.70
   1   6  -4   81.49    5.40
   1   6  -4   84.69    4.90
  -1  -6   4   93.69    4.80
  -1  -6   4   79.99    5.00
  -1  -6   4   90.19    4.60
  -1  -6   4   88.09    4.60
   0   6  -4   12.30    2.20
   0   6  -4   10.90    2.80
   0   6  -4   11.00    2.30
   0   6  -4   11.10    2.50
   0  -6   4   10.70    1.90
   0  -6   4    8.10    2.20
   0  -6   4    8.80    1.80
   0  -6   4    9.00    1.80
  -1   6  -4  165.18    8.50
  -1   6  -4  171.18    7.80
  -1   6  -4  167.28    7.30
  -1   6  -4  149.09    7.50
   1  -6   4  168.68    5.90
   1  -6   4  164.38    7.70
   1  -6   4  177.98    7.40
   1  -6   4  153.58    7.10
  -2   6  -4   44.60    3.90
  -2   6  -4   50.79    4.90
  -2   6  -4   48.40    3.80
   2  -6   4   45.50    2.50
   2  -6   4   46.70    3.60
   2  -6   4   36.20    3.30
   2  -6   4   44.70    3.80
  -3   6  -4   11.30    2.60
  -3   6  -4   11.00    3.00
  -3   6  -4    6.50    2.30
   3  -6   4    7.10    2.00
   3  -6   4    9.50    2.20
   3  -6   4   11.30    2.20
  -4   6  -4   11.90    2.60
  -4   6  -4    5.60    2.50
  -4   6  -4    8.00    2.60
   4  -6   4    7.80    2.30
   4  -6   4    8.10    2.10
   4  -6   4    8.40    2.40
  -5   6  -4    2.90    2.20
  -5   6  -4    2.70    2.40
  -5   6  -4    7.30    2.60
   5  -6   4    1.30    1.90
   5  -6   4    7.90    2.40
   5  -6   4    1.70    2.10
  -6   6  -4    3.60    2.50
  -6   6  -4    1.90    2.30
   6  -6   4    3.50    2.10
   6  -6   4   -0.70    2.00
   6  -6   4   -0.80    2.40
  10   5  -4   -0.80    3.10
 -10  -5   4    1.90    2.00
 -10  -5   4    0.20    2.30
   9   5  -4    1.10    3.00
  -9  -5   4    2.30    1.70
  -9  -5   4    0.70    2.20
   8   5  -4    4.90    2.40
   8   5  -4   -1.00    2.70
  -8  -5   4    0.60    1.80
  -8  -5   4    3.50    1.50
  -8  -5   4    2.00    2.40
   7   5  -4   13.90    2.90
   7   5  -4   18.60    3.70
   7   5  -4   19.30    2.60
  -7  -5   4   23.80    3.10
  -7  -5   4   21.70    2.10
  -7  -5   4   20.60    3.20
   6   5  -4   39.90    3.10
   6   5  -4   54.49    5.20
   6   5  -4   47.00    4.20
  -6  -5   4   43.70    3.60
  -6  -5   4   40.60    4.00
  -6  -5   4   46.10    2.60
   5   5  -4   -1.00    2.20
   5   5  -4    0.00    1.30
   5   5  -4    1.10    2.10
  -5  -5   4    1.20    1.60
  -5  -5   4   -0.10    0.70
  -5  -5   4   -3.30    1.60
   4   5  -4   99.59    6.20
   4   5  -4   98.79    6.10
   4   5  -4  103.89    4.90
  -4  -5   4   93.69    4.90
  -4  -5   4   95.89    5.30
  -4  -5   4   99.29    4.00
   3   5  -4   75.49    5.30
   3   5  -4   75.79    4.20
   3   5  -4   73.49    5.00
  -3  -5   4   68.29    3.30
  -3  -5   4   76.99    3.50
  -3  -5   4   66.19    4.30
  -3  -5   4   74.69    4.00
   2   5  -4   58.89    4.70
   2   5  -4   64.09    3.80
   2   5  -4   65.39    4.70
  -2  -5   4   62.59    3.70
  -2  -5   4   62.19    4.20
  -2  -5   4   69.49    3.50
   1   5  -4  935.71   32.70
   1   5  -4 1005.40   32.10
  -1  -5   4  962.00   31.70
  -1  -5   4  872.31   32.10
  -1  -5   4  980.70   31.70
  -1  -5   4  954.90   31.80
   0   5  -4  443.26   15.60
   0   5  -4  433.76   16.20
   0  -5   4  424.36   15.60
   0  -5   4  449.46   15.10
   0  -5   4  388.06   15.10
   0  -5   4  429.26   15.20
  -1   5  -4  157.38    7.30
  -1   5  -4  165.18    7.80
   1  -5   4  163.38    6.90
   1  -5   4  160.78    6.70
   1  -5   4  164.28    6.90
   1  -5   4  155.08    7.20
   1  -5   4  161.18    5.70
   1  -5   4  166.58    5.80
  -2   5  -4  325.57   12.80
  -2   5  -4  356.06   12.60
  -2   5  -4  379.86   13.60
   2  -5   4  310.57   12.00
   2  -5   4  340.37   13.00
   2  -5   4  333.27   12.70
   2  -5   4  337.87   12.60
  -3   5  -4    2.10    2.00
  -3   5  -4    0.40    2.10
  -3   5  -4    0.50    2.10
  -3   5  -4    5.40    1.20
   3  -5   4    3.60    1.50
   3  -5   4    5.30    2.10
   3  -5   4    3.60    1.60
   3  -5   4    3.70    1.20
  -4   5  -4   22.80    2.10
  -4   5  -4   21.50    3.00
  -4   5  -4   26.00    3.20
  -4   5  -4   22.50    3.10
   4  -5   4   23.80    2.80
   4  -5   4   21.70    2.70
   4  -5   4   24.80    3.10
  -5   5  -4   54.19    4.20
  -5   5  -4   52.49    4.20
  -5   5  -4   54.99    3.50
  -5   5  -4   43.60    4.20
   5  -5   4   62.89    4.20
   5  -5   4   48.10    4.30
  -6   5  -4   70.79    4.80
  -6   5  -4   72.69    4.90
  -6   5  -4   68.99    5.20
   6  -5   4   72.59    5.00
   6  -5   4   66.69    5.00
  -7   5  -4    0.80    2.40
  -7   5  -4    2.20    2.40
   7  -5   4   -1.20    2.00
   7  -5   4    1.20    1.80
  -8   5  -4   15.40    3.20
  10   4  -4   97.19    7.30
 -10  -4   4   90.49    6.10
 -10  -4   4   99.09    5.60
   9   4  -4  226.48   11.70
  -9  -4   4  265.87   11.00
  -9  -4   4  241.48   10.00
   8   4  -4    4.50    2.80
   8   4  -4    2.40    1.90
  -8  -4   4    2.50    2.00
  -8  -4   4    2.50    1.60
   7   4  -4   47.00    4.00
   7   4  -4   40.70    4.60
  -7  -4   4   39.70    3.80
  -7  -4   4   44.70    3.00
  -7  -4   4   38.60    3.70
   6   4  -4    3.90    2.10
   6   4  -4    6.50    2.60
   6   4  -4    6.20    1.40
  -6  -4   4    7.30    1.40
  -6  -4   4    5.40    1.90
  -6  -4   4    3.50    1.70
   5   4  -4    0.90    1.20
   5   4  -4    2.60    2.30
   5   4  -4    1.00    1.80
  -5  -4   4    2.20    1.00
  -5  -4   4    2.70    1.80
  -5  -4   4    1.60    1.50
   4   4  -4    5.00    2.00
   4   4  -4    6.30    1.40
   4   4  -4    5.40    0.70
   4   4  -4    2.30    2.10
  -4  -4   4    5.20    1.50
  -4  -4   4    5.10    0.50
  -4  -4   4    5.80    0.60
  -4  -4   4    5.50    0.90
  -4  -4   4    5.70    1.90
   3   4  -4   28.70    3.30
   3   4  -4   22.70    2.20
   3   4  -4   24.50    3.00
  -3  -4   4   27.70    2.40
  -3  -4   4   29.90    2.80
  -3  -4   4   30.80    1.80
  -3  -4   4   25.70    1.60
   2   4  -4  170.08    6.60
   2   4  -4  149.69    7.20
  -2  -4   4  158.18    6.90
  -2  -4   4  160.68    6.40
  -2  -4   4  170.98    6.10
  -2  -4   4  139.49    5.90
   1   4  -4  191.48    7.60
   1   4  -4  190.48    8.30
  -1  -4   4  177.68    7.80
  -1  -4   4  197.68    7.90
  -1  -4   4  195.98    7.30
  -1  -4   4  201.88    7.40
  -1  -4   4  183.08    7.20
   0   4  -4    6.30    1.90
   0   4  -4    7.10    1.70
   0  -4   4    7.40    1.70
   0  -4   4    6.50    1.30
   0  -4   4    6.60    1.30
   0  -4   4    7.10    1.30
   0  -4   4    7.40    1.60
  -1   4  -4  890.61   29.40
  -1   4  -4  845.72   28.70
   1  -4   4  862.61   28.50
   1  -4   4  822.62   28.90
   1  -4   4  866.11   28.70
   1  -4   4  821.52   27.50
   1  -4   4  880.71   28.60
  -2   4  -4  754.12   26.50
  -2   4  -4  897.01   27.30
  -2   4  -4  752.82   25.30
   2  -4   4  781.32   26.10
   2  -4   4  777.02   26.80
   2  -4   4  794.72   25.50
   2  -4   4  761.92   26.50
   2  -4   4  741.43   26.20
  -3   4  -4  120.69    5.70
  -3   4  -4  131.69    6.40
  -3   4  -4  121.79    4.90
  -3   4  -4  115.99    5.90
   3  -4   4  126.29    5.90
   3  -4   4  122.99    6.20
   3  -4   4  129.49    5.70
   3  -4   4  133.89    5.30
  -4   4  -4  152.08    7.30
  -4   4  -4  161.58    7.30
  -4   4  -4  168.88    7.20
  -4   4  -4  159.18    6.30
   4  -4   4  152.28    7.00
   4  -4   4  160.18    6.30
   4  -4   4  161.48    7.10
  -5   4  -4    9.70    2.10
  -5   4  -4   12.50    1.90
  -5   4  -4   10.20    2.40
  -5   4  -4   12.90    2.50
   5  -4   4   10.60    2.20
   5  -4   4    9.30    2.00
  -6   4  -4   25.20    3.30
  -6   4  -4   25.40    3.20
  -6   4  -4   28.70    2.90
  -6   4  -4   25.50    2.70
  -6   4  -4   31.90    3.90
   6  -4   4   26.80    3.10
   6  -4   4   28.10    3.30
  -7   4  -4  175.28    7.80
  -7   4  -4  179.68    8.30
  -7   4  -4  167.98    8.00
   7  -4   4  186.28    8.40
   7  -4   4  169.18    8.30
  -8   4  -4    4.60    2.30
  -8   4  -4    2.80    2.40
  -8   4  -4   -1.30    2.10
   8  -4   4   -0.80    2.10
   8  -4   4    0.80    2.10
  10   3  -4   23.00    4.00
 -10  -3   4   34.20    3.80
 -10  -3   4   35.60    4.10
   9   3  -4    4.50    2.80
  -9  -3   4    7.20    2.20
  -9  -3   4    6.70    2.60
   8   3  -4  152.58    8.60
   8   3  -4  158.88    7.20
  -8  -3   4  150.88    7.40
  -8  -3   4  155.68    7.00
   7   3  -4   92.69    5.20
   7   3  -4   84.49    6.00
  -7  -3   4   86.99    4.60
  -7  -3   4   92.39    5.10
  -7  -3   4   89.09    5.30
   6   3  -4  130.59    7.50
   6   3  -4  145.59    6.80
   6   3  -4  145.69    5.50
  -6  -3   4  136.09    6.70
  -6  -3   4  142.29    6.50
  -6  -3   4  138.59    5.90
   5   3  -4   -1.30    1.80
   5   3  -4    0.70    1.00
   5   3  -4    0.60    1.00
   5   3  -4   -1.20    1.60
  -5  -3   4   -0.70    1.30
  -5  -3   4   -0.20    1.50
  -5  -3   4    1.30    1.00
   4   3  -4  126.19    5.20
   4   3  -4  136.89    4.80
   4   3  -4  131.89    5.00
   4   3  -4  135.09    6.90
   4   3  -4  133.69    6.30
  -4  -3   4  134.09    5.10
  -4  -3   4  126.19    5.70
  -4  -3   4  121.19    6.00
   3   3  -4    1.10    0.60
   3   3  -4    0.70    0.40
   3   3  -4    1.20    0.50
   3   3  -4    1.50    1.60
   3   3  -4    0.00    1.50
   3   3  -4    1.00    1.00
  -3  -3   4    1.40    0.60
  -3  -3   4   -0.90    1.20
  -3  -3   4    1.30    0.40
  -3  -3   4    0.70    0.50
  -3  -3   4    2.70    1.20
   2   3  -4   31.40    3.00
   2   3  -4   29.60    2.30
  -2  -3   4   28.00    2.50
  -2  -3   4   31.80    2.20
  -2  -3   4   33.30    1.90
  -2  -3   4   28.10    1.70
  -2  -3   4   28.20    2.70
   1   3  -4    0.80    1.10
   1   3  -4    0.60    1.50
  -1  -3   4    2.70    0.90
  -1  -3   4    2.00    0.90
  -1  -3   4    1.00    1.20
  -1  -3   4    2.20    1.40
  -1  -3   4    2.10    0.80
   0   3  -4    2.00    1.00
   0   3  -4    3.40    1.60
   0   3  -4    2.10    1.20
   0  -3   4    4.30    1.00
   0  -3   4    2.00    1.30
   0  -3   4    2.10    0.90
   0  -3   4    1.40    1.20
   0  -3   4    2.40    0.90
  -1   3  -4   45.90    3.60
  -1   3  -4   47.80    3.20
  -1   3  -4   46.90    1.90
   1  -3   4   58.69    3.30
   1  -3   4   45.30    2.70
   1  -3   4   53.89    3.10
   1  -3   4   50.99    2.90
   1  -3   4   55.79    2.10
  -2   3  -4   55.09    3.80
  -2   3  -4   58.79    3.60
  -2   3  -4   56.09    2.50
   2  -3   4   60.49    3.10
   2  -3   4   59.69    2.60
   2  -3   4   54.09    3.50
   2  -3   4   62.39    3.30
   2  -3   4   57.99    3.30
  -3   3  -4    3.50    1.60
  -3   3  -4    3.30    1.00
  -3   3  -4    0.40    1.20
  -3   3  -4    2.00    1.50
   3  -3   4    0.80    1.30
   3  -3   4    4.10    1.20
   3  -3   4    1.90    1.20
  -4   3  -4   31.70    3.10
  -4   3  -4   33.90    3.00
  -4   3  -4   27.80    2.70
  -4   3  -4   32.60    2.40
   4  -3   4   32.00    2.80
   4  -3   4   32.00    2.70
   4  -3   4   31.30    2.30
  -5   3  -4  637.44   22.00
  -5   3  -4  612.34   22.00
  -5   3  -4  666.23   21.90
  -5   3  -4  641.24   21.50
   5  -3   4  611.74   21.20
   5  -3   4  645.74   21.90
   5  -3   4  617.84   22.00
  -6   3  -4   69.39    3.80
  -6   3  -4   70.19    4.50
  -6   3  -4   62.49    3.30
  -6   3  -4   62.19    4.00
  -6   3  -4   64.79    4.60
   6  -3   4   67.89    4.30
   6  -3   4   69.79    4.30
  -7   3  -4    5.60    2.20
  -7   3  -4    8.20    2.20
  -7   3  -4    6.80    2.30
   7  -3   4    5.50    2.10
   7  -3   4    4.20    2.00
  -8   3  -4  157.08    7.60
  -8   3  -4  155.28    7.60
  -8   3  -4  164.68    7.70
   8  -3   4  162.78    7.90
   8  -3   4  164.48    8.00
  -9   3  -4   22.80    3.10
  -9   3  -4   23.00    3.50
  -9   3  -4   23.50    3.50
   9  -3   4   24.20    3.40
   9  -3   4   30.20    3.50
  10   2  -4   10.30    3.10
 -10  -2   4    9.10    2.80
 -10  -2   4    8.50    2.90
   9   2  -4   49.00    5.10
  -9  -2   4   39.60    3.90
  -9  -2   4   48.30    4.30
   8   2  -4    1.40    1.50
   8   2  -4    0.00    2.00
  -8  -2   4    2.30    1.90
  -8  -2   4    1.70    1.80
   7   2  -4   51.49    4.60
   7   2  -4   50.99    3.60
  -7  -2   4   48.80    4.10
  -7  -2   4   55.39    3.80
   6   2  -4    0.80    0.80
   6   2  -4    0.30    2.00
   6   2  -4    5.60    1.70
  -6  -2   4    0.40    1.40
  -6  -2   4    4.30    1.70
  -6  -2   4    1.50    1.70
   5   2  -4  109.59    5.40
   5   2  -4  110.59    4.20
   5   2  -4  102.39    6.00
   5   2  -4  110.89    4.40
  -5  -2   4  109.99    5.10
  -5  -2   4  109.19    5.40
  -5  -2   4  106.29    4.70
   4   2  -4  576.24   21.10
   4   2  -4  591.34   19.20
   4   2  -4  580.24   19.10
   4   2  -4  594.14   20.40
  -4  -2   4  578.34   19.50
  -4  -2   4  597.84   20.00
  -4  -2   4  566.64   20.20
   3   2  -4    8.60    1.00
   3   2  -4    5.80    1.80
   3   2  -4    8.70    1.00
   3   2  -4    7.90    1.00
  -3  -2   4    6.90    1.40
  -3  -2   4    9.50    1.70
  -3  -2   4    8.40    1.10
   2   2  -4  107.99    4.30
   2   2  -4  100.89    4.30
   2   2  -4  111.09    4.40
   2   2  -4  108.99    5.30
   2   2  -4  111.39    3.80
   2   2  -4  111.19    4.00
  -2  -2   4  118.19    3.90
  -2  -2   4  113.19    5.20
  -2  -2   4  102.99    4.50
  -2  -2   4  108.49    4.90
   1   2  -4  779.52   26.10
   1   2  -4  833.82   26.20
   1   2  -4  761.92   27.00
   1   2  -4  793.92   25.60
  -1  -2   4  811.92   26.90
  -1  -2   4  792.82   26.70
  -1  -2   4  803.12   26.00
  -1  -2   4  799.42   26.20
  -1  -2   4  819.92   26.00
   0   2  -4  144.89    5.70
   0   2  -4  144.99    5.50
   0   2  -4  150.48    6.50
   0   2  -4  150.38    4.80
   0   2  -4  145.39    4.80
   0  -2   4  156.98    6.20
   0  -2   4  137.29    5.50
   0  -2   4  148.29    5.40
   0  -2   4  152.68    5.50
   0  -2   4  147.39    5.40
   0  -2   4  142.89    6.00
  -1   2  -4   -0.10    1.00
  -1   2  -4    0.30    1.30
  -1   2  -4    0.30    0.70
  -1   2  -4    0.00    0.40
   1  -2   4    0.40    0.70
   1  -2   4    1.00    1.10
   1  -2   4    0.10    0.90
   1  -2   4   -0.20    1.00
   1  -2   4    0.60    0.40
  -2   2  -4   44.70    2.60
  -2   2  -4   42.00    3.00
  -2   2  -4   41.30    2.80
  -2   2  -4   42.10    2.40
  -2   2  -4   46.20    2.10
   2  -2   4   41.50    2.70
   2  -2   4   42.30    2.60
   2  -2   4   41.90    3.00
   2  -2   4   43.90    2.40
   2  -2   4   47.20    2.10
  -3   2  -4   68.99    3.70
  -3   2  -4   69.89    3.20
  -3   2  -4   65.09    3.40
  -3   2  -4   80.49    4.00
   3  -2   4   74.79    3.20
   3  -2   4   74.19    3.60
   3  -2   4   70.89    3.50
   3  -2   4   68.29    3.60
  -4   2  -4  320.47   11.50
  -4   2  -4  298.57   11.50
  -4   2  -4  321.17   11.10
   4  -2   4  312.07   11.60
   4  -2   4  321.97   11.30
   4  -2   4  317.77   11.20
  -5   2  -4  273.17   10.30
  -5   2  -4  271.47    9.80
  -5   2  -4  275.97   10.20
  -5   2  -4  256.87    9.90
   5  -2   4  271.57   10.10
   5  -2   4  264.07   10.20
   5  -2   4  262.87    9.70
  -6   2  -4   58.59    3.60
  -6   2  -4   62.89    4.10
  -6   2  -4   55.59    3.90
  -6   2  -4   57.79    3.30
   6  -2   4   63.59    4.00
   6  -2   4   59.29    3.30
   6  -2   4   53.59    3.70
  -7   2  -4  394.86   14.90
  -7   2  -4  400.36   14.90
  -7   2  -4  411.66   14.90
   7  -2   4  417.66   14.40
   7  -2   4  403.76   15.10
   7  -2   4  410.16   15.10
  -8   2  -4   35.60    3.50
  -8   2  -4   42.70    3.90
  -8   2  -4   42.60    3.80
   8  -2   4   42.20    4.00
   8  -2   4   39.20    3.70
  -9   2  -4    8.50    2.80
  -9   2  -4    7.70    2.30
  -9   2  -4   10.80    2.60
   9  -2   4    7.40    2.40
   9  -2   4    8.00    2.40
 -10   2  -4  115.99    6.20
 -10   2  -4  125.09    6.60
  10  -2   4  109.29    6.90
  10  -2   4  120.59    6.60
  10   1  -4   26.10    3.60
  10   1  -4   31.10    5.90
 -10  -1   4   26.10    3.70
   9   1  -4    2.20    2.30
  -9  -1   4    0.90    2.40
  -9  -1   4    0.80    2.30
  -9  -1   4   -1.10    1.50
   8   1  -4    8.20    2.50
   8   1  -4    8.90    2.30
  -8  -1   4    9.70    2.50
  -8  -1   4    9.60    2.50
  -8  -1   4   13.40    2.00
   7   1  -4   84.79    5.60
   7   1  -4   85.89    4.70
  -7  -1   4   95.09    5.20
  -7  -1   4   98.69    5.00
  -7  -1   4   95.89    4.40
   6   1  -4   40.70    2.00
   6   1  -4   39.60    3.00
   6   1  -4   42.40    3.80
  -6  -1   4   40.10    3.30
  -6  -1   4   42.80    2.70
  -6  -1   4   43.70    3.10
   5   1  -4  183.08    6.20
   5   1  -4  182.68    6.20
   5   1  -4  175.98    8.10
   5   1  -4  186.08    7.60
  -5  -1   4  177.38    7.10
  -5  -1   4  171.28    7.40
  -5  -1   4  186.68    7.60
   4   1  -4  780.72   25.20
   4   1  -4  816.82   26.60
   4   1  -4  778.32   25.20
   4   1  -4  778.22   27.20
  -4  -1   4  760.62   26.20
  -4  -1   4  782.22   26.00
  -4  -1   4  785.52   26.50
   3   1  -4   -0.90    1.20
   3   1  -4   -0.10    0.70
   3   1  -4    0.40    0.50
   3   1  -4    0.00    0.50
  -3  -1   4    1.40    1.10
  -3  -1   4   -0.70    1.00
  -3  -1   4    0.50    0.80
  -3  -1   4    0.20    1.40
   2   1  -4 1585.54   50.39
   2   1  -4 1476.45   50.39
   2   1  -4 1577.44   50.69
   2   1  -4 1523.15   50.69
   2   1  -4 1617.34   51.59
   2   1  -4 1581.64   50.49
   2   1  -4 1650.03   50.49
  -2  -1   4 1575.94   50.79
  -2  -1   4 1603.94   51.19
  -2  -1   4 1566.14   51.49
   1   1  -4  516.25   17.00
   1   1  -4  532.15   16.90
   1   1  -4  475.05   17.90
   1   1  -4  526.65   16.70
   1   1  -4  514.25   17.10
   1   1  -4  535.35   17.00
   1   1  -4  511.15   17.00
  -1  -1   4  545.05   17.90
  -1  -1   4  487.85   16.70
  -1  -1   4  517.45   17.10
  -1  -1   4  516.25   17.60
  -1  -1   4  534.75   16.80
   0   1  -4  151.68    5.60
   0   1  -4  168.08    6.60
   0   1  -4  169.88    5.90
   0   1  -4  156.78    5.80
   0   1  -4  150.28    5.30
   0  -1   4  164.08    6.40
   0  -1   4  161.68    5.70
   0  -1   4  158.98    5.30
   0  -1   4  148.09    5.60
   0  -1   4  162.78    5.60
   0  -1   4  154.68    6.20
  -1   1  -4  740.73   24.70
  -1   1  -4  757.52   24.50
  -1   1  -4  713.13   24.10
  -1   1  -4  749.82   25.00
   1  -1   4  762.92   24.80
   1  -1   4  738.03   24.40
   1  -1   4  759.92   24.00
   1  -1   4  753.02   24.10
   1  -1   4  719.53   24.70
   1  -1   4  751.52   24.00
   1  -1   4  739.13   24.40
  -2   1  -4    2.00    0.70
  -2   1  -4    1.90    1.00
  -2   1  -4    2.50    1.30
  -2   1  -4    0.80    0.70
  -2   1  -4    1.90    1.10
   2  -1   4    1.90    0.60
   2  -1   4    1.10    1.00
   2  -1   4    2.10    1.20
   2  -1   4    0.00    0.80
   2  -1   4    2.20    0.80
  -3   1  -4   99.99    4.50
  -3   1  -4  107.19    4.20
  -3   1  -4  103.99    4.20
  -3   1  -4  112.69    4.70
   3  -1   4   94.19    4.40
   3  -1   4  107.19    4.60
   3  -1   4  109.09    4.10
   3  -1   4  101.29    4.20
  -4   1  -4   70.89    3.40
  -4   1  -4   58.29    3.40
   4  -1   4   63.49    3.40
   4  -1   4   63.49    3.20
   4  -1   4   64.99    3.30
   4  -1   4   61.89    2.90
  -5   1  -4    5.10    1.50
  -5   1  -4    6.90    0.90
  -5   1  -4    7.20    1.30
  -5   1  -4    6.70    1.60
   5  -1   4    6.10    1.50
   5  -1   4    7.00    1.50
   5  -1   4    6.50    1.40
  -6   1  -4    2.80    1.70
  -6   1  -4    2.30    0.60
  -6   1  -4    2.30    1.70
  -6   1  -4    0.60    1.00
  -6   1  -4    0.70    1.50
   6  -1   4    0.50    1.30
   6  -1   4    4.30    1.50
   6  -1   4    4.20    1.40
  -7   1  -4    0.20    0.70
  -7   1  -4   -0.10    1.90
  -7   1  -4   -1.20    1.60
  -7   1  -4   -3.70    1.70
   7  -1   4   -0.40    1.30
   7  -1   4   -0.40    1.30
   7  -1   4    0.30    1.50
  -8   1  -4   -1.70    1.80
  -8   1  -4    0.30    1.70
  -8   1  -4    3.00    2.00
   8  -1   4   -0.80    1.40
   8  -1   4    0.20    1.60
   8  -1   4   -0.30    1.70
  -9   1  -4   25.10    3.10
  -9   1  -4   28.20    3.50
  -9   1  -4   20.50    2.80
   9  -1   4   25.20    3.10
   9  -1   4   24.30    3.20
 -10   1  -4   25.00    3.20
 -10   1  -4   18.10    3.20
 -10   1  -4   22.20    2.80
  10  -1   4   19.50    2.90
  10  -1   4   22.90    3.40
  10   0  -4   46.50    5.10
 -10   0   4   47.90    3.80
 -10   0   4   51.99    4.90
   9   0  -4   10.70    2.50
   9   0  -4   15.90    3.10
  -9   0   4    8.50    2.80
  -9   0   4   13.20    2.20
   8   0  -4   12.70    2.60
   8   0  -4   12.20    2.50
  -8   0   4   15.30    2.20
  -8   0   4   10.00    2.50
   7   0  -4   12.70    2.30
   7   0  -4   16.40    2.10
  -7   0   4   14.30    2.50
  -7   0   4   17.20    2.50
  -7   0   4   17.30    2.10
   6   0  -4   16.60    2.10
   6   0  -4   20.10    2.60
   6   0  -4   15.80    1.20
  -6   0   4   14.00    2.20
  -6   0   4   16.10    2.30
  -6   0   4   15.80    1.90
   5   0  -4   30.50    2.70
   5   0  -4   27.50    3.10
   5   0  -4   31.40    1.40
  -5   0   4   30.50    2.60
  -5   0   4   30.50    2.90
  -5   0   4   31.90    2.40
   4   0  -4    6.90    1.80
   4   0  -4    5.90    1.40
  -4   0   4    7.90    1.50
  -4   0   4    8.60    1.50
  -4   0   4    8.00    1.60
  -4   0   4   11.30    1.40
   3   0  -4   12.90    1.90
  -3   0   4   14.90    1.70
  -3   0   4   12.10    1.60
  -3   0   4   12.70    2.00
  -3   0   4   17.00    1.70
   2   0  -4  174.58    7.00
   2   0  -4  174.88    6.30
   2   0  -4  170.68    5.70
   2   0  -4  177.18    6.30
   2   0  -4  161.38    5.70
   2   0  -4  185.88    6.40
  -2   0   4  175.08    6.40
  -2   0   4  169.68    6.70
  -2   0   4  171.58    7.00
   1   0  -4  234.58    7.60
   1   0  -4  222.58    7.80
   1   0  -4  232.38    8.70
   1   0  -4  234.08    7.60
   1   0  -4  217.88    7.70
   1   0  -4  225.38    7.70
   1   0  -4  226.48    7.80
  -1   0   4  211.88    8.10
  -1   0   4  225.78    7.80
  -1   0   4  215.08    8.40
   0   0  -4    0.50    1.00
   0   0  -4   -1.00    1.20
   0   0  -4   -0.60    0.40
   0   0  -4   -0.10    0.60
   0   0  -4    0.70    0.80
   0   0  -4    0.30    0.90
   0   0  -4   -0.20    1.00
   0   0  -4    0.20    0.60
   0   0  -4    0.60    0.50
   0   0   4    0.10    0.60
   0   0   4   -0.60    0.60
   0   0   4   -0.70    1.10
   0   0   4    0.00    0.90
   0   0   4   -0.10    0.50
   0   0   4   -0.50    0.60
  -1   0  -4  179.18    6.00
  -1   0  -4  196.38    6.90
  -1   0  -4  176.18    6.40
  -1   0  -4  179.88    6.50
  -1   0  -4  162.38    6.20
  -1   0  -4  178.28    6.60
  -1   0  -4  173.18    7.00
   1   0   4  186.48    6.90
   1   0   4  176.38    6.70
   1   0   4  195.68    6.20
   1   0   4  172.78    5.90
   1   0   4  183.28    6.40
  -2   0  -4  526.45   17.80
  -2   0  -4  565.04   18.10
  -2   0  -4  543.75   18.30
  -2   0  -4  518.25   17.80
  -2   0  -4  548.25   17.60
   2   0   4  544.15   17.60
   2   0   4  505.05   17.80
   2   0   4  522.55   18.10
   2   0   4  537.15   17.80
   2   0   4  557.94   17.40
  -3   0  -4   83.59    3.40
  -3   0  -4   79.89    3.80
  -3   0  -4   85.79    3.50
  -3   0  -4   84.29    3.90
   3   0   4   85.09    3.50
   3   0   4   82.29    3.90
   3   0   4   78.49    3.10
   3   0   4   82.59    3.70
   3   0   4   81.99    3.30
  -4   0  -4  266.17   10.00
  -4   0  -4  296.67    9.80
  -4   0  -4  274.17    9.40
  -4   0  -4  291.17    9.90
   4   0   4  251.47    9.90
   4   0   4  301.67   10.10
   4   0   4  271.37    9.70
   4   0   4  270.37    9.50
  -5   0  -4  730.83   23.90
  -5   0  -4  730.03   23.50
  -5   0  -4  709.93   23.10
  -5   0  -4  699.93   24.00
   5   0   4  696.23   24.00
   5   0   4  714.63   23.90
   5   0   4  690.63   23.50
   5   0   4  749.23   24.00
  -6   0  -4   89.39    4.50
  -6   0  -4  101.59    4.80
  -6   0  -4   87.69    4.50
  -6   0  -4  100.89    3.90
  -6   0  -4   92.89    3.20
   6   0   4   92.39    4.60
   6   0   4  102.59    4.70
   6   0   4   99.89    4.70
  -7   0  -4  139.49    6.50
  -7   0  -4  152.78    6.60
  -7   0  -4  165.68    6.90
   7   0   4  150.38    6.70
   7   0   4  143.79    6.60
   7   0   4  159.48    6.60
  -8   0  -4   57.89    3.90
  -8   0  -4   63.29    4.00
  -8   0  -4   59.39    4.10
   8   0   4   57.39    3.90
   8   0   4   60.09    4.10
   8   0   4   63.59    4.20
  -9   0  -4   12.50    2.70
  -9   0  -4   11.90    2.20
  -9   0  -4   15.30    2.70
   9   0   4   17.70    2.60
   9   0   4   17.40    2.60
   9   0   4   12.60    2.40
 -10   0  -4    8.90    2.20
 -10   0  -4    8.20    2.90
 -10   0  -4   14.10    2.60
  10   0   4   10.80    2.40
  10   0   4   10.40    2.70
 -11   0  -4    6.30    2.40
 -11   0  -4    1.20    2.60
  11   0   4    7.80    2.40
  11   0   4    2.90    2.40
  10  -1  -4  134.39    7.90
 -10   1   4  127.79    6.50
 -10   1   4  122.09    7.30
   9  -1  -4   30.40    3.80
  -9   1   4   27.90    3.90
  -9   1   4   29.90    3.10
   8  -1  -4    2.20    2.10
   8  -1  -4   -1.00    1.50
  -8   1   4   -0.20    1.40
  -8   1   4    1.90    2.30
   7  -1  -4   27.20    3.20
   7  -1  -4   25.40    2.60
   7  -1  -4   23.10    2.70
  -7   1   4   22.80    2.50
  -7   1   4   20.80    2.90
   6  -1  -4   57.29    4.00
   6  -1  -4   56.09    3.80
   6  -1  -4   58.09    3.60
   6  -1  -4   57.59    2.50
  -6   1   4   54.59    3.80
  -6   1   4   60.99    3.50
   5  -1  -4    3.60    0.60
   5  -1  -4    3.50    0.50
   5  -1  -4    3.10    1.50
  -5   1   4    5.10    1.40
  -5   1   4    0.50    1.30
  -5   1   4    3.40    1.60
   4  -1  -4   30.40    2.70
  -4   1   4   24.70    2.10
  -4   1   4   23.80    2.30
  -4   1   4   28.50    2.40
  -4   1   4   28.80    2.40
  -3   1   4  109.09    4.70
  -3   1   4  107.39    4.50
  -3   1   4  103.79    5.00
  -3   1   4  106.19    4.70
  -3   1   4  115.99    4.70
  -3   1   4  110.89    4.80
   2  -1  -4  283.97   10.20
   2  -1  -4  296.97   10.30
   2  -1  -4  304.37   10.30
   2  -1  -4  289.37   10.10
  -2   1   4  294.07   10.30
  -2   1   4  294.17   10.20
  -2   1   4  288.27   10.10
  -2   1   4  289.77   10.60
  -2   1   4  288.27   10.40
   1  -1  -4  198.18    6.20
   1  -1  -4  188.08    6.70
   1  -1  -4  181.38    6.20
   1  -1  -4  185.78    6.70
   1  -1  -4  190.08    6.80
   1  -1  -4  185.58    7.10
   1  -1  -4  192.78    6.60
   1  -1  -4  189.98    7.00
   1  -1  -4  184.38    6.70
  -1   1   4  190.28    7.30
  -1   1   4  193.08    7.10
  -1   1   4  173.88    6.80
  -1   1   4  189.38    6.60
   0  -1  -4    1.00    0.90
   0  -1  -4    0.10    0.70
   0  -1  -4    0.50    0.50
   0  -1  -4    0.90    0.60
   0  -1  -4    0.60    0.60
   0  -1  -4    1.10    0.60
   0  -1  -4    0.80    1.00
   0   1   4    0.10    0.80
   0   1   4    0.80    0.40
   0   1   4   -0.50    0.70
   0   1   4    1.90    1.10
   0   1   4    0.10    0.50
   0   1   4    0.60    0.40
   0   1   4    0.20    1.10
  -1  -1  -4  159.98    5.30
  -1  -1  -4  167.08    5.80
  -1  -1  -4  168.68    5.90
  -1  -1  -4  165.18    6.20
  -1  -1  -4  163.98    6.10
  -1  -1  -4  167.48    5.80
   1   1   4  157.68    5.70
   1   1   4  158.98    6.10
   1   1   4  160.58    5.80
   1   1   4  160.38    6.00
   1   1   4  177.88    5.90
   1   1   4  171.78    6.40
  -2  -1  -4 1072.79   34.30
  -2  -1  -4 1078.49   33.90
  -2  -1  -4 1038.70   33.90
  -2  -1  -4 1024.40   34.00
  -2  -1  -4 1079.79   34.30
  -2  -1  -4 1045.50   33.90
   2   1   4 1003.40   33.40
   2   1   4 1059.59   34.30
   2   1   4 1066.49   34.00
   2   1   4 1063.79   34.00
   2   1   4 1009.40   33.90
   2   1   4 1046.50   33.80
  -3  -1  -4   26.30    2.10
  -3  -1  -4   30.50    2.00
  -3  -1  -4   27.90    2.20
  -3  -1  -4   28.10    1.70
   3   1   4   28.50    1.60
   3   1   4   30.20    2.00
   3   1   4   34.10    1.90
   3   1   4   33.60    2.40
   3   1   4   30.30    1.30
   3   1   4   27.10    1.90
  -4  -1  -4 1426.16   46.00
  -4  -1  -4 1492.35   46.40
  -4  -1  -4 1414.76   46.60
  -4  -1  -4 1466.65   46.40
   4   1   4 1361.56   46.70
   4   1   4 1438.96   46.00
   4   1   4 1467.25   46.30
   4   1   4 1464.85   46.70
   4   1   4 1391.36   46.50
  -5  -1  -4   56.49    2.60
  -5  -1  -4   56.59    3.00
  -5  -1  -4   52.49    3.00
  -5  -1  -4   53.19    2.10
   5   1   4   58.49    3.20
   5   1   4   54.69    2.90
   5   1   4   53.89    2.50
   5   1   4   55.49    3.00
   5   1   4   52.29    3.20
  -6  -1  -4   18.00    1.30
  -6  -1  -4   20.00    2.10
  -6  -1  -4   14.60    1.90
   6   1   4   16.70    2.00
   6   1   4   16.10    1.80
   6   1   4   16.90    2.10
  -7  -1  -4  870.31   30.00
  -7  -1  -4  884.31   29.90
  -7  -1  -4  918.01   29.90
   7   1   4  915.81   30.10
   7   1   4  889.81   30.20
   7   1   4  898.21   30.00
  -8  -1  -4    1.90    1.60
  -8  -1  -4    1.20    1.70
  -8  -1  -4    2.00    1.60
   8   1   4    1.70    1.50
   8   1   4    0.70    1.50
   8   1   4    1.60    1.50
  -9  -1  -4   17.20    2.70
  -9  -1  -4   17.50    2.40
  -9  -1  -4   18.90    2.60
   9   1   4   15.40    2.50
   9   1   4   18.30    2.50
   9   1   4   17.20    2.50
 -10  -1  -4   19.50    2.40
 -10  -1  -4   17.50    3.20
 -10  -1  -4   15.20    2.50
  10   1   4   16.70    2.60
  10   1   4   18.20    2.90
  10   1   4   17.70    2.50
 -11  -1  -4    1.00    2.00
 -11  -1  -4   -2.00    1.70
 -11  -1  -4   -3.30    2.40
  11   1   4    0.20    1.80
  11   1   4    3.50    2.20
   9  -2  -4   24.10    3.50
  -9   2   4   22.20    3.60
  -9   2   4   24.10    3.10
   8  -2  -4   61.89    5.10
  -8   2   4   57.89    4.00
  -8   2   4   63.29    4.80
   7  -2  -4  176.68    7.50
   7  -2  -4  171.68    7.50
   7  -2  -4  183.08    8.40
  -7   2   4  182.28    7.60
  -7   2   4  199.68    8.40
   6  -2  -4   -2.10    1.00
   6  -2  -4    3.40    1.90
  -6   2   4    1.30    1.60
  -6   2   4    1.40    1.70
  -6   2   4   -1.70    1.20
   5  -2  -4  198.08    7.00
   5  -2  -4  198.38    6.90
   5  -2  -4  211.38    8.50
   5  -2  -4  196.58    8.00
  -5   2   4  203.78    7.90
  -5   2   4  198.78    7.90
  -5   2   4  201.48    8.30
   4  -2  -4  199.38    7.90
   4  -2  -4  191.68    6.50
   4  -2  -4  186.08    6.60
   4  -2  -4  200.28    7.70
  -4   2   4  189.98    7.40
  -4   2   4  197.28    7.80
  -4   2   4  193.88    7.60
   3  -2  -4    1.70    0.40
   3  -2  -4    1.00    1.00
   3  -2  -4    1.20    0.30
  -3   2   4   -0.20    1.10
  -3   2   4    2.10    1.20
  -3   2   4    2.60    1.10
  -3   2   4    2.30    1.30
   2  -2  -4  700.93   22.00
   2  -2  -4  691.43   22.90
   2  -2  -4  687.43   22.00
   2  -2  -4  669.33   23.00
   2  -2  -4  676.93   22.80
  -2   2   4  693.63   22.80
  -2   2   4  706.83   23.10
  -2   2   4  680.83   23.00
   1  -2  -4  371.16   12.00
   1  -2  -4  355.96   12.60
   1  -2  -4  390.16   12.90
   1  -2  -4  372.06   12.50
   1  -2  -4  373.16   12.00
   1  -2  -4  366.46   12.70
   1  -2  -4  380.66   12.80
   1  -2  -4  362.06   12.40
   1  -2  -4  367.56   12.50
  -1   2   4  386.06   12.90
  -1   2   4  354.36   12.50
  -1   2   4  360.16   12.50
  -1   2   4  373.26   12.90
   0  -2  -4  402.76   13.00
   0  -2  -4  391.36   13.10
   0  -2  -4  405.46   13.00
   0  -2  -4  386.76   13.30
   0  -2  -4  405.96   13.60
   0  -2  -4  405.96   13.10
   0  -2  -4  403.56   13.00
   0  -2  -4  403.96   13.40
   0  -2  -4  388.56   13.50
   0   2   4  379.46   13.50
   0   2   4  395.16   12.70
   0   2   4  398.96   13.40
   0   2   4  392.96   12.70
   0   2   4  374.66   13.10
   0   2   4  412.66   13.70
  -1  -2  -4  903.41   28.20
  -1  -2  -4  892.91   28.50
  -1  -2  -4  852.01   28.60
  -1  -2  -4  914.11   28.50
  -1  -2  -4  818.92   28.80
  -1  -2  -4  880.31   28.80
   1   2   4  869.21   28.40
   1   2   4  870.51   28.50
   1   2   4  899.41   29.00
   1   2   4  928.81   28.20
   1   2   4  846.72   28.80
   1   2   4  910.31   28.70
   1   2   4  881.11   28.40
  -2  -2  -4  265.67    9.20
  -2  -2  -4  274.37    9.20
  -2  -2  -4  274.47    8.60
  -2  -2  -4  256.37    9.20
  -2  -2  -4  274.07    9.60
  -2  -2  -4  262.97    9.20
   2   2   4  261.27    9.20
   2   2   4  268.87    9.20
   2   2   4  269.07    9.60
   2   2   4  268.27    8.70
   2   2   4  268.37    9.30
   2   2   4  268.97    9.20
  -3  -2  -4  112.89    4.70
  -3  -2  -4  121.59    4.70
  -3  -2  -4  117.29    4.10
  -3  -2  -4  119.69    4.70
  -3  -2  -4  118.89    4.40
  -3  -2  -4  122.29    5.00
   3   2   4  118.29    4.50
   3   2   4  115.99    4.60
   3   2   4  121.29    5.00
   3   2   4  119.99    4.70
   3   2   4  116.59    4.60
   3   2   4  123.49    4.10
   3   2   4  121.09    5.10
  -4  -2  -4  822.52   27.20
  -4  -2  -4  842.12   26.80
  -4  -2  -4  831.02   27.30
  -4  -2  -4  829.12   27.40
  -4  -2  -4  832.82   26.80
   4   2   4  834.32   27.70
   4   2   4  834.42   26.90
   4   2   4  834.22   26.80
   4   2   4  818.62   27.30
  -5  -2  -4    5.80    1.30
  -5  -2  -4    7.60    1.40
  -5  -2  -4    5.70    0.60
  -5  -2  -4    6.60    1.00
   5   2   4    5.60    1.20
   5   2   4    3.70    0.80
   5   2   4    5.90    1.50
  -6  -2  -4  117.09    4.60
  -6  -2  -4  107.69    4.90
  -6  -2  -4  115.79    4.20
  -6  -2  -4  108.69    4.90
   6   2   4  110.59    5.30
   6   2   4  106.69    4.90
  -7  -2  -4  174.48    6.80
  -7  -2  -4  178.98    6.80
  -7  -2  -4  169.18    7.00
  -7  -2  -4  161.18    7.00
   7   2   4  175.38    7.40
   7   2   4  176.08    7.10
  -8  -2  -4   38.80    3.30
  -8  -2  -4   45.20    3.30
  -8  -2  -4   45.90    3.20
   8   2   4   42.90    3.50
   8   2   4   40.10    3.10
  -9  -2  -4   83.19    4.50
  -9  -2  -4   81.39    4.30
  -9  -2  -4   72.59    4.70
   9   2   4   73.39    4.90
   9   2   4   85.19    4.70
   9   2   4   88.69    5.00
 -10  -2  -4    2.30    2.20
 -10  -2  -4    4.20    1.70
 -10  -2  -4    1.80    1.70
  10   2   4    3.00    1.80
  10   2   4    4.50    2.10
  10   2   4    3.80    2.00
 -11  -2  -4   29.20    3.00
 -11  -2  -4   23.60    3.60
 -11  -2  -4   27.90    2.70
  11   2   4   38.20    3.60
  11   2   4   31.60    3.50
  11   2   4   25.20    3.30
 -12  -2  -4   65.29    5.30
 -12  -2  -4   70.09    4.60
  12   2   4   78.09    4.90
  12   2   4   58.39    5.40
   9  -3  -4    1.60    2.60
  -9   3   4    7.90    2.40
  -9   3   4    1.90    2.60
   8  -3  -4    6.60    2.50
  -8   3   4   11.80    2.90
  -8   3   4   12.40    2.50
   7  -3  -4   15.70    2.90
  -7   3   4   14.90    2.90
  -7   3   4   12.10    2.00
  -7   3   4   16.70    2.60
   6  -3  -4   35.10    3.60
   6  -3  -4   26.10    2.30
  -6   3   4   28.40    2.90
  -6   3   4   30.60    2.80
  -6   3   4   36.80    3.50
   5  -3  -4  155.58    6.30
   5  -3  -4  159.98    7.20
   5  -3  -4  153.38    5.80
  -5   3   4  163.68    7.10
  -5   3   4  163.48    6.70
  -5   3   4  155.18    6.60
   4  -3  -4   18.20    2.30
   4  -3  -4   13.80    1.60
   4  -3  -4   14.30    1.20
   4  -3  -4   15.40    1.30
  -4   3   4   10.50    1.80
  -4   3   4   13.80    1.90
  -4   3   4   17.30    2.20
   3  -3  -4   12.20    1.10
   3  -3  -4   10.40    1.70
   3  -3  -4   14.30    1.10
   3  -3  -4   14.10    1.50
  -3   3   4   12.00    1.70
  -3   3   4   12.20    1.70
  -3   3   4   14.00    1.70
  -3   3   4   11.10    1.80
   2  -3  -4   86.39    3.20
   2  -3  -4   90.79    3.70
   2  -3  -4   87.29    3.30
   2  -3  -4   83.79    3.70
   2  -3  -4   86.69    4.20
   2  -3  -4   88.99    4.00
  -2   3   4   85.99    4.10
  -2   3   4   85.29    3.90
  -2   3   4   87.99    4.00
   1  -3  -4  176.28    6.90
   1  -3  -4  193.58    6.90
   1  -3  -4  199.88    6.50
   1  -3  -4  187.78    7.20
   1  -3  -4  187.88    6.40
   1  -3  -4  183.38    6.60
   1  -3  -4  191.28    6.90
  -1   3   4  191.48    7.10
  -1   3   4  183.18    7.10
  -1   3   4  188.88    6.90
   0  -3  -4   12.70    1.40
   0  -3  -4   13.40    1.40
   0  -3  -4   13.50    1.20
   0  -3  -4   13.60    1.50
   0  -3  -4   14.30    1.20
   0  -3  -4   12.30    1.20
   0  -3  -4   14.90    1.00
   0  -3  -4   13.70    1.40
   0  -3  -4   15.90    1.50
   0   3   4   15.80    1.40
   0   3   4   15.00    1.70
   0   3   4   14.40    1.00
   0   3   4   18.20    1.80
   0   3   4   15.10    1.00
   0   3   4   15.20    1.60
   0   3   4   14.50    1.20
   0   3   4   14.70    1.50
  -1  -3  -4  111.99    4.00
  -1  -3  -4  111.19    4.40
  -1  -3  -4  109.89    4.10
  -1  -3  -4   99.79    4.00
  -1  -3  -4  108.29    4.30
  -1  -3  -4  109.39    4.40
  -1  -3  -4   99.59    4.10
  -1  -3  -4  109.59    4.40
   1   3   4  103.99    4.40
   1   3   4  108.59    4.30
   1   3   4  107.19    3.70
   1   3   4  102.09    4.50
   1   3   4  105.29    3.90
   1   3   4  107.99    4.00
   1   3   4  108.69    4.00
  -2  -3  -4   15.80    1.50
  -2  -3  -4   17.60    1.20
  -2  -3  -4   16.20    1.50
  -2  -3  -4   19.20    1.60
  -2  -3  -4   17.90    1.80
  -2  -3  -4   18.50    1.50
  -2  -3  -4   17.90    1.40
   2   3   4   16.10    1.50
   2   3   4   17.40    1.20
   2   3   4   16.30    1.80
   2   3   4   19.70    1.80
   2   3   4   17.10    1.50
   2   3   4   21.20    1.20
   2   3   4   19.70    2.00
   2   3   4   18.30    1.50
  -3  -3  -4   28.20    2.20
  -3  -3  -4   26.40    1.70
  -3  -3  -4   28.20    2.00
  -3  -3  -4   29.20    1.90
  -3  -3  -4   30.40    2.00
  -3  -3  -4   29.60    1.50
   3   3   4   26.40    1.90
   3   3   4   28.30    2.00
   3   3   4   26.90    1.90
   3   3   4   25.50    1.90
   3   3   4   27.60    2.30
   3   3   4   25.40    1.50
  -4  -3  -4   38.70    1.90
  -4  -3  -4   37.70    2.30
  -4  -3  -4   34.50    2.30
  -4  -3  -4   36.20    1.80
   4   3   4   32.50    2.30
   4   3   4   36.70    2.00
   4   3   4   36.20    1.80
   4   3   4   34.60    2.60
  -5  -3  -4  280.87    9.90
  -5  -3  -4  278.77    9.90
  -5  -3  -4  271.17    9.40
  -5  -3  -4  263.67    9.80
  -5  -3  -4  278.87    9.50
   5   3   4  266.87   10.20
   5   3   4  274.27    9.20
   5   3   4  263.57    9.80
   5   3   4  283.27    9.40
  -6  -3  -4   73.89    3.40
  -6  -3  -4   73.49    3.00
  -6  -3  -4   69.19    3.60
  -6  -3  -4   74.49    3.80
   6   3   4   72.89    4.10
   6   3   4   69.89    3.60
   6   3   4   69.49    2.70
  -7  -3  -4  209.58    7.50
  -7  -3  -4  202.38    6.90
  -7  -3  -4  198.78    7.90
  -7  -3  -4  203.58    7.70
  -7  -3  -4  192.58    7.90
   7   3   4  207.18    8.50
   7   3   4  203.78    7.90
  -8  -3  -4   69.19    3.70
  -8  -3  -4   64.19    4.10
  -8  -3  -4   63.89    3.50
  -8  -3  -4   66.79    3.90
   8   3   4   74.29    3.90
   8   3   4   70.49    4.70
  -9  -3  -4   -0.60    1.80
  -9  -3  -4    0.20    1.60
  -9  -3  -4    4.20    1.40
  -9  -3  -4    2.20    1.60
   9   3   4    1.00    1.80
   9   3   4    0.70    1.60
 -10  -3  -4  125.99    5.50
 -10  -3  -4  114.89    6.30
 -10  -3  -4  125.09    5.80
  10   3   4  130.79    6.10
  10   3   4  121.79    6.70
 -11  -3  -4    7.20    1.90
 -11  -3  -4    2.90    2.40
 -11  -3  -4    7.60    1.80
  11   3   4    5.20    2.10
  11   3   4    5.80    2.20
  11   3   4    5.60    2.50
 -12  -3  -4    5.90    3.10
  12   3   4   12.20    2.90
  12   3   4   11.30    2.50
  12   3   4    6.50    2.80
  -9   4   4    2.50    2.50
   8  -4  -4   -1.10    2.20
  -8   4   4   -1.90    2.40
  -8   4   4   -0.80    2.30
   7  -4  -4  266.67   11.50
  -7   4   4  253.87   11.20
  -7   4   4  265.07   10.20
  -7   4   4  264.47   10.70
   6  -4  -4   10.50    2.50
  -6   4   4   12.40    2.00
  -6   4   4    8.90    2.40
  -6   4   4   12.90    2.40
   5  -4  -4   30.00    3.20
   5  -4  -4   28.30    2.10
   5  -4  -4   28.90    2.00
  -5   4   4   32.90    3.40
  -5   4   4   34.90    3.00
  -5   4   4   30.80    2.70
   4  -4  -4  691.03   24.10
   4  -4  -4  750.82   24.30
   4  -4  -4  751.02   25.30
   4  -4  -4  709.33   24.40
  -4   4   4  749.23   24.90
  -4   4   4  748.33   25.30
  -4   4   4  760.22   24.90
   3  -4  -4   22.00    2.50
   3  -4  -4   30.40    2.60
   3  -4  -4   28.00    1.90
   3  -4  -4   25.80    1.90
   3  -4  -4   25.10    1.80
  -3   4   4   24.80    2.40
  -3   4   4   28.60    2.50
   2  -4  -4  343.87   11.30
   2  -4  -4  347.97   12.20
   2  -4  -4  312.17   11.40
   2  -4  -4  332.67   11.30
   2  -4  -4  330.87   11.30
   2  -4  -4  316.27   11.40
   2  -4  -4  346.57   12.00
  -2   4   4  346.97   11.60
  -2   4   4  332.57   11.80
  -2   4   4  325.07   11.90
   1  -4  -4  875.11   27.20
   1  -4  -4  880.21   27.60
   1  -4  -4  803.72   27.20
   1  -4  -4  842.82   27.10
   1  -4  -4  797.92   27.00
   1  -4  -4  811.12   27.70
   1  -4  -4  841.62   27.00
  -1   4   4  868.61   27.40
  -1   4   4  823.82   26.60
  -1   4   4  823.22   26.60
  -1   4   4  793.12   27.50
  -1   4   4  828.12   27.40
   0  -4  -4   32.60    1.90
   0  -4  -4   34.90    2.00
   0  -4  -4   30.90    1.40
   0  -4  -4   32.30    2.30
   0  -4  -4   32.40    2.10
   0  -4  -4   31.30    2.00
   0  -4  -4   31.80    1.80
   0   4   4   27.90    1.60
   0   4   4   29.50    2.00
   0   4   4   32.80    2.10
   0   4   4   34.00    2.20
   0   4   4   31.40    1.60
   0   4   4   26.80    2.20
  -1  -4  -4  797.22   26.60
  -1  -4  -4  822.72   26.90
  -1  -4  -4  804.72   26.60
  -1  -4  -4  823.02   26.60
  -1  -4  -4  846.22   26.90
  -1  -4  -4  851.71   26.70
   1   4   4  814.52   26.50
   1   4   4  841.62   26.90
   1   4   4  834.32   26.70
   1   4   4  786.52   26.50
   1   4   4  799.12   26.90
   1   4   4  780.62   26.60
  -2  -4  -4   56.89    2.70
  -2  -4  -4   55.29    2.90
  -2  -4  -4   53.69    2.50
  -2  -4  -4   54.79    2.80
  -2  -4  -4   55.09    2.80
  -2  -4  -4   59.49    2.90
  -2  -4  -4   55.69    2.60
   2   4   4   57.19    2.60
   2   4   4   53.09    2.80
   2   4   4   56.19    2.70
   2   4   4   59.79    2.70
   2   4   4   59.29    3.10
   2   4   4   58.39    3.10
   2   4   4   58.09    2.80
  -3  -4  -4   86.69    3.90
  -3  -4  -4   90.09    3.70
  -3  -4  -4   89.59    3.80
  -3  -4  -4   87.69    3.50
  -3  -4  -4   86.89    3.90
  -3  -4  -4   88.29    3.40
  -3  -4  -4   95.59    4.70
   3   4   4   84.19    3.80
   3   4   4   88.19    3.70
   3   4   4   90.59    4.20
   3   4   4   82.69    3.70
   3   4   4   87.99    3.50
  -4  -4  -4    9.90    1.30
  -4  -4  -4    8.90    1.20
  -4  -4  -4    5.80    1.30
  -4  -4  -4    8.60    1.30
   4   4   4   10.00    1.70
   4   4   4    9.00    1.10
   4   4   4   11.10    1.40
   4   4   4    7.50    1.20
  -5  -4  -4   38.70    2.20
  -5  -4  -4   39.50    2.60
  -5  -4  -4   43.00    2.60
  -5  -4  -4   42.50    2.30
   5   4   4   42.30    3.10
   5   4   4   39.00    2.50
   5   4   4   40.80    2.20
   5   4   4   45.20    2.20
  -6  -4  -4   18.50    1.80
  -6  -4  -4   19.80    2.10
  -6  -4  -4   19.00    2.00
  -6  -4  -4   20.10    1.60
  -6  -4  -4   18.80    1.90
   6   4   4   18.30    1.90
   6   4   4   16.80    2.20
   6   4   4   18.40    1.40
  -7  -4  -4  402.46   14.40
  -7  -4  -4  419.26   14.30
  -7  -4  -4  398.96   13.80
  -7  -4  -4  409.86   14.40
   7   4   4  415.96   14.40
   7   4   4  414.16   13.40
   7   4   4  395.56   15.00
  -8  -4  -4   17.40    2.30
  -8  -4  -4   13.40    1.10
  -8  -4  -4   16.60    1.70
  -8  -4  -4   17.50    2.10
  -8  -4  -4   16.70    2.10
   8   4   4   17.90    2.60
   8   4   4   17.40    2.20
  -9  -4  -4  153.68    6.80
  -9  -4  -4  141.69    6.80
  -9  -4  -4  161.08    6.00
  -9  -4  -4  156.88    6.70
   9   4   4  148.59    7.50
   9   4   4  145.59    6.70
 -10  -4  -4  252.47    8.90
 -10  -4  -4  246.28    9.50
 -10  -4  -4  237.78   10.10
 -10  -4  -4  251.87    9.90
  10   4   4  228.18   10.40
  10   4   4  231.28    9.70
 -11  -4  -4   -1.60    1.50
 -11  -4  -4   -1.50    2.00
 -11  -4  -4   -1.60    1.90
  11   4   4    0.30    2.50
  11   4   4   -3.90    1.50
 -12  -4  -4   75.89    5.60
  12   4   4   87.19    5.30
  12   4   4   77.59    5.70
   8  -5  -4   11.20    3.20
  -8   5   4    8.30    2.70
  -8   5   4   10.50    3.30
   7  -5  -4    3.70    2.50
  -7   5   4    2.40    2.50
  -7   5   4    3.70    2.60
   6  -5  -4   -2.30    1.80
  -6   5   4    0.10    1.40
  -6   5   4   -2.70    1.80
  -6   5   4   -0.50    2.20
   5  -5  -4    1.90    1.80
   5  -5  -4    0.60    1.10
  -5   5   4    0.30    1.40
  -5   5   4    1.00    1.80
   4  -5  -4   88.49    5.10
   4  -5  -4   91.29    5.10
   4  -5  -4   89.59    4.30
  -4   5   4   99.09    4.90
  -4   5   4  100.39    4.90
   3  -5  -4   62.39    4.00
   3  -5  -4   58.79    2.30
   3  -5  -4   68.69    3.20
   3  -5  -4   54.09    2.30
   3  -5  -4   55.19    2.70
   3  -5  -4   55.09    3.90
  -3   5   4   56.79    3.60
  -3   5   4   55.29    3.50
   2  -5  -4  808.92   26.10
   2  -5  -4  752.12   26.60
   2  -5  -4  800.82   25.60
   2  -5  -4  790.02   26.80
   2  -5  -4  769.12   26.00
  -2   5   4  791.82   26.60
  -2   5   4  820.92   26.00
  -2   5   4  799.12   25.40
  -2   5   4  787.92   25.40
  -2   5   4  789.52   26.40
   1  -5  -4   58.79    2.60
   1  -5  -4   56.49    2.60
   1  -5  -4   54.69    3.40
   1  -5  -4   56.19    3.40
   1  -5  -4   60.99    2.90
  -1   5   4   53.69    2.40
  -1   5   4   55.69    3.30
  -1   5   4   63.99    2.60
  -1   5   4   63.79    2.90
  -1   5   4   57.69    3.20
   0  -5  -4   32.90    2.40
   0  -5  -4   32.90    2.00
   0  -5  -4   31.90    1.90
   0  -5  -4   27.80    2.30
   0  -5  -4   31.20    1.50
   0   5   4   29.60    2.30
   0   5   4   31.20    1.70
   0   5   4   29.80    1.90
   0   5   4   29.10    2.20
   0   5   4   32.80    2.10
  -1  -5  -4 1195.48   39.60
  -1  -5  -4 1284.77   39.60
  -1  -5  -4 1236.68   39.40
  -1  -5  -4 1261.47   39.40
   1   5   4 1144.59   39.70
   1   5   4 1153.08   39.40
   1   5   4 1230.68   39.30
   1   5   4 1257.67   39.50
   1   5   4 1178.28   39.20
   1   5   4 1206.08   39.20
   1   5   4 1201.08   39.70
  -2  -5  -4   53.59    2.50
  -2  -5  -4   55.69    3.00
  -2  -5  -4   56.59    3.00
  -2  -5  -4   58.79    2.90
  -2  -5  -4   50.59    2.70
   2   5   4   54.29    3.00
   2   5   4   51.89    2.70
   2   5   4   56.29    3.10
   2   5   4   61.69    2.90
   2   5   4   54.69    2.60
   2   5   4   53.59    3.00
  -3  -5  -4   22.40    1.90
  -3  -5  -4   20.20    1.80
  -3  -5  -4   21.40    1.90
  -3  -5  -4   20.20    1.30
   3   5   4   23.70    1.80
   3   5   4   22.90    2.10
   3   5   4   21.30    1.90
   3   5   4   21.00    1.10
   3   5   4   23.20    2.20
  -4  -5  -4  105.69    4.20
  -4  -5  -4  101.29    4.40
  -4  -5  -4   97.39    3.80
  -4  -5  -4  110.09    4.60
   4   5   4   98.19    4.80
   4   5   4  104.39    4.40
   4   5   4  105.79    3.90
   4   5   4   98.49    4.40
   4   5   4  103.89    4.30
  -5  -5  -4   20.70    2.00
  -5  -5  -4   18.80    1.20
  -5  -5  -4   20.10    1.90
  -5  -5  -4   24.40    2.20
  -5  -5  -4   22.70    2.20
   5   5   4   22.00    1.70
   5   5   4   20.80    1.90
   5   5   4   19.80    2.30
   5   5   4   19.90    2.00
  -6  -5  -4   22.50    2.00
  -6  -5  -4   25.60    2.30
  -6  -5  -4   25.20    2.40
  -6  -5  -4   20.10    2.10
  -6  -5  -4   29.40    2.30
   6   5   4   25.10    2.40
   6   5   4   23.10    2.70
   6   5   4   29.20    1.90
  -7  -5  -4   84.79    4.40
  -7  -5  -4   91.29    4.50
  -7  -5  -4   83.39    4.00
  -7  -5  -4   85.29    4.30
  -7  -5  -4   92.39    4.30
   7   5   4   90.39    3.70
   7   5   4   85.89    4.40
   7   5   4   91.79    5.10
  -8  -5  -4   21.60    2.40
  -8  -5  -4   18.90    1.60
  -8  -5  -4   18.40    2.20
  -8  -5  -4   19.70    1.70
  -8  -5  -4   21.60    2.30
   8   5   4   19.90    2.40
   8   5   4   21.70    1.60
   8   5   4   17.70    2.80
  -9  -5  -4    5.80    1.80
  -9  -5  -4    3.40    0.90
  -9  -5  -4    3.90    1.90
  -9  -5  -4    2.10    1.60
   9   5   4    3.50    1.60
   9   5   4    3.10    2.40
 -10  -5  -4    2.10    1.90
 -10  -5  -4    0.40    1.80
 -10  -5  -4   -2.30    1.50
 -10  -5  -4    0.60    0.90
  10   5   4   -1.50    2.10
  10   5   4   -1.60    1.60
 -11  -5  -4    4.70    2.30
 -11  -5  -4    5.00    2.10
 -11  -5  -4    4.10    1.80
  11   5   4    5.10    2.60
  11   5   4    1.30    1.80
 -12  -5  -4    9.20    2.80
 -12  -5  -4    6.00    2.40
  12   5   4    5.80    2.20
  12   5   4   10.00    3.20
   7  -6  -4   -0.20    2.40
   7  -6  -4    3.60    2.40
  -7   6   4   -0.80    2.30
   6  -6  -4   14.50    3.00
   6  -6  -4   15.20    2.90
  -6   6   4    8.30    2.50
  -6   6   4   12.70    2.30
   5  -6  -4    2.30    2.10
   5  -6  -4    1.80    1.30
   5  -6  -4    2.60    2.00
  -5   6   4    2.70    1.70
  -5   6   4    4.60    2.10
   4  -6  -4   -3.70    1.40
   4  -6  -4   -0.30    1.70
   4  -6  -4    0.10    1.10
  -4   6   4   -0.30    1.80
  -4   6   4   -1.40    1.40
   3  -6  -4   22.20    2.80
   3  -6  -4   28.30    3.00
   3  -6  -4   25.00    2.30
  -3   6   4   25.10    1.50
  -3   6   4   25.90    2.80
  -3   6   4   22.60    2.50
  -3   6   4   25.10    1.40
   2  -6  -4    0.90    1.40
   2  -6  -4    0.20    1.00
   2  -6  -4    0.90    1.40
  -2   6   4   -0.20    0.60
  -2   6   4   -0.80    0.60
  -2   6   4   -0.20    1.40
  -2   6   4   -0.30    0.70
  -2   6   4   -1.70    1.30
   1  -6  -4    8.00    1.40
   1  -6  -4    5.00    0.80
   1  -6  -4    7.70    1.70
   1  -6  -4    5.70    1.60
  -1   6   4    6.10    1.00
  -1   6   4    5.80    1.60
  -1   6   4    7.80    1.10
  -1   6   4    2.80    1.50
  -1   6   4    5.20    1.00
   0  -6  -4  654.93   22.80
   0  -6  -4  683.33   22.10
   0  -6  -4  641.44   22.70
   0  -6  -4  682.83   22.50
   0   6   4  659.73   22.80
   0   6   4  651.73   22.40
   0   6   4  694.63   22.20
   0   6   4  681.83   22.20
   0   6   4  677.43   22.20
  -1  -6  -4  146.89    5.70
  -1  -6  -4  139.39    6.00
  -1  -6  -4  146.49    4.80
  -1  -6  -4  150.58    5.80
  -1  -6  -4  149.09    6.10
   1   6   4  143.09    6.20
   1   6   4  146.89    5.70
   1   6   4  151.28    5.70
   1   6   4  147.89    5.80
   1   6   4  131.29    5.60
   1   6   4  153.28    5.80
  -2  -6  -4  403.56   14.40
  -2  -6  -4  416.96   14.40
  -2  -6  -4  422.26   14.50
  -2  -6  -4  405.26   14.40
   2   6   4  414.16   14.60
   2   6   4  429.56   14.10
   2   6   4  418.96   14.30
   2   6   4  423.06   14.50
  -3  -6  -4    2.10    1.20
  -3  -6  -4    2.60    1.00
  -3  -6  -4    2.60    0.70
  -3  -6  -4    1.50    1.10
   3   6   4    2.00    1.30
   3   6   4    2.90    1.10
   3   6   4    3.50    0.40
   3   6   4    3.30    0.90
   3   6   4    2.10    1.30
  -4  -6  -4  711.73   25.10
  -4  -6  -4  739.53   25.10
  -4  -6  -4  741.73   24.40
  -4  -6  -4  721.83   25.00
  -4  -6  -4  799.12   25.10
   4   6   4  753.32   25.60
   4   6   4  781.42   24.40
   4   6   4  783.22   25.20
  -5  -6  -4  380.06   13.10
  -5  -6  -4  356.76   13.10
  -5  -6  -4  368.56   12.30
  -5  -6  -4  370.26   13.20
   5   6   4  367.36   13.80
   5   6   4  386.66   13.10
   5   6   4  366.66   13.20
   5   6   4  389.06   12.70
  -6  -6  -4   61.09    3.30
  -6  -6  -4   57.59    3.40
  -6  -6  -4   57.19    2.30
  -6  -6  -4   56.29    3.20
   6   6   4   58.19    3.20
   6   6   4   58.69    3.40
   6   6   4   55.19    4.00
  -7  -6  -4   79.39    4.00
  -7  -6  -4   76.89    3.90
  -7  -6  -4   67.89    3.90
  -7  -6  -4   73.09    3.90
  -7  -6  -4   69.89    2.70
   7   6   4   76.39    4.00
   7   6   4   68.19    4.70
   7   6   4   76.39    3.60
  -8  -6  -4   14.90    1.10
  -8  -6  -4   15.20    2.30
  -8  -6  -4   14.10    2.20
  -8  -6  -4   15.80    2.30
  -8  -6  -4   11.40    2.10
   8   6   4   16.90    2.30
   8   6   4   12.30    2.70
   8   6   4   16.30    1.70
  -9  -6  -4    1.70    1.70
  -9  -6  -4    4.20    1.80
  -9  -6  -4    2.10    0.70
  -9  -6  -4    5.00    2.00
   9   6   4    4.20    2.40
   9   6   4    4.10    1.10
   9   6   4    4.40    1.70
 -10  -6  -4   18.40    2.80
 -10  -6  -4   14.90    2.60
 -10  -6  -4    9.20    2.00
  10   6   4   15.00    2.30
  10   6   4   15.20    3.20
 -11  -6  -4   36.80    3.80
 -11  -6  -4   28.50    2.80
 -11  -6  -4   37.30    3.70
  11   6   4   24.40    4.00
  11   6   4   34.80    3.50
 -12  -6  -4   -0.10    2.30
 -12  -6  -4    0.50    1.80
 -12  -6  -4   -1.50    1.90
  12   6   4    2.00    2.80
  12   6   4   -1.20    1.80
  13   6   4   24.00    4.10
  -7   7   4  329.47   13.60
   6  -7  -4    4.40    2.70
   6  -7  -4    2.50    2.10
  -6   7   4    2.30    2.00
  -6   7   4   -2.40    2.30
   5  -7  -4   93.59    6.20
   5  -7  -4   96.59    5.00
   5  -7  -4   81.09    5.60
  -5   7   4   96.79    5.30
  -5   7   4   88.09    5.50
   4  -7  -4  152.08    7.90
   4  -7  -4  160.38    7.00
   4  -7  -4  173.28    8.00
  -4   7   4  170.08    7.40
  -4   7   4  156.68    7.40
   3  -7  -4   12.60    2.30
   3  -7  -4    8.40    2.20
   3  -7  -4   12.90    1.90
  -3   7   4    8.50    2.20
  -3   7   4   11.20    2.20
  -3   7   4    9.40    1.20
   2  -7  -4   21.90    2.30
   2  -7  -4   23.40    2.70
   2  -7  -4   23.40    2.90
  -2   7   4   26.30    2.90
  -2   7   4   25.10    2.00
  -2   7   4   26.60    2.90
   1  -7  -4   65.79    4.00
   1  -7  -4   65.49    2.50
   1  -7  -4   53.69    3.90
   1  -7  -4   64.69    3.60
  -1   7   4   66.59    2.70
  -1   7   4   62.29    3.10
  -1   7   4   62.39    3.90
  -1   7   4   58.49    3.90
  -1   7   4   56.99    3.20
   0  -7  -4    0.40    0.70
   0  -7  -4    1.50    1.40
   0  -7  -4    0.90    1.30
   0  -7  -4    0.00    0.70
   0  -7  -4    0.80    1.10
   0   7   4    0.70    1.10
   0   7   4   -0.40    1.60
   0   7   4    1.10    0.80
   0   7   4   -1.80    1.50
  -1  -7  -4    7.20    1.50
  -1  -7  -4    4.10    0.60
  -1  -7  -4    3.40    1.00
  -1  -7  -4    3.90    1.50
  -1  -7  -4    5.80    1.50
   1   7   4    5.00    1.20
   1   7   4    3.80    1.20
   1   7   4    4.80    1.20
   1   7   4    4.50    1.40
   1   7   4    6.10    1.70
  -2  -7  -4  139.09    4.30
  -2  -7  -4  127.49    5.50
  -2  -7  -4  117.09    5.50
  -2  -7  -4  117.09    5.50
   2   7   4  130.59    5.50
   2   7   4  133.09    5.10
   2   7   4  130.09    5.60
   2   7   4  127.79    5.90
  -3  -7  -4   42.20    2.90
  -3  -7  -4   41.00    2.30
  -3  -7  -4   37.50    2.80
  -3  -7  -4   37.30    2.80
   3   7   4   37.50    2.20
   3   7   4   46.00    3.20
   3   7   4   41.00    2.70
   3   7   4   42.50    3.00
  -4  -7  -4  426.26   14.70
  -4  -7  -4  414.56   14.70
  -4  -7  -4  410.06   13.90
  -4  -7  -4  417.46   14.80
  -4  -7  -4  392.16   14.70
   4   7   4  431.06   15.20
   4   7   4  440.26   14.80
   4   7   4  427.86   13.80
   4   7   4  410.26   14.90
  -5  -7  -4   65.29    2.50
  -5  -7  -4   57.49    3.40
  -5  -7  -4   65.49    3.60
  -5  -7  -4   62.79    3.60
   5   7   4   60.89    3.80
   5   7   4   65.49    3.60
   5   7   4   66.49    2.90
   5   7   4   67.99    4.30
  -6  -7  -4    1.30    1.30
  -6  -7  -4    5.00    1.40
  -6  -7  -4    2.40    1.50
  -6  -7  -4    2.40    0.40
   6   7   4    2.10    1.50
   6   7   4    4.00    2.00
   6   7   4    3.50    1.40
  -7  -7  -4  348.27   11.10
  -7  -7  -4  337.47   12.60
  -7  -7  -4  352.06   12.60
  -7  -7  -4  342.87   12.60
  -7  -7  -4  356.96   12.70
  -7  -7  -4  329.47   11.10
   7   7   4  332.57   12.60
   7   7   4  344.07   13.60
   7   7   4  366.86   12.50
  -8  -7  -4   42.40    3.20
  -8  -7  -4   43.60    3.60
  -8  -7  -4   42.40    3.30
  -8  -7  -4   43.30    3.30
   8   7   4   49.40    3.60
   8   7   4   27.40    3.70
   8   7   4   41.20    2.90
  -9  -7  -4   54.59    3.80
  -9  -7  -4   49.80    3.70
  -9  -7  -4   49.50    3.70
   9   7   4   49.60    4.80
   9   7   4   51.39    3.10
   9   7   4   50.29    3.90
 -10  -7  -4   62.39    4.10
 -10  -7  -4   54.29    4.20
 -10  -7  -4   59.49    4.30
  10   7   4   55.69    5.20
  10   7   4   66.59    4.30
 -11  -7  -4   -0.70    1.70
 -11  -7  -4    2.90    2.30
 -11  -7  -4   -0.20    2.10
  11   7   4   -0.10    1.90
  11   7   4    2.80    2.80
 -12  -7  -4   12.70    3.10
 -12  -7  -4   11.60    2.70
 -12  -7  -4   10.10    2.20
  12   7   4   13.30    2.80
  12   7   4    9.50    3.70
   6  -8  -4   40.50    4.50
   6  -8  -4   42.10    4.90
  -6   8   4   38.60    4.30
   5  -8  -4  149.59    8.20
   5  -8  -4  128.19    7.50
  -5   8   4  144.29    7.10
  -5   8   4  125.39    7.10
   4  -8  -4   30.70    3.80
   4  -8  -4   31.10    3.10
   4  -8  -4   35.20    3.80
  -4   8   4   30.70    3.50
  -4   8   4   43.40    3.90
   3  -8  -4   12.60    2.50
   3  -8  -4   11.20    2.10
   3  -8  -4    8.90    2.20
  -3   8   4    8.60    1.40
  -3   8   4   14.70    2.60
  -3   8   4   13.30    2.50
   2  -8  -4  362.46   14.10
   2  -8  -4  356.76   13.30
   2  -8  -4  371.26   13.80
  -2   8   4  360.06   13.70
  -2   8   4  367.46   12.80
  -2   8   4  348.67   13.40
   1  -8  -4   12.50    2.30
   1  -8  -4   14.00    2.20
   1  -8  -4   11.00    2.00
  -1   8   4    9.40    2.10
  -1   8   4   14.00    1.90
  -1   8   4   11.70    2.50
   0  -8  -4   17.60    2.40
   0  -8  -4   17.20    2.20
   0  -8  -4   19.90    2.60
   0  -8  -4   18.70    1.60
   0   8   4   15.80    2.50
   0   8   4   19.20    2.10
   0   8   4   22.80    1.60
   0   8   4   17.40    2.30
  -1  -8  -4  104.69    4.10
  -1  -8  -4  114.99    5.40
  -1  -8  -4  104.69    4.60
  -1  -8  -4  103.59    5.10
  -1  -8  -4  116.89    5.50
   1   8   4  104.99    4.70
   1   8   4  121.69    5.30
   1   8   4   97.49    5.40
   1   8   4  115.89    4.70
   1   8   4  110.69    4.90
  -2  -8  -4    8.10    1.70
  -2  -8  -4    9.20    1.90
  -2  -8  -4    9.00    0.90
  -2  -8  -4    9.40    1.80
   2   8   4    3.10    1.80
   2   8   4    6.10    1.60
   2   8   4    6.10    1.70
   2   8   4    6.60    1.60
  -3  -8  -4    4.60    1.60
  -3  -8  -4    4.80    1.50
  -3  -8  -4    6.90    1.60
  -3  -8  -4    6.00    0.80
   3   8   4    6.40    1.80
   3   8   4    6.10    1.90
   3   8   4    6.50    1.70
   3   8   4    4.80    1.30
  -4  -8  -4   38.40    2.90
  -4  -8  -4   35.40    1.90
  -4  -8  -4   37.40    2.90
  -4  -8  -4   37.60    3.10
  -4  -8  -4   29.90    2.70
   4   8   4   35.90    1.90
   4   8   4   37.30    3.50
   4   8   4   35.30    3.10
   4   8   4   36.60    3.30
   4   8   4   38.40    2.10
   4   8   4   35.30    2.80
  -5  -8  -4   68.89    2.70
  -5  -8  -4   64.79    3.80
  -5  -8  -4   73.29    4.00
  -5  -8  -4   68.19    3.90
   5   8   4   68.59    4.00
   5   8   4   68.99    3.00
   5   8   4   72.09    4.40
   5   8   4   68.69    4.50
   5   8   4   70.39    4.60
  -6  -8  -4   88.09    3.10
  -6  -8  -4   91.59    4.60
  -6  -8  -4   89.79    4.60
  -6  -8  -4   85.49    4.70
   6   8   4   89.29    4.70
   6   8   4   96.89    5.00
   6   8   4   83.69    5.40
  -7  -8  -4   13.20    2.10
  -7  -8  -4   14.00    2.10
  -7  -8  -4   11.60    2.10
  -7  -8  -4    7.70    2.00
   7   8   4   11.60    2.10
   7   8   4   10.00    2.20
   7   8   4    7.90    2.50
  -8  -8  -4   22.30    2.80
  -8  -8  -4   26.30    2.60
  -8  -8  -4   24.20    2.70
  -8  -8  -4   29.10    3.00
   8   8   4   25.90    2.70
   8   8   4   21.20    2.60
   8   8   4   28.00    3.60
  -9  -8  -4  380.16   14.20
  -9  -8  -4  371.56   14.00
  -9  -8  -4  364.66   14.00
   9   8   4  383.26   14.20
   9   8   4  362.06   15.20
   9   8   4  386.66   13.60
 -10  -8  -4   20.50    2.60
 -10  -8  -4   20.40    3.10
 -10  -8  -4   20.60    3.00
  10   8   4   11.10    3.30
  10   8   4   14.60    2.50
 -11  -8  -4    4.80    1.90
 -11  -8  -4    5.10    2.30
 -11  -8  -4    2.30    2.30
  11   8   4    6.50    2.20
  11   8   4    3.20    3.00
 -12  -8  -4   13.80    3.20
 -12  -8  -4   10.90    2.70
 -12  -8  -4    9.30    2.20
  12   8   4   13.60    2.80
  12   8   4    8.20    3.80
   5  -9  -4   -1.60    1.80
   5  -9  -4   -0.90    2.60
  -5   9   4    1.90    2.20
  -5   9   4    1.90    2.80
   4  -9  -4  171.78    8.90
   4  -9  -4  187.38    8.40
   4  -9  -4  194.58    9.70
  -4   9   4  197.18    8.90
  -4   9   4  187.18    8.70
   3  -9  -4    2.40    1.70
   3  -9  -4    2.80    2.10
   3  -9  -4    1.10    2.30
  -3   9   4    1.30    2.20
  -3   9   4    3.80    2.20
   2  -9  -4    1.00    1.40
   2  -9  -4    4.10    1.90
   2  -9  -4    0.60    2.10
  -2   9   4    2.50    2.10
  -2   9   4    2.10    2.00
  -2   9   4   -0.70    1.50
   1  -9  -4  236.78    9.70
   1  -9  -4  241.68   10.10
   1  -9  -4  236.98    9.80
  -1   9   4  236.88   10.10
  -1   9   4  237.08    9.30
  -1   9   4  228.88    9.50
   0  -9  -4  165.38    6.20
   0  -9  -4  163.08    7.60
   0  -9  -4  157.88    7.10
   0  -9  -4  160.68    7.20
   0   9   4  165.98    7.00
   0   9   4  161.58    7.00
   0   9   4  161.28    7.70
  -1  -9  -4  275.37    9.30
  -1  -9  -4  270.77   10.60
  -1  -9  -4  267.87   10.90
  -1  -9  -4  260.77   10.40
   1   9   4  261.47   10.30
   1   9   4  273.07   10.10
   1   9   4  280.77    9.80
   1   9   4  259.97   10.90
   1   9   4  263.57    9.60
  -2  -9  -4  498.35   17.90
  -2  -9  -4  531.95   17.60
  -2  -9  -4  493.65   16.30
  -2  -9  -4  459.75   17.50
   2   9   4  472.35   17.90
   2   9   4  494.45   17.20
   2   9   4  471.15   17.40
   2   9   4  521.45   17.00
  -3  -9  -4   -0.60    0.60
  -3  -9  -4   -2.00    1.20
  -3  -9  -4   -2.40    1.20
  -3  -9  -4    0.00    1.40
   3   9   4    2.00    2.00
   3   9   4    0.10    1.30
   3   9   4    0.80    1.70
   3   9   4   -2.10    1.60
  -4  -9  -4   71.39    4.40
  -4  -9  -4   72.39    4.10
  -4  -9  -4   67.69    4.20
  -4  -9  -4   65.29    4.00
  -4  -9  -4   68.79    2.90
   4   9   4   63.99    4.30
   4   9   4   68.49    4.40
   4   9   4   64.29    3.20
   4   9   4   62.19    4.60
   4   9   4   68.39    5.10
  -5  -9  -4   -0.90    1.40
  -5  -9  -4    0.80    1.50
  -5  -9  -4    1.10    1.60
  -5  -9  -4   -0.30    1.40
   5   9   4   -0.40    2.00
   5   9   4   -0.40    1.80
   5   9   4   -2.50    1.90
   5   9   4   -1.30    1.70
  -6  -9  -4    8.60    1.90
  -6  -9  -4    6.70    2.00
  -6  -9  -4    6.30    1.90
   6   9   4    6.00    2.30
   6   9   4    4.70    2.60
   6   9   4    4.80    2.10
   6   9   4    5.50    2.10
  -7  -9  -4   40.70    3.30
  -7  -9  -4   37.80    3.50
  -7  -9  -4   38.30    3.60
   7   9   4   41.70    3.80
   7   9   4   39.10    3.50
   7   9   4   46.50    4.20
   7   9   4   39.60    4.30
  -8  -9  -4   14.00    2.50
  -8  -9  -4   19.60    2.60
  -8  -9  -4   19.60    2.60
  -8  -9  -4   16.70    2.40
   8   9   4   19.30    2.80
   8   9   4   15.90    2.50
   8   9   4   14.20    3.20
  -9  -9  -4   74.89    4.90
  -9  -9  -4   82.89    4.90
  -9  -9  -4   86.09    5.30
  -9  -9  -4   78.29    4.80
   9   9   4   76.89    4.80
   9   9   4   85.69    5.30
   9   9   4   75.69    6.40
 -10  -9  -4   26.90    3.20
 -10  -9  -4   33.60    3.80
  10   9   4   26.00    4.20
  10   9   4   28.00    3.20
 -11  -9  -4    6.10    2.10
 -11  -9  -4    1.50    2.30
 -11  -9  -4    4.60    2.40
  11   9   4    1.20    2.20
  11   9   4   -0.70    2.90
 -12  -9  -4   87.79    5.70
 -12  -9  -4   92.09    5.90
 -12  -9  -4   92.49    5.20
  12   9   4   86.79    5.80
  12   9   4   80.29    7.20
   4 -10  -4    7.30    3.00
  -4  10   4    7.80    2.60
  -4  10   4    8.00    3.00
   3 -10  -4    0.40    1.90
   3 -10  -4   -0.40    2.10
   3 -10  -4    0.20    1.80
  -3  10   4    5.10    2.80
  -3  10   4    1.50    2.20
   2 -10  -4  163.48    8.20
   2 -10  -4  174.98    8.00
   2 -10  -4  170.88    8.70
  -2  10   4  186.78    7.60
  -2  10   4  173.68    8.10
  -2  10   4  169.58    8.40
   1 -10  -4   47.30    3.90
   1 -10  -4   52.19    4.30
   1 -10  -4   60.19    4.60
  -1  10   4   61.69    4.00
  -1  10   4   52.89    4.40
  -1  10   4   53.49    4.80
   0 -10  -4   52.89    4.30
   0 -10  -4   51.49    4.10
   0 -10  -4   56.49    4.00
   0  10   4   53.59    4.20
   0  10   4   50.09    4.60
   0  10   4   56.69    4.00
  -1 -10  -4  393.36   14.90
  -1 -10  -4  413.76   15.50
  -1 -10  -4  402.36   15.20
   1  10   4  413.26   14.90
   1  10   4  414.46   15.60
   1  10   4  391.56   14.60
  -2 -10  -4    7.00    2.10
  -2 -10  -4    7.40    2.00
  -2 -10  -4    8.10    2.20
   2  10   4    7.80    1.90
   2  10   4    6.90    1.50
   2  10   4    7.00    2.60
   2  10   4   12.50    2.40
   2  10   4    7.10    1.70
  -3 -10  -4  562.94   21.30
  -3 -10  -4  649.24   21.80
  -3 -10  -4  586.74   21.10
   3  10   4  588.34   20.50
   3  10   4  646.14   21.30
   3  10   4  611.64   21.40
   3  10   4  594.74   21.70
  -4 -10  -4  457.95   17.00
  -4 -10  -4  471.75   17.20
  -4 -10  -4  471.25   17.10
  -4 -10  -4  470.55   16.70
   4  10   4  439.26   17.70
   4  10   4  457.25   17.40
   4  10   4  481.85   17.10
   4  10   4  457.15   15.90
   4  10   4  490.65   17.30
  -5 -10  -4   24.70    2.80
  -5 -10  -4   21.90    2.80
  -5 -10  -4   23.70    2.60
  -5 -10  -4   21.20    2.90
   5  10   4   20.70    3.20
   5  10   4   18.40    3.00
   5  10   4   19.80    2.70
   5  10   4   19.90    3.40
  -6 -10  -4    1.40    1.60
  -6 -10  -4   -0.90    1.60
  -6 -10  -4   -0.20    1.70
   6  10   4   -0.30    2.30
   6  10   4   -2.70    2.00
   6  10   4    1.40    2.00
   6  10   4   -0.50    2.20
  -7 -10  -4   14.80    2.40
  -7 -10  -4   15.90    2.40
  -7 -10  -4   16.10    2.70
   7  10   4    7.90    2.90
   7  10   4   12.70    2.80
   7  10   4   14.60    2.50
   7  10   4   11.80    2.90
  -8 -10  -4   -0.80    1.50
  -8 -10  -4    2.30    1.90
  -8 -10  -4    2.50    1.90
  -8 -10  -4    0.50    1.90
   8  10   4   -0.50    2.10
   8  10   4    2.90    2.20
   8  10   4   -3.20    2.40
   8  10   4   -0.20    2.10
  -9 -10  -4   -0.50    1.90
  -9 -10  -4    3.70    2.10
  -9 -10  -4    1.40    2.00
  -9 -10  -4    1.70    1.70
   9  10   4    3.30    2.30
   9  10   4   -1.10    2.10
   9  10   4   -1.10    2.70
 -10 -10  -4    3.20    2.00
 -10 -10  -4   -1.80    1.70
 -10 -10  -4   -0.70    2.10
  10  10   4   -1.90    1.90
  10  10   4   -3.30    2.80
  10  10   4    0.40    2.20
 -11 -10  -4    3.30    2.00
 -11 -10  -4    5.70    2.60
 -11 -10  -4    6.50    2.40
  11  10   4    3.20    3.70
  11  10   4    4.20    2.20
 -12 -10  -4   11.10    2.70
 -12 -10  -4   11.70    3.00
  12  10   4   12.40    4.20
   2 -11  -4    5.00    2.20
   2 -11  -4    3.60    2.20
   2 -11  -4    3.30    2.50
  -2  11   4    9.10    3.00
  -2  11   4    5.70    2.70
   1 -11  -4   34.50    3.80
   1 -11  -4   31.90    4.10
   1 -11  -4   40.90    4.00
  -1  11   4   32.70    4.00
  -1  11   4   30.80    3.30
  -1  11   4   32.70    3.80
   0 -11  -4   29.80    3.30
   0 -11  -4   25.60    3.20
   0 -11  -4   22.00    3.20
   0  11   4   26.90    3.70
   0  11   4   17.90    2.90
   0  11   4   24.30    3.10
  -1 -11  -4   51.89    4.50
  -1 -11  -4   39.00    4.00
  -1 -11  -4   42.70    3.80
   1  11   4   47.60    3.90
   1  11   4   54.19    4.90
   1  11   4   43.60    4.10
  -2 -11  -4   53.69    4.00
  -2 -11  -4   46.10    4.00
  -2 -11  -4   52.29    4.50
   2  11   4   57.69    3.80
   2  11   4   53.79    4.50
   2  11   4   57.29    4.90
  -3 -11  -4    6.10    2.20
  -3 -11  -4    1.40    1.70
  -3 -11  -4    2.80    1.80
   3  11   4    6.80    1.80
   3  11   4    2.30    2.60
   3  11   4    3.60    1.80
   3  11   4   -1.40    2.20
  -4 -11  -4    0.10    1.70
  -4 -11  -4   -2.20    1.80
  -4 -11  -4   -0.60    1.50
  -4 -11  -4   -1.00    1.50
   4  11   4    0.10    1.90
   4  11   4    1.80    2.40
   4  11   4   -2.50    2.40
   4  11   4   -0.70    2.00
   4  11   4   -0.10    1.30
  -5 -11  -4   35.50    3.70
  -5 -11  -4   32.50    3.50
  -5 -11  -4   34.20    3.40
  -5 -11  -4   37.50    3.30
   5  11   4   35.70    4.10
   5  11   4   37.00    4.30
   5  11   4   37.90    3.70
   5  11   4   34.70    3.80
  -6 -11  -4   28.80    3.40
  -6 -11  -4   35.60    3.50
  -6 -11  -4   34.90    3.30
   6  11   4   36.10    3.70
   6  11   4   26.00    3.70
   6  11   4   28.30    4.10
   6  11   4   36.00    4.10
  -7 -11  -4  150.98    6.90
  -7 -11  -4  159.08    7.30
  -7 -11  -4  147.09    7.30
   7  11   4  138.39    8.10
   7  11   4  145.99    7.40
   7  11   4  157.48    8.40
   7  11   4  143.19    7.70
  -8 -11  -4   -0.40    2.00
  -8 -11  -4   -0.50    1.70
  -8 -11  -4   -1.00    1.50
  -8 -11  -4    1.40    2.20
   8  11   4   -1.10    2.70
   8  11   4   -0.80    2.60
   8  11   4    1.10    2.30
   8  11   4   -2.20    2.40
  -9 -11  -4   14.30    2.90
  -9 -11  -4   11.70    2.40
  -9 -11  -4    9.40    2.50
  -9 -11  -4   11.60    2.40
   9  11   4   12.30    2.80
   9  11   4    3.60    3.60
   9  11   4    9.30    2.90
 -10 -11  -4   16.40    3.30
 -10 -11  -4   15.10    2.90
 -10 -11  -4   14.60    2.70
  10  11   4    8.40    3.70
  10  11   4   20.10    3.30
  10  11   4   10.30    2.80
 -11 -11  -4    4.00    2.10
 -11 -11  -4    0.50    2.20
  11  11   4    0.60    2.40
  11  11   4   -3.30    3.30
   1 -12  -4   -0.70    2.10
  -1  12   4    2.40    2.40
  -1  12   4    3.80    2.50
   0 -12  -4    7.10    2.20
   0 -12  -4    3.60    2.30
   0 -12  -4    0.80    1.90
   0  12   4    1.20    2.30
   0  12   4    6.00    2.80
   0  12   4    3.30    2.60
  -1 -12  -4   -1.90    2.00
  -1 -12  -4   -0.40    1.80
  -1 -12  -4   -1.90    1.80
   1  12   4    0.60    2.10
   1  12   4   -5.10    2.10
   1  12   4    1.50    2.80
  -2 -12  -4    3.40    1.90
  -2 -12  -4    3.80    2.30
  -2 -12  -4    5.50    2.30
   2  12   4    7.80    2.30
   2  12   4    8.80    3.10
   2  12   4    7.10    2.80
  -3 -12  -4    0.40    1.70
  -3 -12  -4    2.70    2.00
  -3 -12  -4    1.40    1.80
   3  12   4   -1.90    2.10
   3  12   4    0.70    2.40
  -4 -12  -4  157.38    7.90
  -4 -12  -4  133.99    7.30
  -4 -12  -4  137.49    7.20
  -4 -12  -4  144.39    6.90
   4  12   4  139.09    7.30
   4  12   4  154.98    8.20
   4  12   4  141.59    7.40
  -5 -12  -4   21.20    3.30
  -5 -12  -4   15.10    2.90
  -5 -12  -4   20.00    2.70
  -5 -12  -4   17.40    2.90
   5  12   4   15.10    3.50
   5  12   4   16.50    3.20
   5  12   4   18.20    3.80
   5  12   4   16.50    3.10
  -6 -12  -4   29.10    3.70
  -6 -12  -4   20.00    2.80
  -6 -12  -4   24.70    3.20
   6  12   4   25.80    3.40
   6  12   4   31.00    4.30
   6  12   4   19.90    3.70
   6  12   4   20.90    3.90
  -7 -12  -4  138.59    7.40
  -7 -12  -4  125.29    6.40
  -7 -12  -4  134.69    7.20
   7  12   4  137.29    8.10
   7  12   4  139.69    7.60
   7  12   4  142.29    7.60
   7  12   4  117.19    7.70
  -8 -12  -4   22.40    2.80
  -8 -12  -4   23.80    2.90
  -8 -12  -4   23.50    3.50
  -8 -12  -4   22.60    3.10
   8  12   4   23.70    3.70
   8  12   4   19.10    3.60
   8  12   4   20.40    4.30
   8  12   4   21.50    3.80
  -9 -12  -4    3.80    2.30
  -9 -12  -4    5.20    2.10
  -9 -12  -4    2.00    2.30
  -9 -12  -4    5.00    2.10
   9  12   4    2.30    3.40
   9  12   4    2.10    2.70
   9  12   4    2.00    2.90
 -10 -12  -4   51.79    4.60
 -10 -12  -4   54.49    4.90
 -10 -12  -4   53.09    4.40
  10  12   4   53.29    5.20
  10  12   4   39.70    5.60
  10  12   4   45.50    4.70
  -2 -13  -4   41.60    4.50
  -2 -13  -4   40.90    4.30
  -2 -13  -4   42.70    3.80
   2  13   4   39.00    4.20
   2  13   4   40.20    4.80
  -3 -13  -4    0.80    2.00
  -3 -13  -4    1.80    1.90
  -3 -13  -4    5.40    2.50
   3  13   4   -1.30    2.30
   3  13   4    4.00    3.10
  -4 -13  -4   15.10    3.10
  -4 -13  -4   13.80    2.50
  -4 -13  -4   14.60    3.10
  -4 -13  -4   19.30    3.20
   4  13   4    8.70    3.30
   4  13   4   14.00    3.20
  -5 -13  -4   10.80    2.40
  -5 -13  -4   12.80    2.90
  -5 -13  -4   11.80    2.80
  -5 -13  -4   13.40    3.10
   5  13   4    4.50    3.40
   5  13   4   10.00    3.00
   5  13   4   13.10    3.70
  -6 -13  -4   46.90    4.70
  -6 -13  -4   43.90    4.60
  -6 -13  -4   34.70    3.60
   6  13   4   39.30    4.60
   6  13   4   42.70    4.40
   6  13   4   42.20    5.10
   6  13   4   40.10    4.80
  -7 -13  -4   37.10    3.60
  -7 -13  -4   40.80    4.30
  -7 -13  -4   40.30    4.40
   7  13   4   34.70    4.20
   7  13   4   41.00    5.10
   7  13   4   46.00    5.30
   7  13   4   37.90    4.60
  -8 -13  -4   10.00    2.90
  -8 -13  -4   15.50    3.10
   8  13   4    4.00    3.30
   8  13   4    8.50    3.00
   8  13   4    2.60    3.20
  -6  -9   5    4.70    2.60
   5   9  -5  156.28    7.90
   5   9  -5  150.08   10.10
   5   9  -5  141.59    9.20
  -5  -9   5  156.58    8.60
  -5  -9   5  152.08    7.80
   4   9  -5   63.29    5.30
   4   9  -5   53.39    6.50
   4   9  -5   41.30    5.40
  -4  -9   5   62.49    4.80
  -4  -9   5   67.39    5.30
  -4  -9   5   61.89    5.70
   3   9  -5   40.70    5.00
   3   9  -5   40.10    4.50
   3   9  -5   39.50    6.00
  -3  -9   5   44.40    3.70
  -3  -9   5   48.50    5.00
  -3  -9   5   45.20    4.20
   2   9  -5   16.90    3.40
   2   9  -5   18.70    3.80
   2   9  -5   16.00    4.50
  -2  -9   5   27.00    3.20
  -2  -9   5   17.40    3.20
  -2  -9   5   22.20    3.10
   1   9  -5   42.50    5.70
   1   9  -5   50.49    5.00
  -1  -9   5   49.10    4.20
  -1  -9   5   55.69    4.40
  -1  -9   5   59.59    4.60
  -1  -9   5   51.59    4.90
   0   9  -5   -2.00    3.30
   0   9  -5    1.80    2.90
   0   9  -5    1.10    2.40
   0  -9   5    0.80    2.10
   0  -9   5    0.60    1.80
   0  -9   5   -0.80    1.80
   0  -9   5    0.90    1.90
   7   8  -5   -2.10    3.20
   7   8  -5   -1.20    3.30
  -7  -8   5    0.60    2.20
  -7  -8   5    0.80    2.20
   6   8  -5    4.20    2.40
   6   8  -5    7.00    3.60
   6   8  -5    0.70    3.20
  -6  -8   5    4.00    2.60
  -6  -8   5    5.60    2.30
   5   8  -5    9.20    3.50
   5   8  -5    6.90    3.70
   5   8  -5   11.80    2.80
  -5  -8   5    8.10    3.00
  -5  -8   5   15.50    2.90
   4   8  -5    0.90    2.30
   4   8  -5    0.00    3.20
   4   8  -5    1.70    3.30
  -4  -8   5    1.70    1.50
  -4  -8   5    3.80    1.80
  -4  -8   5    3.20    2.60
   3   8  -5  173.68    9.90
   3   8  -5  183.28   10.10
   3   8  -5  190.58    8.70
  -3  -8   5  177.88    8.30
  -3  -8   5  179.98    7.70
  -3  -8   5  174.58    9.00
   2   8  -5   34.90    3.90
   2   8  -5   30.90    4.80
   2   8  -5   33.50    4.40
   2   8  -5   40.00    3.50
  -2  -8   5   40.70    3.70
  -2  -8   5   44.20    4.20
  -2  -8   5   39.90    3.70
   1   8  -5    5.90    2.80
   1   8  -5    2.60    2.80
   1   8  -5    0.00    3.20
   1   8  -5    0.60    2.20
  -1  -8   5    0.70    1.70
  -1  -8   5    3.60    1.80
  -1  -8   5    1.80    2.10
  -1  -8   5    3.70    1.80
   0   8  -5   34.10    4.20
   0   8  -5   33.00    3.90
   0   8  -5   40.90    4.10
   0   8  -5   33.40    5.10
   0  -8   5   41.30    3.60
   0  -8   5   42.30    3.90
   0  -8   5   39.70    3.80
   0  -8   5   37.10    4.10
  -1   8  -5  240.38   10.10
  -1   8  -5  243.48   12.00
  -1   8  -5  233.38   11.00
   1  -8   5  232.08   10.00
   1  -8   5  256.37   10.50
   1  -8   5  233.58   10.80
   1  -8   5  241.88   10.40
  -2   8  -5   39.60    4.60
  -2   8  -5   49.30    4.60
  -2   8  -5   41.70    5.10
   2  -8   5   40.00    4.10
   2  -8   5   49.80    4.20
   2  -8   5   49.40    4.70
  -3   8  -5   -2.30    2.80
  -3   8  -5    1.50    2.70
  -3   8  -5    0.70    2.60
   3  -8   5    0.40    2.10
   3  -8   5    1.70    2.00
   3  -8   5    0.50    1.90
   8   7  -5    0.60    3.80
   8   7  -5   -6.20    3.00
  -8  -7   5    0.50    2.30
  -8  -7   5    0.60    2.00
   7   7  -5   24.00    4.30
   7   7  -5   20.20    4.40
  -7  -7   5   21.90    3.50
  -7  -7   5   23.50    3.20
   6   7  -5   77.89    5.00
   6   7  -5   75.79    6.80
   6   7  -5   77.79    6.60
  -6  -7   5   76.99    5.80
  -6  -7   5   83.69    5.30
   5   7  -5   82.89    5.20
   5   7  -5   87.19    6.80
   5   7  -5   80.19    6.80
  -5  -7   5   88.79    5.80
  -5  -7   5   90.19    5.20
   4   7  -5   31.80    3.40
   4   7  -5   37.50    4.70
   4   7  -5   33.90    4.60
  -4  -7   5   40.60    4.30
  -4  -7   5   38.80    3.40
  -4  -7   5   39.20    2.80
   3   7  -5  104.49    7.10
   3   7  -5   89.19    7.00
  -3  -7   5  107.99    5.60
  -3  -7   5   95.09    4.90
  -3  -7   5   95.89    6.10
   2   7  -5  171.18    9.10
   2   7  -5  163.58    7.70
   2   7  -5  163.48    8.70
  -2  -7   5  150.48    7.20
  -2  -7   5  159.48    7.90
  -2  -7   5  161.68    7.10
   1   7  -5    1.20    2.60
   1   7  -5   -0.60    2.10
   1   7  -5   -0.90    2.00
   1   7  -5    0.90    2.80
  -1  -7   5    0.70    1.40
  -1  -7   5    1.20    1.50
  -1  -7   5    0.30    1.50
  -1  -7   5    0.70    1.80
   0   7  -5  237.28   11.40
   0   7  -5  235.78   10.60
   0   7  -5  253.17   10.60
   0   7  -5  231.88    9.70
   0  -7   5  235.28    9.80
   0  -7   5  234.88   10.40
   0  -7   5  222.78    9.60
   0  -7   5  248.28    9.80
  -1   7  -5   45.00    4.60
  -1   7  -5   48.90    5.30
  -1   7  -5   49.99    4.30
  -1   7  -5   45.90    4.40
   1  -7   5   46.50    3.70
   1  -7   5   54.19    4.30
   1  -7   5   48.80    4.00
   1  -7   5   46.90    3.80
  -2   7  -5   85.59    6.40
  -2   7  -5   88.79    5.80
  -2   7  -5   80.59    5.90
  -2   7  -5   79.69    6.40
   2  -7   5   83.29    5.70
   2  -7   5   79.39    5.20
   2  -7   5   90.19    5.20
  -3   7  -5   11.10    3.40
  -3   7  -5   12.00    3.10
  -3   7  -5   12.40    3.00
   3  -7   5   16.40    3.10
   3  -7   5   20.50    2.80
   3  -7   5   18.10    2.80
  -4   7  -5   39.30    4.10
  -4   7  -5   37.30    4.20
  -4   7  -5   32.90    4.30
   4  -7   5   27.80    3.50
   4  -7   5   37.30    3.70
   4  -7   5   35.70    4.10
  -5   7  -5  120.79    6.90
   5  -7   5  122.89    6.90
   9   6  -5   37.60    5.50
  -9  -6   5   37.40    4.20
   8   6  -5   20.20    4.40
   8   6  -5   14.20    3.80
  -8  -6   5   22.50    3.30
  -8  -6   5   13.40    3.10
   7   6  -5   64.29    5.90
   7   6  -5   43.90    5.40
  -7  -6   5   60.79    4.90
  -7  -6   5   45.20    4.20
   6   6  -5   30.80    4.10
   6   6  -5   38.80    3.30
   6   6  -5   31.80    4.50
  -6  -6   5   27.40    3.80
  -6  -6   5   30.70    3.50
   5   6  -5   24.50    2.90
   5   6  -5   25.30    4.10
   5   6  -5   30.80    4.20
  -5  -6   5   23.70    3.30
  -5  -6   5   26.00    3.00
   4   6  -5    9.70    3.00
   4   6  -5   10.10    3.10
   4   6  -5    8.90    2.10
  -4  -6   5   12.60    2.70
  -4  -6   5   10.80    2.20
  -4  -6   5    6.80    1.20
   3   6  -5   24.90    3.70
   3   6  -5   22.70    2.80
   3   6  -5   21.20    3.60
  -3  -6   5   24.90    2.30
  -3  -6   5   23.40    2.60
  -3  -6   5   28.30    3.50
   2   6  -5   41.50    4.60
   2   6  -5   45.50    4.80
   2   6  -5   42.20    3.90
  -2  -6   5   40.50    3.10
  -2  -6   5   44.20    4.00
  -2  -6   5   44.40    3.10
   1   6  -5   24.50    3.00
   1   6  -5   20.80    3.60
   1   6  -5   22.40    3.40
  -1  -6   5   23.00    2.50
  -1  -6   5   27.60    2.70
  -1  -6   5   22.00    2.90
  -1  -6   5   25.90    2.60
   0   6  -5  113.69    6.40
   0   6  -5  125.59    7.20
   0   6  -5  114.69    6.70
   0  -6   5  120.19    6.40
   0  -6   5  120.69    5.80
   0  -6   5  116.99    5.80
   0  -6   5  113.89    5.60
  -1   6  -5    3.60    2.70
  -1   6  -5    4.70    2.50
  -1   6  -5    9.50    2.50
   1  -6   5    4.60    1.70
   1  -6   5    8.60    2.30
   1  -6   5    4.60    1.70
   1  -6   5    7.40    1.80
  -2   6  -5  104.99    5.90
  -2   6  -5  109.89    7.10
  -2   6  -5  118.89    6.40
   2  -6   5  110.89    5.80
   2  -6   5  110.09    6.30
   2  -6   5  118.19    5.90
  -3   6  -5   33.20    3.70
  -3   6  -5   42.90    4.20
  -3   6  -5   28.20    3.90
   3  -6   5   40.90    3.50
   3  -6   5   37.90    3.50
   3  -6   5   31.40    3.50
  -4   6  -5  186.28    9.00
  -4   6  -5  172.88    8.40
  -4   6  -5  172.28    8.70
   4  -6   5  175.08    8.10
   4  -6   5  174.88    8.40
   4  -6   5  171.28    8.60
  -5   6  -5   49.90    4.80
  -5   6  -5   58.19    5.00
  -5   6  -5   52.79    4.60
   5  -6   5   49.30    4.90
   5  -6   5   52.89    4.40
   5  -6   5   53.89    4.40
  -6   6  -5   40.70    4.30
  -6   6  -5   46.90    4.50
   6  -6   5   43.00    4.70
   6  -6   5   43.00    4.40
   6  -6   5   36.50    3.80
   9   5  -5   26.40    5.00
  -9  -5   5   26.30    3.60
   8   5  -5   24.60    3.80
   8   5  -5   18.90    4.20
  -8  -5   5   25.80    3.80
  -8  -5   5   25.70    3.30
   7   5  -5   21.40    4.00
   7   5  -5   22.30    3.30
  -7  -5   5   18.50    3.20
  -7  -5   5   20.20    2.90
   6   5  -5   32.20    4.60
   6   5  -5   46.20    3.30
   6   5  -5   44.80    4.80
  -6  -5   5   38.90    3.90
  -6  -5   5   41.80    3.50
   5   5  -5   85.09    5.90
   5   5  -5   84.39    6.40
   5   5  -5   96.69    4.70
  -5  -5   5   95.39    5.00
  -5  -5   5   83.89    5.40
   4   5  -5   65.29    3.90
   4   5  -5   56.89    4.80
   4   5  -5   56.39    5.30
  -4  -5   5   62.39    2.60
  -4  -5   5   57.69    4.30
  -4  -5   5   64.09    4.00
   3   5  -5  186.38    7.80
   3   5  -5  173.98    8.80
   3   5  -5  182.58    9.20
  -3  -5   5  198.28    7.00
  -3  -5   5  182.88    8.40
  -3  -5   5  184.78    7.70
   2   5  -5   38.80    4.20
   2   5  -5   42.10    3.30
   2   5  -5   40.20    4.40
  -2  -5   5   40.90    3.60
  -2  -5   5   45.90    3.00
  -2  -5   5   47.50    2.80
   1   5  -5    0.70    1.70
   1   5  -5   -1.30    2.20
  -1  -5   5   -1.00    1.10
  -1  -5   5    1.80    1.70
  -1  -5   5   -0.30    1.20
   0   5  -5   48.50    4.40
   0   5  -5   42.30    3.60
   0  -5   5   49.50    3.40
   0  -5   5   50.89    3.20
   0  -5   5   48.80    3.60
   0  -5   5   50.49    4.00
   0  -5   5   51.19    3.30
  -1   5  -5   94.29    5.20
  -1   5  -5   92.99    5.90
   1  -5   5   91.89    4.70
   1  -5   5  100.59    5.50
   1  -5   5   94.39    4.60
   1  -5   5   98.79    4.90
   1  -5   5   81.29    4.70
  -2   5  -5    0.50    2.40
  -2   5  -5    1.40    2.10
   2  -5   5    3.90    1.50
   2  -5   5    3.60    1.40
   2  -5   5    4.10    1.80
   2  -5   5    4.70    1.80
  -3   5  -5  101.59    5.90
  -3   5  -5  118.89    6.80
  -3   5  -5  113.19    5.90
   3  -5   5  109.59    5.10
   3  -5   5  111.99    5.60
   3  -5   5  118.89    6.00
   3  -5   5  118.79    6.10
  -4   5  -5   63.89    5.10
  -4   5  -5   65.89    4.70
  -4   5  -5   64.99    4.70
   4  -5   5   68.99    4.50
   4  -5   5   71.59    4.40
   4  -5   5   66.59    4.90
  -5   5  -5   -2.00    2.30
  -5   5  -5    1.00    2.20
  -5   5  -5   -1.10    2.30
   5  -5   5   -0.10    1.60
   5  -5   5   -1.20    2.10
   5  -5   5    0.10    1.60
  -6   5  -5  163.58    8.30
  -6   5  -5  160.68    7.80
   6  -5   5  144.39    8.10
   6  -5   5  158.68    8.00
   6  -5   5  153.48    7.70
  -7   5  -5    0.30    2.50
  -7   5  -5   -0.80    2.40
   7  -5   5   -0.10    2.00
   7  -5   5   -3.70    1.90
  10   4  -5    0.10    3.40
 -10  -4   5    0.30    2.20
 -10  -4   5   -1.00    2.40
   9   4  -5   16.30    4.20
  -9  -4   5   18.50    3.20
  -9  -4   5   17.30    2.70
   8   4  -5  112.29    7.80
   8   4  -5  111.99    6.60
  -8  -4   5  123.99    5.80
  -8  -4   5  120.29    6.60
   7   4  -5   24.70    4.00
   7   4  -5   22.40    3.10
  -7  -4   5   32.30    2.60
  -7  -4   5   28.40    3.20
  -7  -4   5   28.60    3.50
   6   4  -5  117.29    6.60
   6   4  -5  114.39    7.40
  -6  -4   5  125.29    5.20
  -6  -4   5  117.29    6.10
  -6  -4   5  122.49    6.60
   5   4  -5  130.99    5.70
   5   4  -5  138.29    7.80
   5   4  -5  138.09    7.30
  -5  -4   5  130.99    6.80
  -5  -4   5  135.19    5.20
  -5  -4   5  131.29    6.20
   4   4  -5    7.60    1.60
   4   4  -5    5.40    2.60
   4   4  -5    6.00    2.30
  -4  -4   5    8.30    1.80
  -4  -4   5    5.00    1.90
   3   4  -5  110.29    6.40
   3   4  -5  118.69    6.90
   3   4  -5  125.79    5.50
  -3  -4   5  123.49    4.50
  -3  -4   5  130.49    5.50
  -3  -4   5  117.89    4.50
  -3  -4   5  114.89    6.00
   2   4  -5    3.80    2.30
   2   4  -5    4.70    1.60
  -2  -4   5    5.60    1.00
  -2  -4   5    4.30    1.40
  -2  -4   5    4.70    1.20
  -2  -4   5    4.70    1.70
   1   4  -5  197.88    7.60
   1   4  -5  174.68    8.40
  -1  -4   5  185.78    8.00
  -1  -4   5  175.48    8.00
  -1  -4   5  196.98    7.30
  -1  -4   5  182.58    7.20
   0   4  -5  107.19    6.10
   0   4  -5  110.49    5.50
   0  -4   5  125.29    5.70
   0  -4   5  118.89    5.00
   0  -4   5  117.29    5.10
   0  -4   5  106.69    5.70
   0  -4   5  118.89    5.20
  -1   4  -5   65.29    4.20
  -1   4  -5   71.39    4.80
   1  -4   5   67.19    4.20
   1  -4   5   64.49    3.60
   1  -4   5   62.29    2.40
   1  -4   5   67.19    3.90
   1  -4   5   65.19    2.40
   1  -4   5   60.09    3.50
   1  -4   5   60.19    3.40
  -2   4  -5  861.31   28.30
  -2   4  -5  851.61   29.90
  -2   4  -5  884.01   30.50
   2  -4   5  916.11   29.80
   2  -4   5  864.61   29.80
   2  -4   5  903.01   30.30
   2  -4   5  903.01   29.60
  -3   4  -5   10.90    2.30
  -3   4  -5    9.70    2.40
  -3   4  -5   13.60    1.40
   3  -4   5   11.90    2.00
   3  -4   5   11.30    2.30
   3  -4   5   14.60    2.00
   3  -4   5   14.80    2.00
  -4   4  -5  361.26   13.60
  -4   4  -5  367.36   12.60
  -4   4  -5  353.36   13.90
  -4   4  -5  381.46   13.90
   4  -4   5  357.66   14.00
   4  -4   5  351.76   13.00
   4  -4   5  366.06   13.70
   4  -4   5  361.76   13.30
  -5   4  -5  145.89    7.30
  -5   4  -5  158.88    7.60
  -5   4  -5  160.48    6.50
  -5   4  -5  164.58    7.70
   5  -4   5  159.28    7.40
   5  -4   5  169.78    7.40
  -6   4  -5   92.69    5.80
  -6   4  -5   88.49    5.20
  -6   4  -5  100.89    5.90
  -6   4  -5   89.39    4.70
   6  -4   5   89.39    5.40
   6  -4   5   95.99    5.60
  -7   4  -5    0.90    2.30
  -7   4  -5   -0.60    2.40
   7  -4   5   -2.10    1.80
   7  -4   5    0.30    1.80
  -8   4  -5   10.60    3.00
  -8   4  -5   12.80    3.10
   8  -4   5    8.90    2.60
   8  -4   5   17.20    3.20
  10   3  -5   13.50    3.90
 -10  -3   5   17.60    3.20
 -10  -3   5   16.30    3.30
   9   3  -5    2.60    2.90
  -9  -3   5    5.40    2.30
  -9  -3   5   12.60    2.80
   8   3  -5   80.69    6.40
   8   3  -5   80.69    5.30
  -8  -3   5   83.79    4.90
  -8  -3   5   90.19    5.70
   7   3  -5  116.19    6.30
   7   3  -5  109.89    7.20
  -7  -3   5  108.79    6.20
  -7  -3   5  117.79    5.50
  -7  -3   5  115.69    6.00
   6   3  -5  513.75   18.80
   6   3  -5  488.45   19.60
  -6  -3   5  521.95   17.70
  -6  -3   5  520.95   18.80
  -6  -3   5  510.25   18.30
   5   3  -5    7.90    2.70
   5   3  -5    6.70    2.30
   5   3  -5   10.00    1.40
  -5  -3   5    6.80    2.00
  -5  -3   5   10.40    1.50
  -5  -3   5    9.50    1.90
   4   3  -5  128.59    4.90
   4   3  -5  130.79    5.20
   4   3  -5  126.79    4.70
   4   3  -5  119.39    7.00
   4   3  -5  107.39    6.30
  -4  -3   5  129.89    5.60
  -4  -3   5  127.69    6.20
   3   3  -5  196.08    7.20
   3   3  -5  184.28    6.10
   3   3  -5  180.18    6.10
   3   3  -5  189.38    6.50
   3   3  -5  187.08    8.40
  -3  -3   5  193.98    8.00
  -3  -3   5  182.98    7.30
   2   3  -5   11.00    0.80
   2   3  -5   14.90    1.70
   2   3  -5    9.80    2.30
  -2  -3   5   10.10    1.50
  -2  -3   5   11.10    1.00
  -2  -3   5   12.30    1.20
  -2  -3   5    7.80    2.00
  -2  -3   5   11.20    1.90
   1   3  -5   45.40    4.00
   1   3  -5   48.30    3.00
  -1  -3   5   48.20    2.70
  -1  -3   5   45.70    2.40
  -1  -3   5   46.10    3.40
  -1  -3   5   47.20    2.60
  -1  -3   5   50.69    3.60
   0   3  -5  126.49    6.20
   0   3  -5  119.29    5.30
   0  -3   5  120.09    5.80
   0  -3   5  122.39    5.80
   0  -3   5  129.49    5.10
   0  -3   5  127.19    5.20
   0  -3   5  116.49    4.90
  -1   3  -5  481.75   16.80
  -1   3  -5  489.75   17.50
   1  -3   5  484.45   17.00
   1  -3   5  456.15   16.60
   1  -3   5  479.15   15.50
   1  -3   5  488.55   16.40
   1  -3   5  476.25   17.10
   1  -3   5  486.35   16.30
  -2   3  -5  134.69    6.20
  -2   3  -5  147.99    6.70
  -2   3  -5  138.09    5.00
   2  -3   5  142.09    5.80
   2  -3   5  134.29    6.40
   2  -3   5  140.19    5.20
   2  -3   5  144.09    6.10
   2  -3   5  144.79    6.20
  -3   3  -5  126.49    6.00
  -3   3  -5  134.59    6.30
  -3   3  -5  125.49    4.90
   3  -3   5  127.99    5.50
   3  -3   5  115.79    6.00
   3  -3   5  134.89    5.80
   3  -3   5  127.49    5.80
  -4   3  -5  163.68    7.40
  -4   3  -5  165.68    7.50
  -4   3  -5  166.58    6.40
   4  -3   5  169.78    6.90
   4  -3   5  166.28    7.00
   4  -3   5  170.38    7.30
  -5   3  -5   12.30    1.90
  -5   3  -5    9.30    2.30
  -5   3  -5   12.40    2.30
  -5   3  -5    8.20    2.10
   5  -3   5   17.30    2.00
   5  -3   5   11.40    1.90
   5  -3   5   11.30    2.10
  -6   3  -5   -1.10    2.00
  -6   3  -5   -1.70    1.40
  -6   3  -5    0.30    1.70
  -6   3  -5   -0.90    1.90
   6  -3   5   -1.50    1.50
   6  -3   5   -1.90    1.40
  -7   3  -5    9.60    2.50
  -7   3  -5    7.60    2.60
  -7   3  -5    6.60    2.20
   7  -3   5    8.10    2.20
   7  -3   5    9.50    2.30
  -8   3  -5    3.80    2.30
  -8   3  -5    2.00    2.40
  -8   3  -5    4.70    2.50
   8  -3   5    3.00    2.10
   8  -3   5    0.20    1.90
  -9   3  -5    7.40    2.80
  -9   3  -5    5.40    2.40
  -9   3  -5    7.40    2.70
   9  -3   5    6.50    2.30
   9  -3   5    2.60    2.30
  10   2  -5    0.10    2.80
 -10  -2   5    1.50    2.10
 -10  -2   5   -1.70    2.60
   9   2  -5   15.20    3.60
  -9  -2   5   14.60    3.00
  -9  -2   5   13.90    2.80
   8   2  -5    3.90    1.90
   8   2  -5    1.10    2.50
  -8  -2   5    4.00    2.10
  -8  -2   5    8.60    2.40
   7   2  -5    7.50    2.00
   7   2  -5    9.60    2.80
  -7  -2   5   13.10    2.30
  -7  -2   5   10.90    2.40
   6   2  -5   89.09    6.00
   6   2  -5   86.99    5.10
  -6  -2   5   90.79    4.60
  -6  -2   5   90.49    5.10
  -6  -2   5   79.39    5.00
   5   2  -5   -3.30    2.00
   5   2  -5    2.40    1.80
   5   2  -5    1.30    0.80
  -5  -2   5   -0.60    1.10
  -5  -2   5    0.30    1.30
  -5  -2   5    1.70    1.60
   4   2  -5  558.14   21.10
   4   2  -5  584.74   20.50
   4   2  -5  579.44   19.00
  -4  -2   5  582.14   19.80
  -4  -2   5  553.24   20.10
  -4  -2   5  582.04   19.30
   3   2  -5    7.30    0.90
   3   2  -5    6.30    2.00
   3   2  -5    6.90    1.10
   3   2  -5    6.70    1.00
  -3  -2   5    7.20    1.80
  -3  -2   5    8.40    1.40
  -3  -2   5    4.40    1.80
   2   2  -5  428.36   14.20
   2   2  -5  437.66   14.60
   2   2  -5  400.56   13.90
   2   2  -5  446.86   15.90
  -2  -2   5  448.26   13.90
  -2  -2   5  454.55   14.80
  -2  -2   5  415.36   15.30
  -2  -2   5  414.56   15.60
   1   2  -5    1.70    0.50
   1   2  -5    2.50    1.00
   1   2  -5    0.20    1.50
   1   2  -5    2.10    0.80
  -1  -2   5    1.90    1.40
  -1  -2   5    3.10    0.80
  -1  -2   5    2.10    0.70
  -1  -2   5    2.20    1.30
  -1  -2   5    1.90    0.80
   0   2  -5  153.08    6.00
   0   2  -5  147.09    5.70
   0   2  -5  143.49    6.70
   0   2  -5  148.49    5.00
   0  -2   5  149.88    5.70
   0  -2   5  160.28    5.80
   0  -2   5  154.08    5.60
   0  -2   5  147.59    6.40
   0  -2   5  148.89    6.50
  -1   2  -5  247.88    8.20
  -1   2  -5  239.58    8.70
  -1   2  -5  245.78    9.20
  -1   2  -5  251.17    9.90
   1  -2   5  242.18    9.00
   1  -2   5  238.08    9.50
   1  -2   5  254.07    8.30
   1  -2   5  251.77    8.60
   1  -2   5  254.97    8.70
   1  -2   5  255.37    9.60
  -2   2  -5  159.48    5.50
  -2   2  -5  149.59    5.80
  -2   2  -5  141.99    6.70
  -2   2  -5  156.58    6.50
   2  -2   5  157.98    6.30
   2  -2   5  161.48    6.70
   2  -2   5  149.39    6.50
   2  -2   5  160.28    5.90
   2  -2   5  153.28    5.50
  -3   2  -5  407.76   14.80
  -3   2  -5  417.36   13.90
  -3   2  -5  436.86   15.10
   3  -2   5  415.66   14.00
   3  -2   5  401.86   15.00
   3  -2   5  383.26   14.50
   3  -2   5  422.66   14.30
   3  -2   5  428.46   14.70
  -4   2  -5    4.70    1.90
  -4   2  -5    1.40    1.50
  -4   2  -5    3.40    1.20
   4  -2   5    1.60    1.30
   4  -2   5    2.10    1.20
   4  -2   5    2.60    1.30
  -5   2  -5  133.69    6.20
  -5   2  -5  133.09    5.60
  -5   2  -5  132.69    6.00
   5  -2   5  130.49    5.80
   5  -2   5  136.59    5.80
   5  -2   5  124.09    6.10
  -6   2  -5    3.90    2.10
  -6   2  -5    6.40    2.20
  -6   2  -5    6.50    1.80
  -6   2  -5    2.90    1.50
   6  -2   5    5.90    1.70
   6  -2   5    5.80    1.60
   6  -2   5    4.80    1.70
  -7   2  -5  222.58    9.80
  -7   2  -5  236.18    9.50
  -7   2  -5  240.38    9.90
   7  -2   5  245.98   10.20
   7  -2   5  236.48    9.90
   7  -2   5  249.48    9.90
  -8   2  -5   95.59    5.60
  -8   2  -5  100.29    5.60
  -8   2  -5  103.09    5.90
   8  -2   5   93.79    5.60
   8  -2   5  101.79    5.70
  -9   2  -5   20.30    3.10
  -9   2  -5   17.80    3.10
  -9   2  -5   19.80    3.20
   9  -2   5   19.50    3.00
   9  -2   5   20.60    3.20
 -10   2  -5    2.10    2.40
 -10   2  -5    0.50    2.10
 -10   2  -5    1.20    2.60
  10  -2   5    1.20    1.90
  10  -2   5   -1.80    2.20
  10   1  -5   36.40    4.10
 -10  -1   5   20.10    3.40
   9   1  -5    1.10    2.50
  -9  -1   5    0.10    2.30
  -9  -1   5    3.00    2.50
   8   1  -5   43.20    4.50
  -8  -1   5   45.80    4.40
  -8  -1   5   39.10    3.80
   7   1  -5   16.70    2.90
   7   1  -5   13.60    2.20
  -7  -1   5   18.20    2.60
  -7  -1   5   14.90    2.50
   6   1  -5    6.40    2.30
   6   1  -5    5.30    1.70
  -6  -1   5    9.80    1.90
  -6  -1   5   10.40    2.10
   5   1  -5   12.70    1.20
   5   1  -5   10.70    2.00
   5   1  -5   13.90    2.90
  -5  -1   5   13.70    2.10
  -5  -1   5   13.50    2.00
  -5  -1   5   14.20    2.30
   4   1  -5  191.38    6.50
   4   1  -5  189.98    8.60
   4   1  -5  186.18    6.40
   4   1  -5  189.98    8.00
  -4  -1   5  182.38    7.20
  -4  -1   5  178.08    7.70
  -4  -1   5  189.28    7.50
   3   1  -5  374.16   12.70
   3   1  -5  380.66   12.70
   3   1  -5  403.86   14.40
   3   1  -5  357.06   13.00
  -3  -1   5  390.06   14.30
  -3  -1   5  375.96   13.80
  -3  -1   5  411.06   13.50
   2   1  -5   71.19    3.00
   2   1  -5   73.19    4.30
   2   1  -5   82.59    3.10
   2   1  -5   71.19    3.00
   2   1  -5   73.39    3.10
  -2  -1   5   73.29    3.40
  -2  -1   5   70.89    4.20
  -2  -1   5   73.79    3.90
   1   1  -5   13.90    1.00
   1   1  -5   13.70    1.20
   1   1  -5   10.70    1.10
   1   1  -5   13.30    1.30
   1   1  -5   13.10    2.10
   1   1  -5   12.70    1.20
  -1  -1   5   14.40    1.40
  -1  -1   5   13.00    1.70
  -1  -1   5   12.00    0.90
  -1  -1   5   16.00    1.00
  -1  -1   5   14.30    2.10
   0   1  -5  355.16   11.60
   0   1  -5  311.67   11.00
   0   1  -5  337.97   11.10
   0   1  -5  350.86   11.20
   0   1  -5  339.87   12.50
   0  -1   5  336.57   11.00
   0  -1   5  337.67   11.40
   0  -1   5  326.37   12.20
   0  -1   5  340.97   11.30
   0  -1   5  319.17   12.00
  -1   1  -5  279.67   10.60
  -1   1  -5  255.87    9.30
  -1   1  -5  284.27    9.90
   1  -1   5  283.07    9.30
   1  -1   5  287.07   10.40
   1  -1   5  280.47    9.70
   1  -1   5  262.97    9.70
   1  -1   5  274.97   10.20
   1  -1   5  292.67    9.30
   1  -1   5  274.77    9.30
  -2   1  -5  412.66   14.50
  -2   1  -5  432.06   15.10
  -2   1  -5  425.66   15.60
  -2   1  -5  444.66   14.50
   2  -1   5  445.76   15.00
   2  -1   5  463.45   14.50
   2  -1   5  435.66   14.50
   2  -1   5  413.26   15.30
   2  -1   5  464.25   15.40
  -3   1  -5 1263.47   38.10
  -3   1  -5 1140.29   38.10
  -3   1  -5 1183.48   38.70
  -3   1  -5 1208.08   39.00
   3  -1   5 1221.08   38.80
   3  -1   5 1201.08   38.60
   3  -1   5 1144.69   38.10
   3  -1   5 1058.49   38.10
  -4   1  -5    1.70    1.10
  -4   1  -5    0.70    1.00
  -4   1  -5    1.30    1.30
  -4   1  -5    0.80    1.40
   4  -1   5    0.90    1.20
   4  -1   5    0.90    0.70
   4  -1   5    0.90    1.20
   4  -1   5    0.80    0.90
  -5   1  -5   61.79    3.40
  -5   1  -5   56.49    3.40
  -5   1  -5   57.59    3.70
  -5   1  -5   55.79    2.80
   5  -1   5   53.39    3.40
   5  -1   5   63.09    3.60
   5  -1   5   57.39    3.30
  -6   1  -5   13.20    2.20
  -6   1  -5   15.20    2.30
  -6   1  -5   14.10    1.80
  -6   1  -5   17.60    2.30
   6  -1   5   18.10    2.40
   6  -1   5   20.60    2.30
   6  -1   5   16.60    2.00
  -7   1  -5  186.78    8.30
  -7   1  -5  211.68    8.30
  -7   1  -5  199.18    8.50
  -7   1  -5  190.98    7.40
   7  -1   5  188.68    8.00
   7  -1   5  202.58    8.40
   7  -1   5  204.68    8.30
  -8   1  -5   40.50    3.80
  -8   1  -5   38.10    3.70
  -8   1  -5   37.50    3.60
   8  -1   5   38.80    3.70
   8  -1   5   34.60    3.20
   8  -1   5   38.20    3.50
  -9   1  -5    9.70    2.50
  -9   1  -5    7.60    2.40
  -9   1  -5    7.40    2.50
   9  -1   5   10.70    2.50
   9  -1   5    9.70    2.50
 -10   1  -5  120.99    6.30
 -10   1  -5  110.69    6.30
 -10   1  -5  117.69    6.90
  10  -1   5  118.49    6.80
  10  -1   5  120.09    6.70
 -10   0   5   56.99    5.10
   9   0  -5  264.97   13.30
   9   0  -5  286.07   12.30
  -9   0   5  282.57   11.90
  -9   0   5  292.57   11.00
   8   0  -5   38.90    4.20
   8   0  -5   46.10    4.20
  -8   0   5   38.70    3.30
  -8   0   5   47.80    4.30
   7   0  -5    6.60    1.70
   7   0  -5    7.30    2.30
  -7   0   5    5.70    2.10
  -7   0   5    7.80    2.40
  -7   0   5    5.90    1.70
   6   0  -5  185.68    8.90
   6   0  -5  188.78    8.40
  -6   0   5  211.38    7.90
  -6   0   5  208.78    8.60
  -6   0   5  201.88    8.30
   5   0  -5   10.80    1.90
   5   0  -5    8.80    2.20
   5   0  -5   12.60    0.80
  -5   0   5   12.50    2.10
  -5   0   5   13.30    2.10
   4   0  -5   26.70    2.80
   4   0  -5   33.50    1.20
   4   0  -5   27.90    3.10
   4   0  -5   29.90    1.20
  -4   0   5   35.50    2.70
  -4   0   5   29.90    2.50
  -4   0   5   31.90    2.90
   3   0  -5   11.70    2.00
   3   0  -5   17.40    0.90
   3   0  -5   15.70    0.90
   3   0  -5   16.90    1.60
  -3   0   5   15.20    2.00
  -3   0   5   17.70    2.40
  -3   0   5   19.80    1.90
   2   0  -5  145.59    5.30
   2   0  -5  142.19    6.60
   2   0  -5  157.08    5.30
   2   0  -5  165.68    5.70
  -2   0   5  139.29    6.10
  -2   0   5  152.68    6.60
  -2   0   5  161.68    5.90
   1   0  -5    2.70    0.80
   1   0  -5    2.70    0.80
   1   0  -5    2.90    1.50
   1   0  -5    2.60    0.70
   1   0  -5    4.10    0.90
   1   0  -5    5.10    0.80
  -1   0   5    3.10    1.20
  -1   0   5    2.40    1.40
  -1   0   5    3.80    0.90
   0   0  -5    1.60    0.60
   0   0  -5    2.20    0.60
   0   0  -5    1.60    1.40
   0   0  -5    2.30    0.70
   0   0  -5    2.90    0.90
   0   0  -5    1.70    0.50
   0   0   5    1.90    0.70
   0   0   5    1.90    0.60
   0   0   5    2.30    0.70
   0   0   5    1.10    0.60
   0   0   5    3.90    1.50
   0   0   5    2.00    1.00
  -1   0  -5   -0.90    1.20
  -1   0  -5    0.80    0.40
  -1   0  -5    1.60    0.90
  -1   0  -5    1.10    0.70
   1   0   5    0.70    1.10
   1   0   5    1.10    0.70
   1   0   5    0.30    1.00
   1   0   5    0.30    0.60
   1   0   5   -0.30    0.40
   1   0   5    0.40    0.80
  -2   0  -5   38.60    2.00
  -2   0  -5   36.10    2.70
  -2   0  -5   32.30    2.20
  -2   0  -5   38.30    2.80
   2   0   5   32.10    2.50
   2   0   5   34.90    2.10
   2   0   5   32.70    2.00
   2   0   5   31.00    2.40
   2   0   5   34.30    1.50
   2   0   5   34.90    1.80
   2   0   5   34.70    1.40
  -3   0  -5   60.69    3.10
  -3   0  -5   73.89    3.90
  -3   0  -5   78.59    3.20
  -3   0  -5   71.09    3.60
   3   0   5   74.89    3.70
   3   0   5   68.49    2.60
   3   0   5   63.09    3.40
   3   0   5   67.79    3.00
   3   0   5   70.69    2.90
  -4   0  -5    3.00    1.00
  -4   0  -5    3.00    1.30
  -4   0  -5    3.90    0.90
  -4   0  -5    1.80    1.20
   4   0   5    3.30    0.70
   4   0   5    4.00    1.20
   4   0   5    3.80    0.90
   4   0   5    5.10    1.40
  -5   0  -5   15.20    1.90
  -5   0  -5   14.70    1.30
  -5   0  -5   13.10    1.90
  -5   0  -5   13.10    1.60
   5   0   5   16.10    2.00
   5   0   5   16.80    2.10
   5   0   5   15.20    1.60
   5   0   5   14.50    1.30
  -6   0  -5  191.78    7.20
  -6   0  -5  201.48    7.60
  -6   0  -5  185.98    6.60
  -6   0  -5  187.08    7.80
   6   0   5  189.18    7.50
   6   0   5  193.08    7.80
   6   0   5  196.18    7.90
  -7   0  -5  205.58    7.90
  -7   0  -5  223.48    8.90
  -7   0  -5  226.48    8.90
  -7   0  -5  221.58    8.80
   7   0   5  234.68    8.90
   7   0   5  216.98    9.00
   7   0   5  221.28    8.90
  -8   0  -5    6.20    2.20
  -8   0  -5    7.50    2.20
  -8   0  -5    9.70    2.30
   8   0   5    6.90    1.90
   8   0   5    7.90    2.10
   8   0   5    7.20    2.00
  -9   0  -5   28.60    3.20
  -9   0  -5   29.70    3.20
  -9   0  -5   33.10    3.50
   9   0   5   29.60    3.30
   9   0   5   33.50    3.50
   9   0   5   30.70    3.20
 -10   0  -5   20.00    3.00
 -10   0  -5   21.30    2.90
 -10   0  -5   15.50    3.00
  10   0   5   16.10    2.90
  10   0   5   14.90    2.60
 -11   0  -5   26.10    3.40
 -11   0  -5   29.00    3.30
 -11   0  -5   32.90    4.00
  11   0   5   25.20    3.50
  11   0   5   28.70    3.40
   9  -1  -5    5.90    2.70
  -9   1   5    4.60    1.90
  -9   1   5    5.00    2.70
   8  -1  -5   15.80    2.90
   8  -1  -5   17.20    2.80
  -8   1   5   19.30    2.60
  -8   1   5   17.70    3.10
   7  -1  -5   21.20    3.10
   7  -1  -5   20.10    2.70
   7  -1  -5   18.60    2.50
  -7   1   5   19.00    2.80
  -7   1   5   21.80    2.50
   6  -1  -5    2.60    1.70
   6  -1  -5    2.60    1.70
   6  -1  -5    2.70    1.50
  -6   1   5    2.00    1.60
  -6   1   5    6.20    2.00
   5  -1  -5  228.08    9.70
   5  -1  -5  240.48    9.90
   5  -1  -5  258.57    8.00
   5  -1  -5  237.08    9.70
  -5   1   5  251.57    9.20
  -5   1   5  236.58    9.50
   4  -1  -5   80.49    4.60
  -4   1   5   78.99    4.20
  -4   1   5   80.29    3.90
  -4   1   5   78.79    4.20
  -4   1   5   86.99    4.30
   3  -1  -5   66.09    3.50
  -3   1   5   69.49    3.50
  -3   1   5   65.69    3.80
  -3   1   5   71.59    4.10
  -3   1   5   68.59    3.70
   2  -1  -5  163.58    5.30
   2  -1  -5  160.68    6.10
   2  -1  -5  158.08    5.20
  -2   1   5  157.48    6.70
  -2   1   5  155.48    6.40
  -2   1   5  162.18    6.10
  -2   1   5  150.88    6.20
   1  -1  -5  244.48    8.60
   1  -1  -5  240.88    8.60
   1  -1  -5  251.17    8.20
   1  -1  -5  255.17    8.20
   1  -1  -5  248.88    8.50
  -1   1   5  240.98    8.80
  -1   1   5  244.18    8.50
  -1   1   5  244.58    9.10
  -1   1   5  235.38    9.30
   0  -1  -5   41.90    1.90
   0  -1  -5   41.70    1.80
   0  -1  -5   38.70    2.10
   0  -1  -5   40.40    2.30
   0   1   5   38.00    1.60
   0   1   5   41.20    2.90
   0   1   5   41.30    2.20
   0   1   5   43.10    1.70
   0   1   5   41.60    2.40
   0   1   5   40.00    2.60
   0   1   5   43.50    1.90
  -1  -1  -5  113.99    4.40
  -1  -1  -5  117.29    4.30
  -1  -1  -5  115.29    4.30
  -1  -1  -5  109.89    3.80
   1   1   5  122.79    4.30
   1   1   5  111.99    4.30
   1   1   5  109.99    5.00
   1   1   5  111.39    4.80
   1   1   5  106.69    4.60
   1   1   5  110.79    4.20
  -2  -1  -5  141.19    5.60
  -2  -1  -5  141.49    5.60
  -2  -1  -5  140.59    5.40
   2   1   5  148.39    6.00
   2   1   5  154.08    5.40
   2   1   5  140.99    5.70
   2   1   5  149.79    5.50
   2   1   5  147.59    5.50
  -3  -1  -5   56.79    2.70
  -3  -1  -5   53.89    2.90
  -3  -1  -5   53.99    2.60
  -3  -1  -5   51.99    3.20
   3   1   5   54.79    3.20
   3   1   5   53.79    2.80
   3   1   5   53.89    2.60
   3   1   5   55.99    1.90
   3   1   5   52.19    2.10
  -4  -1  -5  454.85   15.40
  -4  -1  -5  452.35   15.10
  -4  -1  -5  454.25   15.40
  -4  -1  -5  447.66   14.80
  -4  -1  -5  445.56   15.10
   4   1   5  448.46   14.50
   4   1   5  426.16   15.50
   4   1   5  442.36   14.80
   4   1   5  429.16   15.20
  -5  -1  -5   79.69    3.70
  -5  -1  -5   73.49    3.70
  -5  -1  -5   70.89    3.90
  -5  -1  -5   74.99    3.10
   5   1   5   87.19    4.20
   5   1   5   73.39    3.10
   5   1   5   73.09    3.90
   5   1   5   84.79    3.50
  -6  -1  -5  273.77   10.30
  -6  -1  -5  267.37    9.00
  -6  -1  -5  285.47    9.70
  -6  -1  -5  275.37   10.10
   6   1   5  274.17   10.40
   6   1   5  274.77   10.00
   6   1   5  260.27   10.20
  -7  -1  -5   -0.40    1.40
  -7  -1  -5    0.80    0.70
  -7  -1  -5    1.60    1.60
   7   1   5    0.10    1.70
   7   1   5    0.20    1.20
   7   1   5    1.00    1.40
  -8  -1  -5  166.88    7.00
  -8  -1  -5  169.78    7.20
  -8  -1  -5  160.18    7.00
   8   1   5  153.78    7.20
   8   1   5  156.18    7.10
   8   1   5  159.38    7.20
   8   1   5  159.78    7.30
  -9  -1  -5    6.40    2.10
  -9  -1  -5    5.90    2.30
  -9  -1  -5    7.70    2.10
   9   1   5   10.00    2.20
   9   1   5    8.20    2.00
   9   1   5    7.10    2.30
 -10  -1  -5    9.20    2.20
 -10  -1  -5    7.00    2.70
 -10  -1  -5    7.40    2.20
  10   1   5    7.30    2.20
  10   1   5    6.80    2.40
  10   1   5    6.90    2.00
 -11  -1  -5    7.10    2.30
 -11  -1  -5   12.90    2.70
 -11  -1  -5   10.00    2.90
  11   1   5   12.30    2.80
  11   1   5   13.10    2.70
   9  -2  -5   25.30    3.70
  -9   2   5   25.70    3.20
  -9   2   5   21.50    3.70
   8  -2  -5   51.99    4.60
  -8   2   5   51.89    4.60
  -8   2   5   49.30    3.80
   7  -2  -5  130.29    6.80
   7  -2  -5  137.09    6.40
   7  -2  -5  118.69    6.10
  -7   2   5  138.59    6.20
  -7   2   5  131.09    6.80
   6  -2  -5  311.37   12.00
   6  -2  -5  285.87   11.40
  -6   2   5  296.77   11.30
  -6   2   5  309.97   11.30
  -6   2   5  287.57   11.70
   5  -2  -5  179.48    7.70
   5  -2  -5  193.58    8.00
  -5   2   5  182.58    7.60
  -5   2   5  176.98    7.30
  -5   2   5  177.38    7.80
   4  -2  -5   82.39    2.80
   4  -2  -5   83.59    4.40
   4  -2  -5   75.89    2.80
  -4   2   5   77.49    4.30
  -4   2   5   79.79    4.00
  -4   2   5   84.39    4.40
   3  -2  -5  386.56   13.90
   3  -2  -5  380.16   12.50
   3  -2  -5  378.66   13.70
   3  -2  -5  383.36   12.50
  -3   2   5  404.26   13.90
  -3   2   5  394.76   13.50
  -3   2   5  395.06   14.00
   2  -2  -5  103.19    3.50
   2  -2  -5  113.79    4.50
   2  -2  -5  104.79    3.50
   2  -2  -5  102.79    4.60
  -2   2   5  103.49    4.40
  -2   2   5   97.19    4.70
  -2   2   5  103.49    4.90
  -2   2   5   99.09    4.40
   1  -2  -5    1.50    0.70
   1  -2  -5    1.00    0.90
   1  -2  -5    2.70    0.80
   1  -2  -5    1.10    0.80
   1  -2  -5    1.70    0.50
   1  -2  -5    1.50    0.50
  -1   2   5    2.70    1.30
  -1   2   5    1.90    1.20
  -1   2   5    1.70    0.90
   0  -2  -5 1318.87   43.40
   0  -2  -5 1347.97   43.40
   0  -2  -5 1393.96   43.80
   0  -2  -5 1395.56   43.40
   0  -2  -5 1352.06   43.60
   0  -2  -5 1387.56   43.40
   0   2   5 1339.97   43.80
   0   2   5 1374.66   44.20
   0   2   5 1388.06   43.70
   0   2   5 1233.08   44.00
  -1  -2  -5   42.50    1.70
  -1  -2  -5   45.20    1.60
  -1  -2  -5   41.80    2.20
  -1  -2  -5   44.90    2.20
  -1  -2  -5   45.30    2.30
   1   2   5   43.00    2.00
   1   2   5   39.10    2.70
   1   2   5   43.50    2.30
   1   2   5   40.40    2.20
   1   2   5   43.80    2.00
   1   2   5   38.20    2.70
  -2  -2  -5   23.40    1.80
  -2  -2  -5   24.50    1.70
  -2  -2  -5   24.60    1.80
   2   2   5   28.30    1.80
   2   2   5   25.90    1.70
   2   2   5   26.40    1.70
   2   2   5   20.80    2.10
   2   2   5   23.90    1.80
   2   2   5   23.80    1.90
  -3  -2  -5   86.89    3.80
  -3  -2  -5   85.39    3.90
  -3  -2  -5   84.89    3.70
   3   2   5   94.49    4.40
   3   2   5   92.09    3.80
   3   2   5   93.69    3.80
   3   2   5   87.99    3.80
  -4  -2  -5  462.95   15.70
  -4  -2  -5  466.35   15.40
  -4  -2  -5  438.06   15.80
   4   2   5  467.15   15.00
   4   2   5  450.45   16.00
   4   2   5  469.75   15.40
   4   2   5  474.55   15.80
  -5  -2  -5    5.90    0.80
  -5  -2  -5    6.20    1.40
  -5  -2  -5    4.10    1.30
  -5  -2  -5    4.30    1.20
   5   2   5    6.80    1.50
   5   2   5    5.20    1.50
   5   2   5    6.40    1.40
   5   2   5    5.50    0.80
  -6  -2  -5   53.59    2.70
  -6  -2  -5   48.10    3.10
  -6  -2  -5   57.19    3.30
  -6  -2  -5   50.59    2.00
   6   2   5   49.20    2.40
   6   2   5   51.29    3.10
   6   2   5   49.90    3.50
   6   2   5   47.50    3.50
  -7  -2  -5  166.18    7.00
  -7  -2  -5  172.38    6.00
  -7  -2  -5  160.58    6.90
   7   2   5  173.58    7.50
   7   2   5  162.98    7.00
   7   2   5  162.88    6.80
  -8  -2  -5    7.20    2.00
  -8  -2  -5   10.30    2.00
  -8  -2  -5    8.10    1.90
   8   2   5    9.10    1.80
   8   2   5   10.40    2.00
   8   2   5    7.20    2.00
  -9  -2  -5  188.48    7.70
  -9  -2  -5  168.38    7.30
  -9  -2  -5  160.58    7.70
   9   2   5  179.88    7.90
   9   2   5  173.98    8.10
   9   2   5  176.78    7.80
 -10  -2  -5   36.30    3.30
 -10  -2  -5   38.80    3.60
 -10  -2  -5   35.10    3.90
  10   2   5   41.60    4.10
  10   2   5   38.20    3.70
  10   2   5   39.30    3.50
 -11  -2  -5  113.59    5.80
 -11  -2  -5  109.79    6.60
  11   2   5  119.49    6.70
  11   2   5  122.09    6.50
  11   2   5  134.39    6.90
  11   2   5  106.89    6.70
 -12  -2  -5    3.20    2.80
 -12  -2  -5    4.30    2.00
  12   2   5   -0.10    2.00
  12   2   5    4.20    2.30
   9  -3  -5   19.60    3.70
  -9   3   5   17.80    3.00
  -9   3   5   13.80    3.40
   8  -3  -5   -0.50    2.30
  -8   3   5    0.60    2.10
  -8   3   5   -2.20    2.40
   7  -3  -5   11.00    2.80
  -7   3   5    6.70    2.00
  -7   3   5    6.20    2.50
  -7   3   5    7.80    2.30
   6  -3  -5    0.30    1.30
   6  -3  -5    0.90    1.90
  -6   3   5    5.00    1.70
  -6   3   5    5.50    2.30
  -6   3   5    2.50    1.80
   5  -3  -5    7.40    2.00
   5  -3  -5    1.60    1.30
  -5   3   5    3.20    1.80
  -5   3   5    3.70    1.60
  -5   3   5    4.20    1.60
   4  -3  -5  109.89    4.10
   4  -3  -5  105.29    4.00
   4  -3  -5  110.99    5.40
  -4   3   5  110.49    5.00
  -4   3   5  110.79    5.30
   3  -3  -5   62.59    2.50
   3  -3  -5   59.99    3.80
   3  -3  -5   65.69    3.60
   3  -3  -5   64.29    2.50
  -3   3   5   63.69    3.40
  -3   3   5   59.39    3.60
  -3   3   5   61.09    3.60
   2  -3  -5    0.10    0.90
   2  -3  -5   -0.20    1.00
   2  -3  -5    0.40    0.50
   2  -3  -5   -0.50    0.50
   2  -3  -5    0.40    0.90
  -2   3   5   -1.30    1.10
  -2   3   5    1.30    1.10
  -2   3   5   -0.10    1.10
   1  -3  -5  656.33   21.60
   1  -3  -5  647.14   21.30
   1  -3  -5  622.54   20.80
   1  -3  -5  632.74   21.10
   1  -3  -5  641.14   20.80
  -1   3   5  659.63   21.20
  -1   3   5  633.14   21.70
  -1   3   5  659.03   21.80
  -1   3   5  636.04   21.40
   0  -3  -5    0.80    0.90
   0  -3  -5    0.50    0.60
   0  -3  -5    1.20    0.70
   0  -3  -5    0.50    0.70
   0  -3  -5    1.60    0.60
   0  -3  -5    0.80    0.70
   0   3   5    0.50    0.70
   0   3   5   -1.10    1.10
   0   3   5   -0.60    1.00
   0   3   5    1.00    0.30
  -1  -3  -5    6.70    1.30
  -1  -3  -5    6.90    0.80
  -1  -3  -5    4.50    1.10
  -1  -3  -5    5.20    1.00
  -1  -3  -5    5.80    0.90
   1   3   5    7.90    0.80
   1   3   5    6.90    0.80
   1   3   5    9.20    0.90
   1   3   5    9.00    1.30
   1   3   5    6.30    0.90
   1   3   5    7.70    1.40
   1   3   5    5.00    1.40
  -2  -3  -5  403.16   14.10
  -2  -3  -5  403.66   14.00
  -2  -3  -5  420.66   14.00
  -2  -3  -5  407.76   14.00
   2   3   5  424.66   13.50
   2   3   5  403.26   14.10
   2   3   5  409.76   14.50
   2   3   5  417.36   13.90
   2   3   5  423.76   14.10
   2   3   5  423.46   13.70
   2   3   5  414.46   13.90
  -3  -3  -5  401.66   13.90
  -3  -3  -5  409.76   14.00
  -3  -3  -5  421.96   13.40
  -3  -3  -5  399.46   14.00
   3   3   5  405.16   14.00
   3   3   5  420.26   14.50
   3   3   5  406.06   14.50
   3   3   5  415.46   14.00
   3   3   5  409.16   14.00
   3   3   5  430.06   13.50
  -4  -3  -5  367.66   13.10
  -4  -3  -5  392.16   12.80
  -4  -3  -5  388.06   13.40
   4   3   5  407.36   13.90
   4   3   5  397.76   14.00
   4   3   5  394.86   13.20
   4   3   5  382.46   13.40
  -5  -3  -5   78.19    3.90
  -5  -3  -5   80.99    3.30
  -5  -3  -5   74.49    3.90
  -5  -3  -5   79.09    3.20
   5   3   5   80.69    4.30
   5   3   5   85.19    3.20
   5   3   5   81.89    3.30
   5   3   5   83.89    3.90
  -6  -3  -5   96.09    4.50
  -6  -3  -5   95.19    4.50
  -6  -3  -5   97.89    4.10
  -6  -3  -5   96.99    4.60
   6   3   5  103.89    4.00
   6   3   5   93.69    5.00
   6   3   5   96.99    4.60
   6   3   5  101.69    3.70
  -7  -3  -5   26.40    1.60
  -7  -3  -5   28.50    2.60
  -7  -3  -5   27.00    2.60
  -7  -3  -5   27.60    2.20
   7   3   5   25.90    2.80
   7   3   5   27.40    2.50
  -8  -3  -5   75.29    4.00
  -8  -3  -5   83.09    4.60
  -8  -3  -5   88.59    4.20
  -8  -3  -5   73.09    4.40
   8   3   5   79.59    4.50
   8   3   5   84.19    4.90
  -9  -3  -5   27.40    3.10
  -9  -3  -5   28.70    2.70
  -9  -3  -5   19.50    2.50
   9   3   5   24.20    3.10
   9   3   5   22.30    2.60
 -10  -3  -5    5.50    1.80
 -10  -3  -5    9.40    2.50
 -10  -3  -5    9.70    2.20
  10   3   5    6.20    1.90
  10   3   5    6.30    2.50
 -11  -3  -5   76.29    4.60
 -11  -3  -5   78.69    5.40
 -11  -3  -5   87.09    5.00
  11   3   5   83.39    5.70
  11   3   5   85.19    5.10
  11   3   5   76.69    5.40
 -12  -3  -5   41.60    3.60
 -12  -3  -5   32.90    4.10
  12   3   5   29.70    4.00
  12   3   5   29.90    3.50
  12   3   5   38.70    4.10
   8  -4  -5  178.98    9.10
  -8   4   5  165.98    8.60
  -8   4   5  160.18    7.90
   7  -4  -5   37.80    4.20
  -7   4   5   32.60    3.90
  -7   4   5   43.20    3.90
  -7   4   5   41.80    3.50
   6  -4  -5    2.60    2.00
  -6   4   5    4.40    2.00
  -6   4   5    0.60    2.10
  -6   4   5    2.50    1.60
   5  -4  -5   40.30    3.80
   5  -4  -5   34.80    2.50
  -5   4   5   35.50    3.20
  -5   4   5   39.30    3.30
   4  -4  -5   12.30    2.20
   4  -4  -5   16.10    1.40
   4  -4  -5   12.00    2.20
   4  -4  -5   13.80    1.70
  -4   4   5   14.70    2.20
  -4   4   5   13.90    2.10
   3  -4  -5   18.40    2.20
   3  -4  -5   24.90    2.60
   3  -4  -5   21.30    1.60
  -3   4   5   25.60    2.50
  -3   4   5   25.00    2.60
  -3   4   5   24.50    2.40
   2  -4  -5  108.79    4.00
   2  -4  -5  105.39    4.70
   2  -4  -5  104.39    4.30
   2  -4  -5   96.49    4.80
   2  -4  -5   98.69    3.90
  -2   4   5  101.59    4.60
  -2   4   5  104.39    4.70
  -2   4   5  100.19    4.90
   1  -4  -5   55.99    3.30
   1  -4  -5   58.19    2.50
   1  -4  -5   56.99    2.60
   1  -4  -5   62.59    3.10
   1  -4  -5   57.69    2.60
   1  -4  -5   56.49    2.90
   1  -4  -5   55.59    3.30
  -1   4   5   57.39    3.30
  -1   4   5   62.89    3.30
  -1   4   5   51.69    3.00
   0  -4  -5  306.57   10.90
   0  -4  -5  310.27   10.30
   0  -4  -5  332.17   10.80
   0  -4  -5  311.77   11.10
   0  -4  -5  303.07   10.50
   0  -4  -5  326.77   10.60
   0  -4  -5  290.97   10.90
   0   4   5  317.37   10.20
   0   4   5  309.87   10.90
   0   4   5  303.27   10.70
   0   4   5  315.17   11.10
   0   4   5  306.17   10.20
   0   4   5  293.27   11.10
  -1  -4  -5  603.04   20.50
  -1  -4  -5  618.54   20.20
  -1  -4  -5  611.14   20.10
  -1  -4  -5  613.54   20.50
  -1  -4  -5  586.94   20.10
   1   4   5  625.44   20.60
   1   4   5  619.04   20.00
   1   4   5  627.24   20.00
   1   4   5  570.44   20.10
   1   4   5  611.54   19.70
   1   4   5  637.74   20.70
  -2  -4  -5  424.56   14.10
  -2  -4  -5  416.26   14.30
  -2  -4  -5  439.06   13.90
   2   4   5  398.66   14.00
   2   4   5  409.06   13.80
   2   4   5  426.16   14.00
   2   4   5  421.06   13.50
   2   4   5  422.56   14.60
   2   4   5  392.96   14.30
  -3  -4  -5 4274.07  137.69
  -3  -4  -5 4430.56  137.49
  -3  -4  -5 4348.86  137.99
  -3  -4  -5 4326.07  138.09
  -3  -4  -5 4324.07  138.29
   3   4   5 4443.26  137.59
   3   4   5 4338.17  137.99
   3   4   5 4361.86  138.39
   3   4   5 4400.66  137.89
   3   4   5 4224.38  137.89
   3   4   5 4093.29  138.39
  -4  -4  -5  464.25   16.20
  -4  -4  -5  473.75   15.90
  -4  -4  -5  477.55   15.60
  -4  -4  -5  456.85   16.10
   4   4   5  475.15   16.10
   4   4   5  484.55   16.00
   4   4   5  481.55   16.70
   4   4   5  470.75   15.70
  -5  -4  -5  264.37    8.80
  -5  -4  -5  257.57    9.30
  -5  -4  -5  243.38    8.80
  -5  -4  -5  241.68    9.20
   5   4   5  257.97    9.80
   5   4   5  257.47    8.90
   5   4   5  261.67    8.90
   5   4   5  237.98    9.20
  -6  -4  -5  630.94   21.10
  -6  -4  -5  635.34   21.10
  -6  -4  -5  622.94   21.60
  -6  -4  -5  639.94   21.60
  -6  -4  -5  633.74   21.50
   6   4   5  597.94   21.50
   6   4   5  659.53   20.90
   6   4   5  656.33   22.20
   6   4   5  638.34   21.00
  -7  -4  -5   66.49    3.40
  -7  -4  -5   63.59    3.80
  -7  -4  -5   67.39    3.90
  -7  -4  -5   65.89    3.00
  -7  -4  -5   63.79    3.80
   7   4   5   63.59    2.70
   7   4   5   64.59    3.80
   7   4   5   66.89    4.50
  -8  -4  -5   24.40    2.50
  -8  -4  -5   31.00    2.60
  -8  -4  -5   28.80    2.80
  -8  -4  -5   25.40    1.80
   8   4   5   24.50    3.00
   8   4   5   31.00    2.80
  -9  -4  -5   -0.30    1.50
  -9  -4  -5   -1.90    1.70
  -9  -4  -5    0.40    1.40
  -9  -4  -5   -0.20    1.30
   9   4   5    1.00    1.90
   9   4   5    2.40    1.70
 -10  -4  -5   75.69    5.00
 -10  -4  -5   70.89    3.90
 -10  -4  -5   77.59    4.50
 -10  -4  -5   76.39    4.60
  10   4   5   80.19    4.70
  10   4   5   71.69    5.20
 -11  -4  -5   18.10    2.20
 -11  -4  -5   16.40    2.50
 -11  -4  -5   16.70    3.00
  11   4   5   16.70    2.70
  11   4   5   14.50    3.10
 -12  -4  -5    5.70    2.10
 -12  -4  -5    8.30    3.00
  12   4   5   11.60    2.50
  12   4   5    9.40    2.50
  12   4   5    3.90    2.60
   8  -5  -5   86.29    6.70
   8  -5  -5  112.99    7.10
  -8   5   5  100.59    6.00
   7  -5  -5   83.49    6.00
   7  -5  -5   73.99    5.80
  -7   5   5   75.09    5.10
   6  -5  -5  146.49    7.50
   6  -5  -5  129.49    7.40
  -6   5   5  143.39    6.60
  -6   5   5  136.19    6.80
   5  -5  -5   15.40    2.80
   5  -5  -5   10.40    2.30
  -5   5   5   13.40    2.30
  -5   5   5   13.40    2.50
   4  -5  -5  202.08    8.60
   4  -5  -5  200.98    7.60
   4  -5  -5  199.28    8.90
  -4   5   5  194.18    8.30
  -4   5   5  209.68    8.40
   3  -5  -5  574.74   18.90
   3  -5  -5  569.04   19.90
   3  -5  -5  553.04   20.00
  -3   5   5  580.14   19.80
  -3   5   5  542.85   19.10
  -3   5   5  569.94   19.60
   2  -5  -5  267.97    9.50
   2  -5  -5  285.07   10.30
   2  -5  -5  265.27    9.60
   2  -5  -5  259.27   10.30
   2  -5  -5  267.17    9.40
  -2   5   5  254.97   10.10
  -2   5   5  285.57    9.80
  -2   5   5  257.97   10.00
   1  -5  -5   65.29    3.10
   1  -5  -5   67.59    3.50
   1  -5  -5   58.99    2.70
   1  -5  -5   65.29    3.00
   1  -5  -5   62.49    3.00
   1  -5  -5   61.39    3.60
  -1   5   5   63.99    2.30
  -1   5   5   57.59    3.50
  -1   5   5   58.29    3.30
  -1   5   5   64.59    3.30
   0  -5  -5   44.70    1.90
   0  -5  -5   47.10    2.50
   0  -5  -5   43.70    2.50
   0  -5  -5   44.50    2.90
   0  -5  -5   50.09    2.80
   0   5   5   42.40    3.00
   0   5   5   42.70    2.70
   0   5   5   43.60    2.00
   0   5   5   40.90    2.60
   0   5   5   45.70    2.10
  -1  -5  -5  268.97    9.50
  -1  -5  -5  280.47    9.40
  -1  -5  -5  272.37    9.30
  -1  -5  -5  261.97    9.60
   1   5   5  263.07    9.10
   1   5   5  256.67    9.30
   1   5   5  240.38    9.60
   1   5   5  259.57    9.10
   1   5   5  261.27    9.60
   1   5   5  259.57    9.30
  -2  -5  -5  214.78    7.70
  -2  -5  -5  209.38    7.90
  -2  -5  -5  210.78    7.70
   2   5   5  198.28    7.60
   2   5   5  219.28    8.10
   2   5   5  205.08    8.00
   2   5   5  221.68    7.60
   2   5   5  212.58    7.60
   2   5   5  215.78    8.10
  -3  -5  -5  342.67   12.10
  -3  -5  -5  326.77   11.60
  -3  -5  -5  351.06   12.20
  -3  -5  -5  344.57   11.80
   3   5   5  372.26   11.20
   3   5   5  333.47   12.40
   3   5   5  343.97   11.80
   3   5   5  360.26   12.50
   3   5   5  321.87   11.90
  -4  -5  -5  122.29    5.20
  -4  -5  -5  126.39    4.70
  -4  -5  -5  129.09    4.80
  -4  -5  -5  129.19    5.30
   4   5   5  125.89    5.10
   4   5   5  121.69    5.10
   4   5   5  119.39    5.60
   4   5   5  120.49    4.80
  -5  -5  -5  153.48    6.40
  -5  -5  -5  152.18    6.40
  -5  -5  -5  166.98    6.00
   5   5   5  166.18    6.10
   5   5   5  157.18    6.90
   5   5   5  151.88    6.30
  -6  -5  -5   16.40    1.90
  -6  -5  -5   15.30    1.90
  -6  -5  -5   14.70    1.60
   6   5   5   16.00    1.60
   6   5   5   13.20    1.80
   6   5   5   13.90    2.30
  -7  -5  -5    0.30    0.80
  -7  -5  -5   -2.00    1.30
  -7  -5  -5   -0.20    1.30
  -7  -5  -5   -1.20    1.40
  -7  -5  -5    0.50    1.10
   7   5   5    1.40    1.40
   7   5   5   -0.50    1.70
   7   5   5    1.70    0.90
  -8  -5  -5  209.18    7.80
  -8  -5  -5  193.98    8.30
  -8  -5  -5  205.88    8.30
  -8  -5  -5  214.98    8.00
   8   5   5  201.88    7.10
   8   5   5  200.88    8.30
   8   5   5  202.08    9.10
  -9  -5  -5   29.10    3.10
  -9  -5  -5   29.20    2.80
  -9  -5  -5   32.00    2.70
  -9  -5  -5   29.30    2.30
   9   5   5   27.70    3.50
   9   5   5   30.80    3.00
 -10  -5  -5    6.90    1.30
 -10  -5  -5    8.00    2.20
 -10  -5  -5    7.20    2.00
 -10  -5  -5    7.00    2.20
  10   5   5    6.10    2.00
  10   5   5    7.80    2.80
 -11  -5  -5   52.19    3.90
 -11  -5  -5   49.60    3.90
 -11  -5  -5   46.80    4.30
  11   5   5   47.50    4.80
  11   5   5   52.49    4.00
 -12  -5  -5   21.50    3.50
 -12  -5  -5   21.20    2.70
 -12  -5  -5   23.90    3.40
  12   5   5   26.60    3.40
  12   5   5   22.20    3.70
   7  -6  -5   41.80    4.70
   7  -6  -5   25.60    3.80
  -7   6   5   29.00    3.80
   6  -6  -5   66.49    5.50
   6  -6  -5   65.39    5.30
  -6   6   5   60.79    4.30
  -6   6   5   55.09    4.60
   5  -6  -5   31.90    3.50
   5  -6  -5   39.40    4.10
  -5   6   5   34.40    3.30
  -5   6   5   25.80    3.30
   4  -6  -5   63.19    4.60
   4  -6  -5   61.79    4.40
   4  -6  -5   59.29    3.30
  -4   6   5   58.69    4.00
  -4   6   5   68.59    4.20
   3  -6  -5  156.68    7.40
   3  -6  -5  160.58    7.30
   3  -6  -5  153.78    6.30
  -3   6   5  151.78    6.90
  -3   6   5  164.78    7.00
   2  -6  -5    7.20    1.80
   2  -6  -5    5.40    1.70
   2  -6  -5    7.50    1.30
  -2   6   5    7.10    1.30
  -2   6   5    7.90    2.00
  -2   6   5    7.20    1.90
   1  -6  -5  214.28    8.80
   1  -6  -5  238.58    9.00
   1  -6  -5  216.68    8.30
   1  -6  -5  213.58    7.80
   1  -6  -5  224.88    8.00
  -1   6   5  214.78    7.70
  -1   6   5  238.38    8.30
  -1   6   5  238.78    7.70
  -1   6   5  218.58    8.80
  -1   6   5  225.08    8.60
   0  -6  -5    9.70    1.40
   0  -6  -5    9.40    1.30
   0  -6  -5    7.00    1.50
   0  -6  -5    9.30    0.90
   0  -6  -5    7.50    1.60
   0   6   5    9.20    1.40
   0   6   5    8.80    1.70
   0   6   5    8.00    1.60
   0   6   5    8.20    1.10
   0   6   5    9.20    1.10
  -1  -6  -5   11.90    1.80
  -1  -6  -5   11.40    1.40
  -1  -6  -5    8.70    1.30
  -1  -6  -5   12.30    1.60
   1   6   5   10.20    1.30
   1   6   5   11.40    1.70
   1   6   5   12.00    1.80
   1   6   5   11.30    1.30
   1   6   5   12.20    1.70
  -2  -6  -5   25.80    2.30
  -2  -6  -5   30.30    2.30
  -2  -6  -5   32.50    2.20
   2   6   5   31.20    2.10
   2   6   5   30.90    2.40
   2   6   5   29.80    2.60
   2   6   5   30.00    2.10
   2   6   5   28.50    2.50
  -3  -6  -5   22.50    2.10
  -3  -6  -5   23.10    2.10
  -3  -6  -5   24.30    2.00
   3   6   5   23.30    2.10
   3   6   5   22.00    2.20
   3   6   5   23.30    2.40
  -4  -6  -5   60.79    3.00
  -4  -6  -5   51.19    2.40
  -4  -6  -5   55.99    3.20
  -4  -6  -5   51.29    3.10
   4   6   5   52.49    3.00
   4   6   5   56.79    3.20
   4   6   5   57.19    2.20
   4   6   5   54.89    3.60
  -5  -6  -5   49.80    2.30
  -5  -6  -5   51.59    3.20
  -5  -6  -5   55.09    2.90
  -5  -6  -5   49.20    3.10
   5   6   5   54.69    3.10
   5   6   5   50.89    2.40
   5   6   5   54.09    3.60
   5   6   5   44.20    2.90
  -6  -6  -5   91.59    4.10
  -6  -6  -5   90.19    3.50
  -6  -6  -5   89.59    4.40
  -6  -6  -5   85.69    4.40
   6   6   5   91.49    4.10
   6   6   5   96.59    5.20
   6   6   5   89.09    4.40
  -7  -6  -5   44.70    3.40
  -7  -6  -5   50.59    3.40
  -7  -6  -5   39.90    3.10
  -7  -6  -5   49.60    3.10
   7   6   5   44.70    4.00
   7   6   5   46.20    3.10
   7   6   5   42.90    2.70
  -8  -6  -5    8.40    2.00
  -8  -6  -5    9.60    2.10
  -8  -6  -5    8.60    1.90
  -8  -6  -5   12.10    2.00
   8   6   5    9.00    2.50
   8   6   5    8.60    1.90
   8   6   5   11.60    1.40
  -9  -6  -5   77.09    4.50
  -9  -6  -5   63.09    4.30
  -9  -6  -5   73.69    4.30
  -9  -6  -5   75.69    3.30
   9   6   5   82.59    4.70
   9   6   5   67.99    5.20
 -10  -6  -5   -1.00    1.80
 -10  -6  -5    2.20    1.90
 -10  -6  -5   -1.20    1.50
  10   6   5    1.40    2.30
  10   6   5   -0.60    1.80
 -11  -6  -5    6.70    2.40
 -11  -6  -5    5.60    2.10
 -11  -6  -5    5.30    2.30
  11   6   5    3.70    2.20
  11   6   5    3.00    3.00
 -12  -6  -5   66.19    5.20
 -12  -6  -5   77.79    4.60
 -12  -6  -5   76.89    5.00
  12   6   5   68.79    6.40
  12   6   5   67.09    5.00
   6  -7  -5   36.00    4.30
   6  -7  -5   32.30    4.20
  -6   7   5   35.20    4.10
  -6   7   5   39.90    3.70
   5  -7  -5   83.59    5.60
   5  -7  -5   81.09    5.90
  -5   7   5   79.99    5.30
  -5   7   5   90.89    5.20
   4  -7  -5    0.20    1.20
   4  -7  -5   -1.10    1.90
   4  -7  -5   -1.10    1.60
  -4   7   5    0.00    2.00
  -4   7   5   -1.00    1.60
   3  -7  -5  274.67   10.70
   3  -7  -5  254.87    9.60
   3  -7  -5  228.98   10.30
  -3   7   5  256.07   10.20
  -3   7   5  241.18   10.10
   2  -7  -5   23.00    2.70
   2  -7  -5   25.70    2.40
   2  -7  -5   21.90    2.70
  -2   7   5   29.20    3.00
  -2   7   5   27.20    2.90
  -2   7   5   23.20    1.70
  -2   7   5   25.50    1.60
   1  -7  -5    2.20    1.70
   1  -7  -5    0.60    1.10
   1  -7  -5    2.40    1.50
  -1   7   5    0.20    0.70
  -1   7   5    0.20    0.80
  -1   7   5    1.70    1.70
  -1   7   5    0.40    1.60
  -1   7   5   -0.60    0.80
   0  -7  -5  348.47   11.80
   0  -7  -5  322.37   11.20
   0  -7  -5  343.87   12.20
   0  -7  -5  354.26   12.60
   0  -7  -5  317.17   12.50
   0   7   5  325.67   11.80
   0   7   5  359.76   11.80
   0   7   5  340.87   11.70
   0   7   5  334.27   12.60
   0   7   5  333.87   12.20
  -1  -7  -5    0.30    1.30
  -1  -7  -5    1.70    1.40
  -1  -7  -5    1.40    0.90
  -1  -7  -5    1.20    1.10
   1   7   5    0.20    1.40
   1   7   5    1.80    1.40
   1   7   5    2.00    1.20
   1   7   5    0.50    1.10
  -2  -7  -5   13.00    1.80
  -2  -7  -5   12.60    1.80
  -2  -7  -5   11.90    1.70
   2   7   5   12.40    1.70
   2   7   5    9.90    1.90
   2   7   5   13.80    1.90
   2   7   5   14.80    1.90
   2   7   5   14.10    1.70
  -3  -7  -5   54.79    3.20
  -3  -7  -5   48.10    3.10
  -3  -7  -5   49.40    3.10
   3   7   5   53.59    3.30
   3   7   5   50.19    2.60
   3   7   5   47.10    3.20
   3   7   5   49.50    3.10
  -4  -7  -5  281.77   10.40
  -4  -7  -5  289.67   10.30
  -4  -7  -5  273.77    9.90
  -4  -7  -5  285.57   10.20
  -4  -7  -5  267.37   10.30
   4   7   5  272.97   10.30
   4   7   5  283.57   10.90
   4   7   5  276.17    9.10
   4   7   5  287.57   10.50
  -5  -7  -5  132.49    5.80
  -5  -7  -5  129.49    4.80
  -5  -7  -5  130.99    5.70
  -5  -7  -5  129.59    5.50
   5   7   5  130.69    5.80
   5   7   5  132.59    5.80
   5   7   5  125.79    6.20
   5   7   5  132.99    4.80
  -6  -7  -5   46.70    3.20
  -6  -7  -5   44.20    2.00
  -6  -7  -5   43.70    3.00
  -6  -7  -5   45.30    3.20
   6   7   5   45.80    2.50
   6   7   5   42.60    3.30
   6   7   5   51.59    3.20
   6   7   5   46.40    3.90
  -7  -7  -5  307.37   10.90
  -7  -7  -5  286.97   10.90
  -7  -7  -5  302.67   11.00
  -7  -7  -5  278.17    9.70
   7   7   5  291.87   10.60
   7   7   5  286.07   11.00
   7   7   5  279.07   11.80
  -8  -7  -5  240.28    9.70
  -8  -7  -5  237.88    9.60
  -8  -7  -5  264.17    9.70
  -8  -7  -5  230.98    9.60
   8   7   5  244.68   10.70
   8   7   5  241.68    9.10
   8   7   5  255.87    9.80
  -9  -7  -5  149.88    7.00
  -9  -7  -5  161.48    7.00
  -9  -7  -5  152.28    7.00
  -9  -7  -5  154.38    6.90
   9   7   5  147.69    6.90
   9   7   5  150.68    6.00
   9   7   5  146.39    7.90
 -10  -7  -5   50.99    4.00
 -10  -7  -5   50.69    4.00
 -10  -7  -5   49.10    3.90
  10   7   5   54.59    4.00
  10   7   5   39.20    4.50
 -11  -7  -5   83.69    5.20
 -11  -7  -5   96.09    5.30
 -11  -7  -5   85.79    5.50
  11   7   5   96.59    5.50
  11   7   5   91.59    6.50
 -12  -7  -5    0.30    2.10
 -12  -7  -5    2.30    2.60
 -12  -7  -5    3.30    2.00
  12   7   5   -2.00    3.00
  12   7   5    0.20    1.90
   5  -8  -5   13.40    3.00
   5  -8  -5   16.10    3.50
  -5   8   5   14.70    3.20
  -5   8   5   13.50    2.70
   4  -8  -5   76.79    4.60
   4  -8  -5   80.29    5.40
   4  -8  -5   82.79    5.90
  -4   8   5   73.19    5.20
  -4   8   5   82.39    5.20
   3  -8  -5   75.19    5.20
   3  -8  -5   77.99    4.40
   3  -8  -5   77.29    5.10
  -3   8   5   76.99    4.90
  -3   8   5   81.19    5.10
   2  -8  -5   35.60    3.50
   2  -8  -5   35.50    3.00
   2  -8  -5   31.10    3.40
  -2   8   5   39.00    3.80
  -2   8   5   34.80    3.40
  -2   8   5   36.30    2.20
   1  -8  -5  135.89    6.60
   1  -8  -5  134.69    6.00
   1  -8  -5  121.19    6.20
  -1   8   5  129.29    4.90
  -1   8   5  116.89    5.90
  -1   8   5  136.99    6.40
  -1   8   5  131.99    5.40
   0  -8  -5  253.87    8.70
   0  -8  -5  261.07    9.90
   0  -8  -5  261.77   10.20
   0  -8  -5  261.37   10.20
   0   8   5  246.78   10.20
   0   8   5  250.37    9.80
   0   8   5  258.87    9.20
   0   8   5  255.57    9.40
  -1  -8  -5   -1.60    1.20
  -1  -8  -5    0.20    1.20
  -1  -8  -5    0.20    1.50
   1   8   5   -0.80    1.60
   1   8   5    1.20    1.80
   1   8   5    0.30    1.10
   1   8   5    0.80    1.30
  -2  -8  -5  528.65   18.50
  -2  -8  -5  520.95   18.20
  -2  -8  -5  488.55   18.30
   2   8   5  532.35   18.10
   2   8   5  535.75   17.90
   2   8   5  535.15   18.20
   2   8   5  508.95   18.00
   2   8   5  537.65   18.70
  -3  -8  -5   42.70    3.20
  -3  -8  -5   35.30    2.80
  -3  -8  -5   40.50    3.00
   3   8   5   41.60    2.60
   3   8   5   35.80    3.00
   3   8   5   37.10    3.20
   3   8   5   40.20    3.30
  -4  -8  -5   54.29    3.40
  -4  -8  -5   53.79    3.40
  -4  -8  -5   47.10    3.30
   4   8   5   48.10    3.20
   4   8   5   53.09    3.80
   4   8   5   49.40    3.70
  -5  -8  -5  215.98    7.60
  -5  -8  -5  209.98    8.60
  -5  -8  -5  224.38    8.60
  -5  -8  -5  217.18    8.70
   5   8   5  221.68    9.20
   5   8   5  216.18    8.60
   5   8   5  222.68    8.80
   5   8   5  220.08    7.50
  -6  -8  -5  370.86   13.50
  -6  -8  -5  372.96   13.30
  -6  -8  -5  360.86   12.20
  -6  -8  -5  354.96   13.40
   6   8   5  356.26   13.40
   6   8   5  364.96   14.30
   6   8   5  390.36   13.50
   6   8   5  365.26   12.50
  -7  -8  -5   10.60    2.00
  -7  -8  -5   14.20    2.20
  -7  -8  -5   11.10    2.10
   7   8   5   12.50    2.10
   7   8   5   12.90    2.80
   7   8   5    7.70    1.90
  -8  -8  -5  150.58    6.90
  -8  -8  -5  150.88    6.70
  -8  -8  -5  149.59    6.70
  -8  -8  -5  159.88    6.90
   8   8   5  140.09    7.80
   8   8   5  150.78    6.40
   8   8   5  150.78    6.90
  -9  -8  -5    2.00    1.70
  -9  -8  -5    2.20    1.80
  -9  -8  -5    2.90    2.00
   9   8   5    1.90    2.50
   9   8   5    2.70    1.50
   9   8   5    2.80    1.90
 -10  -8  -5    0.10    1.90
 -10  -8  -5   -0.70    1.70
 -10  -8  -5    2.50    2.00
  10   8   5    1.20    1.80
  10   8   5   -0.30    2.60
 -11  -8  -5    0.90    2.10
 -11  -8  -5   -1.00    1.80
 -11  -8  -5    1.40    1.90
  11   8   5    2.70    3.10
  11   8   5    0.90    1.90
 -12  -8  -5    7.00    2.20
 -12  -8  -5    9.50    2.70
 -12  -8  -5    4.60    2.50
  12   8   5    9.40    2.60
  12   8   5    5.60    3.30
  -5   9   5   77.79    5.70
   4  -9  -5    1.10    2.00
   4  -9  -5   -2.30    2.30
  -4   9   5    3.30    2.60
  -4   9   5   -0.70    2.00
   3  -9  -5    3.10    2.00
   3  -9  -5    4.10    2.60
   3  -9  -5    4.40    1.80
  -3   9   5    8.80    2.50
  -3   9   5    2.80    2.40
   2  -9  -5    1.00    1.80
   2  -9  -5   -1.90    1.80
   2  -9  -5    2.50    1.60
  -2   9   5    1.10    1.90
  -2   9   5    3.30    2.30
  -2   9   5    0.30    1.10
   1  -9  -5   66.89    4.20
   1  -9  -5   65.09    4.40
   1  -9  -5   59.69    4.60
  -1   9   5   61.89    4.70
  -1   9   5   73.19    4.70
  -1   9   5   58.49    3.60
   0  -9  -5   10.10    2.00
   0  -9  -5    8.70    2.20
   0  -9  -5   13.20    2.40
   0   9   5    8.30    2.20
   0   9   5   13.60    2.00
   0   9   5   11.00    2.60
  -1  -9  -5   -1.40    1.40
  -1  -9  -5   -1.40    1.40
  -1  -9  -5   -0.90    1.40
   1   9   5    1.00    1.00
   1   9   5   -1.80    1.30
   1   9   5   -0.10    2.00
   1   9   5   -1.10    1.50
  -2  -9  -5   29.10    3.00
  -2  -9  -5   29.40    3.10
  -2  -9  -5   31.10    2.90
   2   9   5   28.00    3.20
   2   9   5   30.80    2.70
   2   9   5   30.60    2.70
   2   9   5   33.80    3.00
   2   9   5   30.90    2.70
  -3  -9  -5  134.29    6.40
  -3  -9  -5  143.09    6.20
  -3  -9  -5  133.89    6.20
   3   9   5  130.09    6.70
   3   9   5  130.59    6.30
   3   9   5  140.79    5.70
   3   9   5  134.69    6.20
  -4  -9  -5   18.50    2.40
  -4  -9  -5   19.30    2.40
  -4  -9  -5   15.90    2.20
   4   9   5   17.40    2.30
   4   9   5   17.60    2.70
   4   9   5   18.50    1.90
   4   9   5   18.60    2.80
  -5  -9  -5    1.30    1.40
  -5  -9  -5    1.60    1.70
  -5  -9  -5   -3.10    1.20
  -5  -9  -5   -0.30    1.40
   5   9   5   -0.40    1.90
   5   9   5   -0.30    1.90
   5   9   5    3.20    1.60
  -6  -9  -5  127.99    6.30
  -6  -9  -5  138.09    6.20
  -6  -9  -5  130.49    6.10
   6   9   5  126.79    6.90
   6   9   5  129.99    6.20
   6   9   5  140.89    6.50
  -7  -9  -5   -0.10    1.50
  -7  -9  -5    1.50    1.60
  -7  -9  -5    1.10    1.50
   7   9   5    0.30    1.60
   7   9   5    2.40    2.30
   7   9   5    1.40    1.90
  -8  -9  -5   -0.50    1.50
  -8  -9  -5    0.50    1.90
  -8  -9  -5   -1.50    1.40
  -8  -9  -5   -1.70    1.50
   8   9   5    2.50    1.80
   8   9   5   -2.20    1.70
   8   9   5   -2.60    2.30
  -9  -9  -5   -4.00    1.90
  -9  -9  -5    1.00    1.80
  -9  -9  -5    0.80    1.90
  -9  -9  -5    1.80    1.70
   9   9   5   -0.30    2.50
   9   9   5    2.90    1.70
   9   9   5    0.90    2.00
 -10  -9  -5  307.77   12.00
 -10  -9  -5  295.17   12.00
  10   9   5  281.67   13.20
  10   9   5  309.17   12.20
 -11  -9  -5   27.10    3.40
 -11  -9  -5   22.40    3.30
 -11  -9  -5   32.40    3.40
  11   9   5   14.40    3.90
  11   9   5   27.00    3.50
 -12  -9  -5    0.60    2.60
 -12  -9  -5    3.70    2.20
 -12  -9  -5    3.80    2.20
  12   9   5   -3.40    3.20
  12   9   5    1.00    2.00
   3 -10  -5   76.69    5.40
   3 -10  -5   83.29    5.20
   3 -10  -5   83.29    6.00
  -3  10   5   84.59    5.70
  -3  10   5   75.99    5.50
   2 -10  -5    4.50    2.00
   2 -10  -5    0.30    2.30
   2 -10  -5    6.50    2.40
  -2  10   5    5.90    2.50
  -2  10   5    4.00    2.60
   1 -10  -5    1.90    1.80
   1 -10  -5   -2.40    1.80
   1 -10  -5    1.60    1.70
  -1  10   5    2.00    2.20
  -1  10   5    2.80    2.40
  -1  10   5    2.20    1.60
   0 -10  -5   40.20    3.70
   0 -10  -5   40.70    3.60
   0 -10  -5   43.40    4.20
   0  10   5   41.80    3.50
   0  10   5   40.20    3.70
   0  10   5   44.00    4.10
  -1 -10  -5   12.00    2.30
  -1 -10  -5   13.20    2.30
  -1 -10  -5   13.80    2.60
   1  10   5   11.60    2.20
   1  10   5   14.90    3.00
   1  10   5   13.10    2.30
  -2 -10  -5    2.20    1.70
  -2 -10  -5    2.40    1.60
  -2 -10  -5    2.70    1.60
   2  10   5    1.10    2.20
   2  10   5    0.90    1.30
   2  10   5   -0.90    1.70
   2  10   5   -0.10    1.20
   2  10   5    0.70    1.70
  -3 -10  -5   13.10    2.20
  -3 -10  -5    9.30    1.90
  -3 -10  -5   13.30    2.40
   3  10   5   14.20    2.40
   3  10   5   11.20    2.00
   3  10   5    9.90    2.10
   3  10   5    8.90    2.00
   3  10   5   10.50    2.60
  -4 -10  -5   37.60    3.40
  -4 -10  -5   43.30    3.50
  -4 -10  -5   45.50    3.80
   4  10   5   45.40    3.50
   4  10   5   39.90    3.70
   4  10   5   35.50    2.70
   4  10   5   40.40    3.90
  -5 -10  -5  337.97   13.00
  -5 -10  -5  342.27   12.90
  -5 -10  -5  339.67   13.20
  -5 -10  -5  363.96   13.40
   5  10   5  344.67   13.10
   5  10   5  335.97   13.40
   5  10   5  337.07   13.50
  -6 -10  -5  158.18    7.00
  -6 -10  -5  153.08    7.00
  -6 -10  -5  136.79    6.90
   6  10   5  155.08    7.40
   6  10   5  149.59    7.20
   6  10   5  146.39    7.90
  -7 -10  -5    4.00    2.00
  -7 -10  -5    4.40    1.90
  -7 -10  -5    2.20    1.80
   7  10   5    2.60    2.20
   7  10   5   -0.50    2.40
   7  10   5    3.30    1.90
  -8 -10  -5  168.58    7.90
  -8 -10  -5  179.38    8.10
  -8 -10  -5  177.88    8.10
  -8 -10  -5  187.78    7.90
   8  10   5  182.38    8.00
   8  10   5  166.68    9.20
   8  10   5  183.18    8.30
  -9 -10  -5    0.20    1.80
  -9 -10  -5    0.90    1.90
  -9 -10  -5    0.90    1.90
  -9 -10  -5    0.40    1.80
   9  10   5   -2.50    2.80
   9  10   5   -3.30    1.80
   9  10   5    2.00    2.00
 -10 -10  -5    2.40    2.00
 -10 -10  -5    5.20    2.10
 -10 -10  -5    4.60    2.30
 -10 -10  -5    2.80    2.10
  10  10   5    1.20    3.00
  10  10   5    4.40    2.40
  10  10   5    1.70    2.10
 -11 -10  -5   -0.80    2.30
 -11 -10  -5    2.50    2.20
 -11 -10  -5   -2.90    2.20
  11  10   5    0.30    3.40
  11  10   5   -0.50    2.00
 -12 -10  -5   -1.70    2.20
 -12 -10  -5    2.80    2.50
 -12 -10  -5    1.20    2.10
  12  10   5    1.00    2.30
  12  10   5   -2.50    3.60
   2 -11  -5   45.80    4.50
   2 -11  -5   39.60    4.00
   2 -11  -5   42.50    4.60
  -2  11   5   52.59    4.90
  -2  11   5   44.50    4.40
   1 -11  -5   78.29    5.80
   1 -11  -5   84.59    5.50
   1 -11  -5   78.69    5.00
  -1  11   5   85.69    5.30
  -1  11   5   77.69    5.60
  -1  11   5   71.09    4.60
   0 -11  -5   13.40    2.80
   0 -11  -5   10.30    2.30
   0 -11  -5   13.80    2.90
   0  11   5   13.40    2.30
   0  11   5   15.30    3.20
   0  11   5   17.40    2.90
  -1 -11  -5   48.20    4.00
  -1 -11  -5   44.60    4.10
  -1 -11  -5   45.60    3.90
   1  11   5   49.60    4.80
   1  11   5   46.20    3.70
   1  11   5   43.60    3.80
  -2 -11  -5    4.40    1.90
  -2 -11  -5    2.20    1.90
  -2 -11  -5    1.40    1.90
   2  11   5    4.90    2.60
   2  11   5    3.10    1.80
   2  11   5    1.80    2.00
  -3 -11  -5  139.79    7.10
  -3 -11  -5  156.38    7.40
  -3 -11  -5  149.79    6.80
   3  11   5  137.09    7.40
   3  11   5  132.69    6.30
   3  11   5  136.89    6.20
   3  11   5  145.79    7.00
   3  11   5  145.09    6.60
  -4 -11  -5   -0.40    1.60
  -4 -11  -5    3.00    1.90
  -4 -11  -5   -0.50    1.60
   4  11   5   -1.10    1.90
   4  11   5   -1.00    1.80
   4  11   5   -0.30    1.40
   4  11   5   -1.60    2.20
  -5 -11  -5  228.68    9.70
  -5 -11  -5  229.08    9.50
  -5 -11  -5  213.98    9.10
  -5 -11  -5  209.58    9.30
   5  11   5  210.88    9.80
   5  11   5  218.08    9.70
   5  11   5  223.38    9.50
  -6 -11  -5    8.30    2.20
  -6 -11  -5    4.30    2.00
  -6 -11  -5    7.90    2.40
   6  11   5    7.90    2.90
   6  11   5    4.40    2.60
   6  11   5    7.20    2.40
  -7 -11  -5    2.10    1.80
  -7 -11  -5    1.30    2.10
  -7 -11  -5    1.30    2.10
   7  11   5   -0.60    2.00
   7  11   5    5.30    3.00
   7  11   5    2.10    2.30
  -8 -11  -5   39.00    3.70
  -8 -11  -5   38.90    3.80
  -8 -11  -5   34.60    3.40
   8  11   5   27.30    4.20
   8  11   5   33.20    3.70
   8  11   5   24.90    3.30
  -9 -11  -5   14.20    2.70
  -9 -11  -5   12.90    2.80
  -9 -11  -5   11.80    2.50
  -9 -11  -5   15.20    2.90
   9  11   5   12.10    3.80
   9  11   5   16.10    3.00
   9  11   5   16.50    3.10
 -10 -11  -5   14.50    3.00
 -10 -11  -5   19.00    3.00
 -10 -11  -5   15.90    2.90
 -10 -11  -5   21.30    3.20
  10  11   5   10.20    2.70
  10  11   5   13.10    3.90
  10  11   5   17.30    2.90
 -11 -11  -5   -0.20    2.30
 -11 -11  -5    5.70    2.40
  11  11   5    5.30    2.50
  11  11   5   -1.60    3.20
  -1  12   5   19.30    3.40
   0 -12  -5   93.79    6.40
   0 -12  -5  100.59    6.00
   0 -12  -5   94.89    5.90
   0  12   5  107.29    5.90
   0  12   5   99.39    6.80
   0  12   5   90.69    5.50
  -1 -12  -5    0.20    2.10
  -1 -12  -5    1.70    2.10
  -1 -12  -5   -0.90    1.80
   1  12   5    2.60    2.10
   1  12   5    5.30    2.40
   1  12   5    2.70    2.80
  -2 -12  -5   10.90    2.60
  -2 -12  -5    7.90    2.30
  -2 -12  -5    9.00    2.30
   2  12   5   14.90    2.60
   2  12   5   10.90    3.20
   2  12   5   11.90    2.70
  -3 -12  -5   38.30    4.00
  -3 -12  -5   41.10    3.80
  -3 -12  -5   49.30    4.30
   3  12   5   39.70    4.00
   3  12   5   43.50    3.50
   3  12   5   34.80    4.40
  -4 -12  -5    1.40    2.20
  -4 -12  -5    1.60    2.00
  -4 -12  -5   -0.40    1.70
  -4 -12  -5   -0.70    1.90
   4  12   5   -2.10    1.80
   4  12   5    1.60    2.80
   4  12   5    3.30    2.50
  -5 -12  -5   18.80    3.10
  -5 -12  -5   20.30    3.10
  -5 -12  -5   22.50    2.90
  -5 -12  -5   22.50    3.10
   5  12   5   16.90    3.00
   5  12   5   15.70    3.10
   5  12   5   19.80    3.40
  -6 -12  -5    7.40    2.60
  -6 -12  -5    6.90    2.50
  -6 -12  -5    5.30    2.10
   6  12   5    6.00    2.80
   6  12   5    3.00    2.80
   6  12   5    7.50    2.70
  -7 -12  -5   55.99    4.80
  -7 -12  -5   58.89    4.70
  -7 -12  -5   37.40    3.70
   7  12   5   38.40    4.90
   7  12   5   54.19    5.10
   7  12   5   49.70    4.50
  -8 -12  -5  128.59    6.70
  -8 -12  -5  105.79    6.10
  -8 -12  -5  117.79    6.70
   8  12   5  121.59    7.10
   8  12   5  134.29    7.30
   8  12   5  118.09    8.10
  -9 -12  -5   70.39    5.40
  -9 -12  -5   64.99    4.90
  -9 -12  -5   65.99    4.90
  -9 -12  -5   75.69    5.30
   9  12   5   68.89    5.40
   9  12   5   59.89    6.30
   9  12   5   69.49    5.30
 -10 -12  -5   13.50    2.80
 -10 -12  -5   20.60    3.30
 -10 -12  -5   10.30    2.80
 -10 -12  -5   10.60    2.80
  10  12   5   14.60    3.10
  10  12   5   10.30    2.90
  10  12   5    6.10    3.70
  -2 -13  -5  180.58    8.70
  -2 -13  -5  174.98    8.90
  -2 -13  -5  168.18    8.10
   2  13   5  159.08    8.10
   2  13   5  153.48    9.00
  -3 -13  -5   65.09    5.40
  -3 -13  -5   63.59    5.20
  -3 -13  -5   65.49    4.70
   3  13   5   68.09    5.90
   3  13   5   57.29    5.00
  -4 -13  -5   -0.10    2.40
  -4 -13  -5   -0.20    1.90
  -4 -13  -5    2.00    2.20
  -4 -13  -5    1.60    2.30
   4  13   5    1.80    3.10
   4  13   5    2.40    2.50
  -5 -13  -5  119.39    7.00
  -5 -13  -5  121.59    7.20
  -5 -13  -5  118.49    6.20
  -5 -13  -5  113.39    6.90
   5  13   5  118.59    7.20
   5  13   5  104.89    6.80
   5  13   5  115.39    8.40
  -6 -13  -5    6.20    2.60
  -6 -13  -5    8.20    2.70
  -6 -13  -5    5.50    2.30
   6  13   5   -0.30    2.60
   6  13   5    7.40    3.30
   6  13   5    3.50    2.80
  -7 -13  -5   10.80    2.40
  -7 -13  -5   10.90    3.00
  -7 -13  -5   14.80    3.10
   7  13   5   10.80    3.20
   7  13   5   17.30    3.40
   7  13   5    4.60    3.00
  -8 -13  -5    5.40    2.10
  -8 -13  -5    3.40    2.40
  -8 -13  -5    6.00    2.70
  -8 -13  -5    7.40    2.30
   8  13   5    0.50    3.20
   8  13   5    5.40    2.80
   8  13   5    6.40    3.20
  -9 -13  -5   41.30    4.50
  -9 -13  -5   47.10    4.20
  -9 -13  -5   42.20    4.10
  -9 -13  -5   52.19    4.80
   9  13   5   53.39    5.30
   9  13   5   64.99    5.60
   9  13   5   33.30    5.10
   5   8  -6   -1.10    3.70
   5   8  -6   -5.30    3.10
   5   8  -6    3.10    2.40
  -5  -8   6    0.10    2.30
  -5  -8   6    1.20    1.90
   4   8  -6    3.50    3.70
   4   8  -6   -2.10    2.50
   4   8  -6   -4.60    3.50
  -4  -8   6   -0.20    1.80
  -4  -8   6    1.40    2.40
   3   8  -6   35.90    5.30
   3   8  -6   35.00    5.10
   3   8  -6   38.20    4.00
  -3  -8   6   39.60    3.30
  -3  -8   6   43.30    3.90
  -3  -8   6   34.30    4.20
   2   8  -6   -2.30    3.40
   2   8  -6   -1.00    2.70
   2   8  -6   -0.90    2.50
  -2  -8   6    2.70    1.80
  -2  -8   6    1.70    1.70
  -2  -8   6   -2.00    1.80
   1   8  -6    8.50    3.40
   1   8  -6    4.80    2.80
   1   8  -6    3.60    4.10
   1   8  -6    7.30    3.00
  -1  -8   6   11.80    2.40
  -1  -8   6   11.30    2.90
  -1  -8   6   10.30    2.30
   0   8  -6   28.60    4.20
   0   8  -6   29.60    3.90
   0   8  -6   17.40    4.50
   0   8  -6   25.30    3.90
   0  -8   6   31.50    3.30
   0  -8   6   33.10    3.60
   0  -8   6   24.80    3.00
   0  -8   6   27.00    3.70
  -1   8  -6    0.40    3.80
  -1   8  -6    8.70    3.40
  -1   8  -6    8.80    3.00
   1  -8   6   14.10    2.70
   1  -8   6    7.00    2.20
   1  -8   6   15.20    3.20
   1  -8   6   14.30    2.60
   7   7  -6   -1.30    3.20
   7   7  -6    1.90    3.60
  -7  -7   6    6.90    2.70
  -7  -7   6    4.00    2.30
   6   7  -6   -4.40    3.10
   6   7  -6    3.30    3.40
  -6  -7   6   -1.00    1.90
  -6  -7   6    3.20    2.60
   5   7  -6  152.18    9.40
   5   7  -6  155.68    9.70
   5   7  -6  163.98    7.90
  -5  -7   6  171.98    8.80
  -5  -7   6  166.08    7.80
   4   7  -6    0.60    2.10
   4   7  -6    0.40    3.10
   4   7  -6   -3.20    3.00
  -4  -7   6    0.20    2.20
  -4  -7   6    0.70    1.80
   3   7  -6   25.90    3.40
   3   7  -6   31.50    4.70
   3   7  -6   25.00    4.50
  -3  -7   6   29.00    2.60
  -3  -7   6   27.50    3.80
  -3  -7   6   33.70    3.40
   2   7  -6  204.78   10.60
   2   7  -6  212.28    9.60
   2   7  -6  207.78   10.90
  -2  -7   6  209.58    9.00
  -2  -7   6  210.08    8.60
  -2  -7   6  208.08    9.80
   1   7  -6    4.10    3.00
   1   7  -6    6.40    2.60
   1   7  -6   -1.70    3.40
  -1  -7   6    6.50    2.00
  -1  -7   6    8.10    2.60
  -1  -7   6    6.50    1.90
   0   7  -6  259.07   11.20
   0   7  -6  253.77   11.70
   0   7  -6  243.48   12.30
   0   7  -6  259.67   10.40
   0  -7   6  247.38   10.20
   0  -7   6  255.97   10.40
   0  -7   6  235.28   10.20
   0  -7   6  244.48   11.00
  -1   7  -6   96.39    6.10
  -1   7  -6   90.69    6.60
  -1   7  -6  102.99    7.80
  -1   7  -6  107.89    6.50
   1  -7   6   96.99    5.40
   1  -7   6   95.49    6.30
   1  -7   6   94.69    5.50
   1  -7   6  111.09    5.80
  -2   7  -6   77.29    7.30
  -2   7  -6   96.89    6.70
  -2   7  -6   99.89    6.30
   2  -7   6   91.59    6.20
   2  -7   6  101.59    5.60
   2  -7   6   90.59    5.30
   2  -7   6  108.69    6.00
  -3   7  -6   56.59    5.00
  -3   7  -6   53.29    5.60
  -3   7  -6   55.69    5.30
   3  -7   6   65.59    4.60
   3  -7   6   65.49    5.10
   3  -7   6   66.69    4.80
  -4   7  -6    1.50    3.20
  -4   7  -6   10.70    3.20
   4  -7   6   13.20    2.50
   8   6  -6   26.40    4.50
   8   6  -6   18.80    4.60
  -8  -6   6   17.50    3.10
  -8  -6   6   32.90    4.60
   7   6  -6    9.50    3.50
   7   6  -6    3.60    3.50
  -7  -6   6    8.20    2.50
  -7  -6   6    7.80    3.00
   6   6  -6   26.90    4.20
   6   6  -6   28.80    5.00
  -6  -6   6   28.50    3.40
  -6  -6   6   26.20    3.90
   5   6  -6    9.20    3.40
   5   6  -6    4.90    2.10
   5   6  -6    7.00    3.40
  -5  -6   6   10.50    2.20
  -5  -6   6   10.30    2.80
   4   6  -6   26.00    4.10
   4   6  -6   27.90    4.30
   4   6  -6   28.40    3.10
  -4  -6   6   20.80    3.30
  -4  -6   6   24.60    2.90
   3   6  -6  100.09    7.20
   3   6  -6  108.59    5.80
   3   6  -6   91.79    6.90
  -3  -6   6  101.59    4.60
  -3  -6   6   98.69    5.30
  -3  -6   6  111.09    6.30
   2   6  -6    1.50    2.60
   2   6  -6    0.90    2.00
   2   6  -6    5.70    3.20
  -2  -6   6    6.40    1.80
  -2  -6   6    5.70    1.60
  -2  -6   6    8.30    2.50
   1   6  -6    3.80    2.30
   1   6  -6    2.30    2.70
   1   6  -6    2.50    2.80
  -1  -6   6    3.30    1.50
  -1  -6   6    4.60    1.70
  -1  -6   6    2.40    2.10
   0   6  -6  387.96   16.10
   0   6  -6  413.26   15.30
   0   6  -6  379.46   15.80
   0  -6   6  404.86   14.50
   0  -6   6  375.06   14.40
   0  -6   6  391.46   15.40
   0  -6   6  384.26   14.30
  -1   6  -6   -2.20    2.40
  -1   6  -6   -1.30    2.70
   1  -6   6    0.60    1.40
   1  -6   6   -0.60    1.70
   1  -6   6   -0.40    1.30
   1  -6   6   -0.20    1.60
  -2   6  -6   74.39    5.20
  -2   6  -6   88.49    6.00
  -2   6  -6   79.59    6.60
   2  -6   6   77.79    5.50
   2  -6   6   85.19    4.60
   2  -6   6   84.79    5.10
   2  -6   6   87.89    4.90
  -3   6  -6  266.77   12.20
  -3   6  -6  269.57   11.70
  -3   6  -6  248.88   10.90
   3  -6   6  270.67   10.70
   3  -6   6  259.07   11.00
   3  -6   6  257.67   11.40
  -4   6  -6   26.00    4.10
  -4   6  -6   33.70    4.30
  -4   6  -6   36.10    4.20
   4  -6   6   43.90    4.50
   4  -6   6   35.90    3.90
   4  -6   6   33.50    3.30
  -5   6  -6   15.00    3.40
  -5   6  -6   12.10    3.80
  -5   6  -6   19.70    3.60
   5  -6   6   18.40    2.80
   5  -6   6   20.00    3.60
   5  -6   6   16.90    3.20
   8   5  -6   33.50    5.10
   8   5  -6   35.60    4.60
  -8  -5   6   44.10    4.40
  -8  -5   6   49.40    5.20
   7   5  -6  104.19    7.90
   7   5  -6  100.69    6.70
  -7  -5   6  103.29    5.80
  -7  -5   6   94.29    6.50
   6   5  -6   -2.50    3.00
   6   5  -6   -1.70    2.50
  -6  -5   6   -1.80    1.50
  -6  -5   6    1.50    2.20
   5   5  -6   11.50    3.50
   5   5  -6    9.00    3.00
   5   5  -6   10.50    2.00
  -5  -5   6    8.60    2.40
  -5  -5   6   11.00    2.30
   4   5  -6    9.50    2.90
   4   5  -6    8.90    3.10
   4   5  -6    9.70    2.10
  -4  -5   6    9.90    2.00
  -4  -5   6   10.50    2.60
   3   5  -6   99.29    6.90
   3   5  -6  104.69    5.50
   3   5  -6  104.39    6.70
  -3  -5   6  107.99    4.30
  -3  -5   6  108.99    5.30
  -3  -5   6   99.89    6.10
   2   5  -6  157.68    8.30
   2   5  -6  156.58    8.40
   2   5  -6  160.58    7.10
  -2  -5   6  133.19    7.40
  -2  -5   6  155.28    6.70
  -2  -5   6  157.68    6.30
   1   5  -6    5.00    2.70
   1   5  -6   11.10    2.20
  -1  -5   6   11.10    1.80
  -1  -5   6   13.80    2.00
  -1  -5   6    6.40    2.10
   0   5  -6    1.90    2.40
   0   5  -6   -1.30    1.80
   0  -5   6   -1.10    1.70
   0  -5   6    0.70    1.20
   0  -5   6    1.00    1.40
   0  -5   6    0.00    1.60
   0  -5   6    0.10    1.20
  -1   5  -6   84.19    5.90
  -1   5  -6   80.29    5.10
   1  -5   6   82.39    4.40
   1  -5   6   78.89    5.20
   1  -5   6   75.39    4.50
   1  -5   6   81.09    4.30
   1  -5   6   83.99    4.90
  -2   5  -6   63.59    5.70
  -2   5  -6   76.39    5.20
   2  -5   6   67.49    4.30
   2  -5   6   73.49    4.90
   2  -5   6   64.19    3.80
   2  -5   6   71.19    4.50
   2  -5   6   75.59    4.20
  -3   5  -6    7.30    3.00
  -3   5  -6    9.20    2.50
  -3   5  -6    7.60    2.70
   3  -5   6   12.10    2.50
   3  -5   6   11.40    2.20
   3  -5   6    7.70    1.70
   3  -5   6    7.70    2.30
  -4   5  -6  125.39    7.60
  -4   5  -6  143.39    7.10
  -4   5  -6  143.59    7.40
   4  -5   6  129.19    7.10
   4  -5   6  149.39    6.70
   4  -5   6  144.59    7.10
  -5   5  -6   46.30    4.60
  -5   5  -6   41.70    4.40
  -5   5  -6   48.20    4.60
   5  -5   6   51.49    4.00
   5  -5   6   45.70    4.40
   5  -5   6   50.29    4.40
  -6   5  -6  127.39    7.50
  -6   5  -6  127.19    7.00
   6  -5   6  122.09    7.40
   6  -5   6  126.79    7.10
   6  -5   6  119.19    6.50
   9   4  -6   -1.30    3.10
  -9  -4   6   -1.60    2.10
   8   4  -6   65.59    5.40
   8   4  -6   56.89    6.30
  -8  -4   6   64.89    5.60
  -8  -4   6   55.19    4.60
   7   4  -6    1.20    3.10
   7   4  -6    1.90    2.40
  -7  -4   6   -0.40    2.10
  -7  -4   6    1.40    2.00
   6   4  -6   37.70    4.30
   6   4  -6   40.90    5.00
  -6  -4   6   46.10    4.10
  -6  -4   6   45.20    3.80
   5   4  -6   94.49    4.80
   5   4  -6   92.99    6.70
   5   4  -6   96.59    6.20
  -5  -4   6   86.59    5.00
  -5  -4   6   81.99    5.50
   4   4  -6   72.79    5.90
   4   4  -6   72.39    5.40
   4   4  -6   73.09    4.10
  -4  -4   6   73.79    4.30
  -4  -4   6   66.69    4.90
   3   4  -6   65.49    5.10
   3   4  -6   61.39    5.30
   3   4  -6   58.59    3.90
  -3  -4   6   64.89    2.50
  -3  -4   6   64.69    3.80
  -3  -4   6   61.09    4.40
   2   4  -6   49.30    3.50
   2   4  -6   39.80    4.30
  -2  -4   6   50.49    4.00
  -2  -4   6   43.80    4.10
  -2  -4   6   50.79    3.10
  -2  -4   6   48.20    2.60
   1   4  -6    7.20    1.80
   1   4  -6   10.00    2.70
  -1  -4   6    8.20    1.50
  -1  -4   6    9.90    1.60
  -1  -4   6   11.30    2.20
  -1  -4   6    5.10    1.80
   0   4  -6   70.29    5.20
   0   4  -6   70.49    4.30
   0  -4   6   73.89    3.70
   0  -4   6   71.29    3.90
   0  -4   6   72.89    4.70
   0  -4   6   72.09    4.60
  -1   4  -6    1.00    1.90
  -1   4  -6    2.20    2.30
   1  -4   6    2.60    1.30
   1  -4   6   -0.30    1.00
   1  -4   6    1.80    1.50
   1  -4   6    0.90    1.60
   1  -4   6    0.30    1.00
  -2   4  -6   -0.40    1.90
  -2   4  -6    1.70    2.20
   2  -4   6   -0.30    1.00
   2  -4   6   -0.30    1.10
   2  -4   6    1.60    1.40
   2  -4   6    1.00    1.70
   2  -4   6    0.50    1.50
  -3   4  -6  122.29    6.80
  -3   4  -6  117.89    6.20
   3  -4   6  118.09    5.80
   3  -4   6  119.39    6.40
   3  -4   6  125.39    5.60
   3  -4   6  108.69    5.70
  -4   4  -6   -0.10    2.30
  -4   4  -6   -1.30    2.00
  -4   4  -6   -1.90    2.00
   4  -4   6   -1.60    1.20
   4  -4   6   -2.40    1.40
   4  -4   6   -1.20    1.20
   4  -4   6    0.40    1.70
  -5   4  -6    9.10    2.70
  -5   4  -6   15.60    2.90
  -5   4  -6   11.90    2.80
   5  -4   6   16.30    2.50
   5  -4   6   17.90    3.10
   5  -4   6   10.60    2.00
  -6   4  -6  368.76   15.10
  -6   4  -6  365.76   14.50
  -6   4  -6  337.67   14.10
   6  -4   6  343.77   14.70
   6  -4   6  374.06   13.90
   6  -4   6  372.86   14.30
  -7   4  -6   28.40    3.70
  -7   4  -6   25.70    3.70
   7  -4   6   23.40    3.30
   7  -4   6   26.20    3.30
   9   3  -6   -2.10    2.80
  -9  -3   6   -0.10    2.00
  -9  -3   6    3.90    2.50
   8   3  -6   -0.90    2.20
   8   3  -6    3.00    3.00
  -8  -3   6   -0.90    1.80
  -8  -3   6   -0.40    2.20
   7   3  -6    1.70    2.80
   7   3  -6    3.30    2.30
  -7  -3   6    0.40    2.20
  -7  -3   6    1.30    1.60
  -7  -3   6    1.40    1.90
   6   3  -6   58.99    5.70
   6   3  -6   72.29    5.30
  -6  -3   6   68.79    4.50
  -6  -3   6   63.39    4.80
   5   3  -6   55.79    5.40
   5   3  -6   66.79    5.00
  -5  -3   6   60.09    4.70
  -5  -3   6   67.09    4.00
   4   3  -6   48.20    3.00
   4   3  -6   51.29    5.00
   4   3  -6   53.09    4.50
  -4  -3   6   49.99    3.50
  -4  -3   6   41.80    3.70
   3   3  -6  355.76   12.60
   3   3  -6  339.77   14.10
  -3  -3   6  349.77   13.60
  -3  -3   6  370.86   12.90
   2   3  -6   49.10    3.20
   2   3  -6   49.10    4.30
  -2  -3   6   53.29    3.10
  -2  -3   6   52.89    4.20
  -2  -3   6   54.69    2.40
  -2  -3   6   47.10    3.70
   1   3  -6  118.19    6.40
   1   3  -6  120.99    5.30
  -1  -3   6  114.39    5.70
  -1  -3   6  107.09    5.90
  -1  -3   6  123.49    4.80
  -1  -3   6  115.89    4.90
  -1  -3   6  114.39    4.60
   0   3  -6   97.59    5.80
   0   3  -6   97.39    4.90
   0  -3   6   89.29    5.10
   0  -3   6   92.79    5.20
   0  -3   6   99.79    4.20
   0  -3   6   91.69    4.40
  -1   3  -6  190.88    7.80
  -1   3  -6  188.08    8.40
   1  -3   6  181.08    7.90
   1  -3   6  178.98    6.80
   1  -3   6  166.48    7.80
   1  -3   6  186.28    7.40
   1  -3   6  184.08    7.00
  -2   3  -6  391.36   14.30
  -2   3  -6  398.26   14.90
  -2   3  -6  375.36   12.60
   2  -3   6  400.56   13.40
   2  -3   6  391.86   13.50
   2  -3   6  408.46   13.00
   2  -3   6  384.76   14.50
   2  -3   6  370.86   13.90
   2  -3   6  353.86   14.10
  -3   3  -6   17.10    2.70
  -3   3  -6   15.90    1.40
  -3   3  -6   14.10    2.40
   3  -3   6   15.60    2.20
   3  -3   6   18.50    2.40
   3  -3   6   16.90    1.80
   3  -3   6   19.60    2.60
  -4   3  -6  111.79    6.10
  -4   3  -6  126.89    5.00
  -4   3  -6  130.59    6.50
   4  -3   6  122.79    5.80
   4  -3   6  126.99    6.40
   4  -3   6  117.69    5.40
   4  -3   6  116.99    5.80
  -5   3  -6   90.79    5.20
  -5   3  -6   79.19    4.00
  -5   3  -6   75.49    5.00
  -5   3  -6   84.29    4.90
   5  -3   6   74.39    5.10
   5  -3   6   77.79    4.40
   5  -3   6   83.99    4.80
   5  -3   6   79.29    4.50
  -6   3  -6   -0.60    1.40
  -6   3  -6   -2.00    1.90
  -6   3  -6   -1.60    2.10
  -6   3  -6   -1.80    1.80
   6  -3   6   -0.50    1.70
   6  -3   6   -0.60    1.50
  -7   3  -6   37.10    3.40
  -7   3  -6   34.80    3.80
  -7   3  -6   32.50    4.00
   7  -3   6   37.00    3.60
   7  -3   6   31.10    3.70
  -8   3  -6   95.49    6.00
  -8   3  -6   94.99    6.00
   8  -3   6  102.29    6.10
   8  -3   6   99.69    5.90
   9   2  -6    4.30    2.90
  -9  -2   6    2.60    2.30
  -9  -2   6    0.20    2.30
   8   2  -6   61.49    4.70
   8   2  -6   69.09    6.20
  -8  -2   6   55.49    4.40
  -8  -2   6   53.49    4.80
   7   2  -6   42.50    5.00
   7   2  -6   44.80    4.20
  -7  -2   6   48.60    4.20
  -7  -2   6   48.80    3.80
   6   2  -6  141.39    7.20
   6   2  -6  123.89    7.80
  -6  -2   6  138.49    7.10
  -6  -2   6  139.89    6.20
  -6  -2   6  148.99    6.90
   5   2  -6    7.60    1.40
   5   2  -6    5.20    2.60
   5   2  -6    7.90    2.40
  -5  -2   6    3.60    1.60
  -5  -2   6    7.20    2.00
   4   2  -6    0.70    0.90
   4   2  -6    1.20    1.00
   4   2  -6    0.00    2.00
   4   2  -6    0.50    1.90
  -4  -2   6   -0.20    1.30
  -4  -2   6    0.10    1.60
   3   2  -6   66.79    3.20
   3   2  -6   69.29    2.90
   3   2  -6   68.09    4.80
   3   2  -6   64.89    3.10
  -3  -2   6   75.69    3.80
  -3  -2   6   68.09    4.30
  -3  -2   6   70.29    4.80
   2   2  -6  119.69    5.10
   2   2  -6  129.39    4.60
   2   2  -6  131.29    6.60
   2   2  -6  122.69    4.30
  -2  -2   6  119.79    6.20
  -2  -2   6  128.39    5.30
  -2  -2   6  129.19    6.00
   1   2  -6   51.89    2.70
   1   2  -6   46.60    3.90
   1   2  -6   47.70    2.00
   1   2  -6   43.70    2.90
  -1  -2   6   48.20    2.60
  -1  -2   6   53.49    2.40
  -1  -2   6   50.29    3.50
  -1  -2   6   47.20    3.80
   0   2  -6   26.30    3.10
   0   2  -6   24.30    2.20
   0   2  -6   21.90    1.90
   0   2  -6   23.00    1.20
   0  -2   6   23.90    2.70
   0  -2   6   27.50    1.80
   0  -2   6   18.30    2.40
   0  -2   6   23.80    1.70
   0  -2   6   25.30    1.90
  -1   2  -6  157.28    5.20
  -1   2  -6  164.68    6.50
  -1   2  -6  142.79    5.70
  -1   2  -6  155.08    7.20
   1  -2   6  155.68    5.70
   1  -2   6  150.78    6.90
   1  -2   6  150.78    6.80
   1  -2   6  159.48    5.30
   1  -2   6  146.69    6.10
   1  -2   6  150.98    5.70
  -2   2  -6    1.50    0.70
  -2   2  -6    0.10    1.40
  -2   2  -6   -0.10    0.80
  -2   2  -6    2.70    2.00
   2  -2   6   -0.30    1.40
   2  -2   6    0.80    0.70
   2  -2   6   -0.10    0.60
   2  -2   6   -1.00    1.10
   2  -2   6    0.80    1.40
   2  -2   6    0.10    0.70
  -3   2  -6    0.30    0.90
  -3   2  -6    0.90    1.60
  -3   2  -6    1.80    1.70
   3  -2   6    0.90    0.90
   3  -2   6    0.80    1.40
   3  -2   6    1.50    1.50
   3  -2   6   -0.10    0.70
   3  -2   6   -0.10    1.30
  -4   2  -6   31.30    2.40
  -4   2  -6   29.70    3.10
  -4   2  -6   26.60    2.90
   4  -2   6   32.70    2.50
   4  -2   6   27.90    2.90
   4  -2   6   29.80    3.10
   4  -2   6   31.00    2.90
  -5   2  -6  163.08    7.50
  -5   2  -6  169.38    7.40
  -5   2  -6  167.38    6.70
   5  -2   6  168.68    6.90
   5  -2   6  162.58    7.30
   5  -2   6  164.48    7.10
  -6   2  -6   25.50    3.10
  -6   2  -6   29.50    2.70
  -6   2  -6   28.70    3.30
  -6   2  -6   26.20    2.80
   6  -2   6   26.90    2.90
   6  -2   6   31.00    2.90
   6  -2   6   30.30    3.00
  -7   2  -6    5.40    2.00
  -7   2  -6    4.00    2.40
  -7   2  -6    5.40    2.50
   7  -2   6    5.40    1.80
   7  -2   6    3.80    1.80
  -8   2  -6   19.30    3.30
  -8   2  -6   27.60    3.50
  -8   2  -6   18.40    2.90
   8  -2   6   22.10    3.00
   8  -2   6   26.70    3.10
  -9   2  -6  241.38   10.30
  -9   2  -6  219.08   10.30
  -9   2  -6  244.08   10.70
   9  -2   6  257.17   10.90
   9  -2   6  243.28   10.40
   9   1  -6   18.10    3.60
  -9  -1   6   21.60    3.30
   8   1  -6   24.90    3.80
  -8  -1   6   24.20    3.10
  -8  -1   6   20.40    3.30
   7   1  -6   67.19    4.70
   7   1  -6   69.49    5.50
  -7  -1   6   69.49    4.60
  -7  -1   6   65.49    4.80
   6   1  -6   11.90    2.40
   6   1  -6    8.70    2.70
  -6  -1   6    7.20    2.00
  -6  -1   6    8.50    2.30
  -6  -1   6    9.30    2.10
   5   1  -6    7.50    1.60
   5   1  -6    8.80    2.90
   5   1  -6    7.60    2.10
  -5  -1   6   10.40    2.20
  -5  -1   6    5.70    1.80
   4   1  -6  842.42   28.80
   4   1  -6  882.91   30.20
   4   1  -6  847.12   28.30
  -4  -1   6  917.11   29.90
  -4  -1   6  876.71   29.30
   3   1  -6  102.29    4.10
   3   1  -6  102.59    4.30
   3   1  -6  114.99    6.00
  -3  -1   6  101.09    5.80
  -3  -1   6  102.39    5.20
  -3  -1   6  107.59    4.80
   2   1  -6  224.48    7.80
   2   1  -6  223.18    7.60
   2   1  -6  217.18    9.30
   2   1  -6  213.08    7.70
  -2  -1   6  210.58    8.70
  -2  -1   6  210.18    9.10
  -2  -1   6  221.28    8.10
   1   1  -6   11.40    1.10
   1   1  -6   14.50    1.30
   1   1  -6   15.00    1.40
   1   1  -6   10.70    1.30
   1   1  -6   11.90    2.30
   1   1  -6   13.50    1.20
  -1  -1   6   11.50    0.80
  -1  -1   6   12.70    0.90
  -1  -1   6    9.30    2.00
  -1  -1   6   16.40    2.10
  -1  -1   6   16.30    1.50
   0   1  -6  362.16   12.60
   0   1  -6  378.06   14.20
   0   1  -6  384.16   12.60
   0   1  -6  384.56   13.10
   0   1  -6  383.26   12.40
   0  -1   6  376.76   12.70
   0  -1   6  391.26   12.80
   0  -1   6  363.56   13.90
   0  -1   6  385.26   12.70
   0  -1   6  372.36   13.60
  -1   1  -6  140.49    5.20
  -1   1  -6  149.29    5.90
  -1   1  -6  137.19    6.60
   1  -1   6  153.58    5.80
   1  -1   6  145.89    5.20
   1  -1   6  134.39    6.20
   1  -1   6  139.99    6.50
   1  -1   6  153.38    5.20
  -2   1  -6   10.70    1.10
  -2   1  -6    9.90    1.70
  -2   1  -6    9.20    2.00
  -2   1  -6   10.50    1.10
   2  -1   6   11.00    2.00
   2  -1   6   12.00    1.10
   2  -1   6   15.10    1.70
   2  -1   6   11.90    1.20
   2  -1   6    8.90    1.80
   2  -1   6   10.70    1.00
  -3   1  -6  257.67    9.60
  -3   1  -6  248.08    8.80
  -3   1  -6  260.67   10.00
   3  -1   6  246.68    9.80
   3  -1   6  240.38    8.70
   3  -1   6  239.58    9.30
   3  -1   6  251.57    9.70
   3  -1   6  258.97    8.90
  -4   1  -6   75.09    3.50
  -4   1  -6   65.29    4.00
  -4   1  -6   69.59    4.30
   4  -1   6   73.09    3.90
   4  -1   6   72.09    4.10
   4  -1   6   65.29    3.30
   4  -1   6   67.29    3.00
  -5   1  -6  188.98    7.30
  -5   1  -6  186.98    7.90
  -5   1  -6  199.48    7.80
   5  -1   6  171.88    7.10
   5  -1   6  175.18    7.70
   5  -1   6  184.88    7.70
  -6   1  -6  138.59    6.10
  -6   1  -6  144.69    6.00
  -6   1  -6  136.19    6.50
   6  -1   6  135.19    6.30
   6  -1   6  130.69    5.90
   6  -1   6  136.19    6.50
  -7   1  -6  131.09    6.00
  -7   1  -6  132.99    6.60
  -7   1  -6  145.79    7.00
  -7   1  -6  150.58    6.50
   7  -1   6  149.69    6.40
   7  -1   6  141.09    6.80
   7  -1   6  141.39    6.50
  -8   1  -6    3.70    2.30
  -8   1  -6    0.90    2.30
  -8   1  -6   -0.90    2.00
   8  -1   6    5.70    1.90
   8  -1   6    5.80    2.10
   8  -1   6    8.70    2.50
  -9   1  -6    6.10    2.50
  -9   1  -6    4.30    2.20
  -9   1  -6    7.70    2.60
   9  -1   6    2.40    1.90
   9  -1   6    5.50    2.10
 -10   1  -6    8.10    2.70
 -10   1  -6    9.90    2.80
 -10   1  -6   12.00    3.00
  10  -1   6    7.40    2.50
  10  -1   6    5.30    2.30
   9   0  -6   53.79    5.10
  -9   0   6   52.69    4.90
   8   0  -6   68.49    5.10
   8   0  -6   64.39    5.20
  -8   0   6   54.49    4.90
   7   0  -6  105.09    5.60
   7   0  -6   82.79    6.00
  -7   0   6   98.89    5.50
   6   0  -6   61.29    5.10
   6   0  -6   66.29    4.50
  -6   0   6   64.19    4.20
  -6   0   6   70.39    4.60
   5   0  -6   56.69    4.60
   5   0  -6   54.89    4.30
  -5   0   6   65.99    4.10
  -5   0   6   58.19    3.70
  -5   0   6   57.59    4.20
   4   0  -6   53.49    2.10
   4   0  -6   57.89    4.10
  -4   0   6   56.89    3.50
  -4   0   6   53.19    4.30
  -4   0   6   49.60    3.70
   3   0  -6   -0.10    1.00
   3   0  -6    1.10    0.60
   3   0  -6    2.40    1.90
   3   0  -6   -0.20    0.50
  -3   0   6    1.10    1.50
  -3   0   6   -0.20    1.10
  -3   0   6   -0.30    1.70
   2   0  -6  114.09    5.90
   2   0  -6  113.59    4.20
   2   0  -6  115.59    4.20
   2   0  -6  111.79    4.50
  -2   0   6  109.39    5.20
  -2   0   6  118.89    4.80
  -2   0   6  109.89    5.70
   1   0  -6   34.30    3.30
   1   0  -6   31.20    2.00
   1   0  -6   32.90    1.90
   1   0  -6   34.30    1.90
   1   0  -6   30.70    1.90
   1   0  -6   31.80    1.70
  -1   0   6   31.30    2.50
  -1   0   6   30.00    1.90
  -1   0   6   29.00    2.90
   0   0  -6  789.72   25.50
   0   0  -6  772.72   27.10
   0   0  -6  840.22   25.60
   0   0  -6  816.62   25.60
   0   0  -6  819.72   26.00
   0   0  -6  778.92   25.70
   0   0   6  731.73   26.80
   0   0   6  789.62   25.70
   0   0   6  775.42   25.50
   0   0   6  812.22   25.60
   0   0   6  762.32   25.50
   0   0   6  782.22   26.40
  -1   0  -6  623.24   20.00
  -1   0  -6  579.44   21.20
  -1   0  -6  580.94   19.60
  -1   0  -6  616.84   20.40
   1   0   6  615.54   20.80
   1   0   6  663.63   20.20
   1   0   6  612.34   19.70
   1   0   6  612.64   20.10
   1   0   6  591.34   21.00
   1   0   6  592.34   20.00
  -2   0  -6  536.35   19.00
  -2   0  -6  565.14   17.80
  -2   0  -6  557.14   18.30
   2   0   6  538.55   18.70
   2   0   6  543.65   18.10
   2   0   6  523.55   17.30
   2   0   6  524.45   18.60
   2   0   6  516.95   17.80
  -3   0  -6  128.99    5.70
  -3   0  -6  134.39    6.10
   3   0   6  130.99    5.90
   3   0   6  124.89    4.40
   3   0   6  133.29    5.90
   3   0   6  122.99    5.40
   3   0   6  135.49    5.10
   3   0   6  130.19    4.70
   3   0   6  130.29    4.40
  -4   0  -6   47.90    3.40
  -4   0  -6   50.19    3.40
  -4   0  -6   46.20    2.70
   4   0   6   45.80    2.90
   4   0   6   47.00    3.30
   4   0   6   48.30    2.40
   4   0   6   46.40    2.00
  -5   0  -6  376.56   13.10
  -5   0  -6  370.26   12.70
  -5   0  -6  360.86   12.50
  -5   0  -6  348.07   13.10
   5   0   6  347.87   12.10
   5   0   6  356.86   12.40
   5   0   6  360.36   13.20
   5   0   6  349.96   13.00
  -6   0  -6   66.29    3.70
  -6   0  -6   61.69    4.20
  -6   0  -6   68.19    3.70
   6   0   6   66.39    4.00
   6   0   6   66.29    3.50
   6   0   6   62.79    4.20
  -7   0  -6   41.90    3.50
  -7   0  -6   45.10    3.90
  -7   0  -6   41.20    2.80
   7   0   6   50.29    3.70
   7   0   6   44.40    3.60
   7   0   6   43.40    3.20
  -8   0  -6   23.30    3.00
  -8   0  -6   20.10    2.70
  -8   0  -6   16.80    2.80
   8   0   6   17.20    2.40
   8   0   6   22.20    2.90
   8   0   6   19.00    2.60
  -9   0  -6    1.00    2.30
  -9   0  -6   -1.60    2.10
  -9   0  -6    2.60    2.30
   9   0   6    0.60    1.70
   9   0   6    3.60    1.90
   9   0   6    0.20    1.80
 -10   0  -6   12.40    2.90
 -10   0  -6   17.10    3.10
 -10   0  -6   15.60    2.90
  10   0   6   13.40    2.60
  10   0   6   16.20    2.80
 -11   0  -6    0.80    2.20
 -11   0  -6    3.90    2.70
   9  -1  -6    1.50    2.30
  -9   1   6    2.50    2.10
  -9   1   6   -2.40    2.40
   8  -1  -6   35.80    5.70
   8  -1  -6   38.00    4.00
  -8   1   6   40.30    4.20
  -8   1   6   43.50    3.50
   7  -1  -6    5.80    2.10
   7  -1  -6    7.20    2.00
   7  -1  -6    2.90    2.10
  -7   1   6    2.50    2.10
  -7   1   6    3.90    1.80
   6  -1  -6   49.99    4.20
   6  -1  -6   50.99    4.00
   6  -1  -6   44.00    3.90
  -6   1   6   48.50    3.40
  -6   1   6   43.50    4.00
   5  -1  -6   30.80    3.00
   5  -1  -6   26.90    3.20
   5  -1  -6   31.90    3.40
   4  -1  -6    1.30    1.20
   4  -1  -6   -1.40    1.50
  -4   1   6   -1.40    1.40
  -4   1   6   -1.00    1.40
  -4   1   6    0.10    1.80
   3  -1  -6    4.00    0.50
   3  -1  -6    3.90    1.30
   3  -1  -6    5.10    0.50
  -3   1   6    4.50    1.40
  -3   1   6    4.30    1.30
  -3   1   6    4.00    1.80
   2  -1  -6    0.70    0.50
   2  -1  -6    1.70    1.00
  -2   1   6    0.10    1.30
  -2   1   6   -0.50    1.30
  -2   1   6    0.20    1.00
  -2   1   6    0.00    1.10
   1  -1  -6  115.99    4.30
   1  -1  -6  119.29    4.60
   1  -1  -6  115.09    4.50
   1  -1  -6  122.29    4.30
  -1   1   6  108.09    5.20
  -1   1   6  120.59    4.60
  -1   1   6  110.69    5.00
  -1   1   6  111.79    5.60
   0  -1  -6   13.80    1.30
   0  -1  -6   12.40    1.20
   0  -1  -6   12.90    1.10
   0  -1  -6   10.50    1.20
   0   1   6   11.10    1.10
   0   1   6   14.80    0.80
   0   1   6   13.20    0.70
   0   1   6   15.20    1.70
   0   1   6   13.70    2.10
   0   1   6    9.70    1.70
   0   1   6   14.60    1.40
  -1  -1  -6    1.60    0.80
  -1  -1  -6    0.80    0.90
   1   1   6   -0.60    0.70
   1   1   6    0.00    1.20
   1   1   6    0.20    0.70
   1   1   6    0.70    0.60
   1   1   6    0.40    0.90
  -2  -1  -6   73.89    3.30
  -2  -1  -6   75.39    4.30
  -2  -1  -6   76.99    3.60
   2   1   6   81.39    3.30
   2   1   6   74.89    4.10
   2   1   6   77.89    3.80
   2   1   6   77.69    3.40
   2   1   6   78.39    3.40
  -3  -1  -6  200.28    8.00
  -3  -1  -6  198.48    7.40
  -3  -1  -6  192.98    7.00
   3   1   6  196.08    7.60
   3   1   6  174.68    7.60
   3   1   6  195.38    7.20
   3   1   6  185.78    6.30
  -4  -1  -6   -1.50    1.00
  -4  -1  -6   -1.10    1.30
  -4  -1  -6    1.00    0.90
  -4  -1  -6    0.10    1.30
  -4  -1  -6   -0.90    1.10
   4   1   6    0.30    0.50
   4   1   6    1.00    0.40
   4   1   6    1.40    1.10
   4   1   6    1.10    1.30
  -5  -1  -6   53.99    3.30
  -5  -1  -6   58.29    3.30
  -5  -1  -6   47.30    3.30
  -5  -1  -6   54.69    2.60
   5   1   6   53.69    2.30
   5   1   6   57.49    3.30
   5   1   6   57.39    3.70
   5   1   6   52.59    2.60
  -6  -1  -6  360.86   12.30
  -6  -1  -6  329.07   12.60
  -6  -1  -6  326.47   11.50
  -6  -1  -6  355.36   12.40
   6   1   6  345.17   12.90
   6   1   6  345.77   12.10
   6   1   6  344.67   11.70
   6   1   6  338.17   12.60
  -7  -1  -6  119.29    4.90
  -7  -1  -6  107.79    5.80
  -7  -1  -6  117.09    5.60
   7   1   6  119.69    5.70
   7   1   6  122.19    5.90
   7   1   6  118.29    5.40
  -8  -1  -6  119.79    6.00
  -8  -1  -6  116.49    5.90
  -8  -1  -6  111.49    5.80
   8   1   6  117.99    6.10
   8   1   6  112.49    5.80
   8   1   6  124.89    5.70
  -9  -1  -6  280.57   10.90
  -9  -1  -6  266.07   10.90
  -9  -1  -6  254.97   10.50
   9   1   6  278.47   10.80
   9   1   6  268.47   10.80
   9   1   6  242.08   10.70
 -10  -1  -6   18.60    2.80
 -10  -1  -6   15.40    3.00
 -10  -1  -6   15.70    2.80
  10   1   6   19.60    3.10
  10   1   6   19.80    3.00
  10   1   6   19.30    2.80
 -11  -1  -6   51.49    4.90
 -11  -1  -6   57.39    4.50
 -11  -1  -6   53.09    4.30
  11   1   6   65.19    4.90
  11   1   6   64.89    5.00
  -9   2   6    2.20    2.20
  -9   2   6   -0.90    2.50
   8  -2  -6   32.30    4.00
  -8   2   6   31.80    3.40
  -8   2   6   24.60    3.70
   7  -2  -6   75.79    5.10
   7  -2  -6   57.59    4.30
   7  -2  -6   70.09    4.80
  -7   2   6   69.19    4.30
  -7   2   6   60.99    4.80
   6  -2  -6  100.39    5.60
   6  -2  -6   85.79    5.30
   6  -2  -6   92.79    5.40
  -6   2   6   98.69    5.50
  -6   2   6   93.49    5.10
   5  -2  -6   15.00    2.40
   5  -2  -6   11.90    2.30
   5  -2  -6   17.40    2.40
  -5   2   6   14.40    2.30
  -5   2   6   17.20    2.40
   4  -2  -6   36.60    3.20
   4  -2  -6   37.60    3.10
  -4   2   6   38.80    3.20
  -4   2   6   39.30    2.90
  -4   2   6   37.60    3.60
   3  -2  -6  528.05   17.60
   3  -2  -6  568.74   18.90
   3  -2  -6  539.35   17.60
   3  -2  -6  538.15   19.00
  -3   2   6  553.34   18.80
  -3   2   6  578.74   19.00
  -3   2   6  533.95   19.30
  -3   2   6  546.75   19.20
   2  -2  -6  524.15   17.70
   2  -2  -6  501.95   16.70
   2  -2  -6  499.95   17.40
   2  -2  -6  515.05   16.70
  -2   2   6  505.55   18.20
  -2   2   6  516.05   18.10
  -2   2   6  551.24   17.80
   1  -2  -6  498.05   15.90
   1  -2  -6  480.05   15.50
   1  -2  -6  454.95   15.50
   1  -2  -6  461.85   15.90
   1  -2  -6  473.75   16.20
  -1   2   6  478.75   16.90
  -1   2   6  467.55   16.60
  -1   2   6  479.25   16.20
   0  -2  -6  203.08    7.10
   0  -2  -6  209.18    7.20
   0  -2  -6  211.58    7.00
   0  -2  -6  217.38    7.50
   0  -2  -6  203.38    7.40
   0  -2  -6  197.38    7.10
   0   2   6  202.98    7.50
   0   2   6  194.68    8.10
   0   2   6  189.08    7.90
  -1  -2  -6  448.16   14.10
  -1  -2  -6  422.66   14.20
  -1  -2  -6  393.76   13.60
   1   2   6  383.76   14.50
   1   2   6  420.66   14.20
   1   2   6  432.46   14.30
   1   2   6  410.36   13.80
   1   2   6  440.16   13.80
   1   2   6  415.66   14.90
  -2  -2  -6   72.49    3.40
  -2  -2  -6   82.09    3.60
   2   2   6   75.59    3.50
   2   2   6   70.49    3.70
   2   2   6   79.29    3.70
   2   2   6   72.09    3.90
   2   2   6   75.99    3.30
   2   2   6   77.39    3.30
  -3  -2  -6   31.00    2.20
  -3  -2  -6   26.20    2.30
   3   2   6   26.70    2.00
   3   2   6   27.40    2.20
   3   2   6   24.80    2.10
   3   2   6   23.10    2.40
  -4  -2  -6  117.49    5.30
  -4  -2  -6  119.29    4.80
  -4  -2  -6  128.19    5.00
   4   2   6  117.49    4.90
   4   2   6  116.39    5.00
   4   2   6  118.19    5.50
   4   2   6  127.09    4.30
  -5  -2  -6    8.00    1.70
  -5  -2  -6   10.30    1.60
  -5  -2  -6   10.50    1.60
  -5  -2  -6   13.40    1.80
  -5  -2  -6   10.20    1.10
   5   2   6   12.30    1.70
   5   2   6    9.60    1.10
   5   2   6   11.00    0.90
   5   2   6    8.00    1.70
  -6  -2  -6   98.49    3.90
  -6  -2  -6  108.69    4.70
  -6  -2  -6  102.19    5.00
  -6  -2  -6  100.69    4.90
   6   2   6  105.29    4.00
   6   2   6  103.09    4.90
   6   2   6   99.79    5.30
   6   2   6   99.09    4.40
  -7  -2  -6  112.59    4.00
  -7  -2  -6  114.59    5.50
  -7  -2  -6  114.19    4.80
  -7  -2  -6  118.29    5.40
   7   2   6  107.89    5.90
   7   2   6  112.49    5.40
   7   2   6  117.99    5.10
  -8  -2  -6  200.68    7.80
  -8  -2  -6  204.18    8.50
  -8  -2  -6  195.88    8.40
   8   2   6  197.68    8.40
   8   2   6  202.48    8.20
   8   2   6  204.38    8.90
   8   2   6  193.98    8.70
  -9  -2  -6  484.75   17.20
  -9  -2  -6  470.15   17.40
  -9  -2  -6  482.55   17.60
   9   2   6  467.05   17.50
   9   2   6  488.45   17.40
   9   2   6  497.85   18.00
   9   2   6  475.35   17.80
 -10  -2  -6   15.80    2.80
 -10  -2  -6   28.90    3.50
 -10  -2  -6   17.90    2.90
  10   2   6   23.90    3.40
  10   2   6   21.80    2.90
  10   2   6   24.90    3.00
 -11  -2  -6   73.09    5.60
 -11  -2  -6   68.29    5.00
 -11  -2  -6   75.59    4.80
  11   2   6   77.59    5.20
  11   2   6   74.69    5.00
  11   2   6   57.29    5.30
   8  -3  -6   57.69    5.40
  -8   3   6   65.89    4.50
   7  -3  -6   31.60    3.70
  -7   3   6   24.50    3.10
   6  -3  -6    9.40    1.90
   6  -3  -6    8.10    2.40
   6  -3  -6    9.30    2.40
  -6   3   6   12.50    2.30
  -6   3   6    7.40    2.10
   5  -3  -6   49.90    3.70
   5  -3  -6   54.09    4.00
   5  -3  -6   52.49    4.30
  -5   3   6   49.90    3.80
  -5   3   6   57.79    3.90
   4  -3  -6   -1.00    1.40
   4  -3  -6    1.10    1.30
  -4   3   6   -0.20    1.40
  -4   3   6   -0.10    1.40
  -4   3   6    2.60    1.70
   3  -3  -6  105.09    3.80
   3  -3  -6  109.99    5.00
   3  -3  -6  101.99    3.80
   3  -3  -6  105.99    5.30
  -3   3   6  107.69    5.30
  -3   3   6  111.49    5.40
  -3   3   6  105.99    4.90
   2  -3  -6   71.99    2.70
   2  -3  -6   64.79    2.70
   2  -3  -6   67.19    3.70
   2  -3  -6   64.59    3.40
  -2   3   6   73.29    3.70
  -2   3   6   69.89    4.10
  -2   3   6   71.79    3.90
   1  -3  -6  103.29    4.80
   1  -3  -6  102.09    4.40
   1  -3  -6  117.49    4.00
   1  -3  -6  100.99    4.00
   1  -3  -6  114.69    4.50
  -1   3   6  114.79    4.60
  -1   3   6  106.79    5.00
  -1   3   6  103.39    5.20
   0  -3  -6  419.56   14.10
   0  -3  -6  420.16   14.20
   0  -3  -6  437.76   14.10
   0  -3  -6  438.46   14.60
   0  -3  -6  420.46   14.10
   0  -3  -6  428.56   14.20
   0   3   6  425.36   14.30
   0   3   6  417.66   15.00
   0   3   6  402.66   14.80
  -1  -3  -6  211.28    7.50
  -1  -3  -6  221.38    7.40
  -1  -3  -6  223.88    7.80
  -1  -3  -6  227.48    8.10
   1   3   6  218.58    7.50
   1   3   6  213.18    7.70
   1   3   6  220.38    8.40
   1   3   6  225.08    7.50
   1   3   6  220.78    8.60
  -2  -3  -6  135.79    5.30
  -2  -3  -6  133.19    4.50
  -2  -3  -6  131.89    5.20
   2   3   6  134.39    5.10
   2   3   6  134.79    5.00
   2   3   6  142.89    5.90
   2   3   6  124.69    5.50
   2   3   6  131.19    5.00
  -3  -3  -6    5.30    1.20
  -3  -3  -6    3.80    1.20
   3   3   6    7.10    1.20
   3   3   6    5.60    1.10
   3   3   6    9.60    1.80
   3   3   6    5.00    1.10
   3   3   6    6.40    0.50
   3   3   6    5.10    1.30
  -4  -3  -6   38.70    1.50
  -4  -3  -6   41.40    2.30
  -4  -3  -6   38.60    2.60
  -4  -3  -6   44.50    2.70
   4   3   6   37.40    2.40
   4   3   6   40.20    2.40
   4   3   6   40.80    1.70
   4   3   6   33.80    3.00
  -5  -3  -6    2.20    0.60
  -5  -3  -6    2.70    0.80
  -5  -3  -6    0.90    1.10
  -5  -3  -6    2.00    1.40
   5   3   6    1.80    0.50
   5   3   6    1.60    1.10
   5   3   6    1.60    0.90
   5   3   6    0.90    1.40
   5   3   6    0.90    1.60
  -6  -3  -6   40.00    2.00
  -6  -3  -6   41.20    3.00
  -6  -3  -6   42.50    3.20
  -6  -3  -6   38.30    2.10
  -6  -3  -6   41.00    3.00
   6   3   6   41.60    2.00
   6   3   6   40.50    3.40
   6   3   6   39.10    3.40
   6   3   6   39.40    2.80
  -7  -3  -6    0.40    1.00
  -7  -3  -6   -0.70    1.60
  -7  -3  -6   -2.30    1.40
   7   3   6    1.90    1.40
   7   3   6    0.80    1.90
   7   3   6    0.20    1.70
  -8  -3  -6   45.90    3.50
  -8  -3  -6   51.59    3.80
  -8  -3  -6   49.00    2.50
   8   3   6   51.39    4.20
   8   3   6   48.30    3.50
   8   3   6   48.10    4.10
  -9  -3  -6  249.28    9.70
  -9  -3  -6  262.27   10.20
  -9  -3  -6  247.88   10.10
   9   3   6  246.28    9.90
   9   3   6  243.78   10.60
   9   3   6  245.78   10.10
   9   3   6  248.08   10.70
 -10  -3  -6  117.29    5.80
 -10  -3  -6  107.19    6.30
 -10  -3  -6  129.29    6.30
  10   3   6  129.89    6.40
  10   3   6  115.59    6.80
  10   3   6  125.29    6.30
  10   3   6  125.49    6.80
 -11  -3  -6    3.10    1.80
 -11  -3  -6    2.90    2.20
 -11  -3  -6    3.80    2.60
  11   3   6    0.80    2.00
  11   3   6   -3.20    2.30
  11   3   6   -2.10    2.20
  11   3   6   -0.10    1.90
 -12  -3  -6   89.09    6.30
 -12  -3  -6  101.89    5.60
 -12  -3  -6   86.09    5.60
  12   3   6   71.89    6.20
  12   3   6   95.29    6.00
  12   3   6   84.69    6.30
  12   3   6   85.29    5.70
   8  -4  -6    9.10    3.00
   8  -4  -6    6.10    2.80
  -8   4   6    2.80    2.30
   7  -4  -6   24.30    3.70
   7  -4  -6   23.80    3.50
  -7   4   6   22.90    3.00
  -7   4   6   24.20    3.20
   6  -4  -6    0.80    1.90
   6  -4  -6   -0.20    1.80
  -6   4   6   -1.00    1.60
  -6   4   6   -1.00    1.80
   5  -4  -6    6.00    2.20
   5  -4  -6   14.00    2.50
   5  -4  -6    8.70    1.80
  -5   4   6   13.70    2.30
  -5   4   6   11.60    2.30
   4  -4  -6   67.29    4.00
   4  -4  -6   59.49    4.40
   4  -4  -6   70.89    4.30
  -4   4   6   65.59    4.20
  -4   4   6   67.69    4.20
   3  -4  -6    0.40    0.70
   3  -4  -6   -0.40    1.20
   3  -4  -6   -0.90    1.50
  -3   4   6    0.30    1.40
  -3   4   6   -3.70    1.30
  -3   4   6   -1.00    1.40
   2  -4  -6   68.39    3.70
   2  -4  -6   65.79    2.90
   2  -4  -6   68.99    2.90
   2  -4  -6   68.69    4.00
  -2   4   6   72.79    4.00
  -2   4   6   72.99    4.10
  -2   4   6   72.79    3.80
   1  -4  -6  102.29    4.30
   1  -4  -6   96.79    3.90
   1  -4  -6   85.89    4.50
   1  -4  -6   92.29    3.70
   1  -4  -6   94.99    3.70
  -1   4   6   88.29    4.70
  -1   4   6   97.39    4.70
  -1   4   6   93.39    4.40
   0  -4  -6  374.96   11.90
   0  -4  -6  356.26   11.40
   0  -4  -6  311.27   11.10
   0  -4  -6  328.67   11.20
   0  -4  -6  312.47   11.80
   0   4   6  307.47   11.90
   0   4   6  307.87   11.10
   0   4   6  339.77   12.10
  -1  -4  -6   45.20    2.80
  -1  -4  -6   39.90    2.20
  -1  -4  -6   42.60    2.30
   1   4   6   44.80    3.00
   1   4   6   43.00    2.00
   1   4   6   42.20    2.10
   1   4   6   43.50    2.00
   1   4   6   39.40    2.80
   1   4   6   45.70    2.10
  -2  -4  -6  582.04   19.60
  -2  -4  -6  582.44   19.10
   2   4   6  573.14   19.90
   2   4   6  624.04   20.30
   2   4   6  586.14   19.40
   2   4   6  587.54   19.20
   2   4   6  589.14   19.40
   2   4   6  578.44   19.10
  -3  -4  -6 1737.83   55.29
  -3  -4  -6 1732.43   55.19
  -3  -4  -6 1707.63   54.59
   3   4   6 1697.03   55.09
   3   4   6 1735.13   54.79
   3   4   6 1637.44   54.59
   3   4   6 1718.33   55.39
   3   4   6 1703.63   55.09
  -4  -4  -6   18.40    1.90
  -4  -4  -6   16.90    1.80
  -4  -4  -6   18.10    1.20
   4   4   6   21.30    2.00
   4   4   6   15.50    1.70
   4   4   6   20.20    2.40
   4   4   6   14.80    2.10
   4   4   6   15.50    1.20
  -5  -4  -6   53.79    2.40
  -5  -4  -6   51.49    2.60
  -5  -4  -6   47.30    3.10
   5   4   6   51.59    3.00
   5   4   6   52.99    3.60
   5   4   6   52.69    3.70
   5   4   6   53.79    2.40
   5   4   6   54.39    2.80
  -6  -4  -6   33.90    2.80
  -6  -4  -6   29.50    2.70
  -6  -4  -6   33.60    2.00
  -6  -4  -6   32.70    2.00
   6   4   6   29.90    3.10
   6   4   6   30.80    3.20
   6   4   6   33.80    2.70
   6   4   6   35.20    2.10
   6   4   6   33.40    1.80
  -7  -4  -6   68.99    4.10
  -7  -4  -6   70.59    4.00
  -7  -4  -6   67.89    4.00
  -7  -4  -6   67.59    3.30
  -7  -4  -6   71.19    3.40
   7   4   6   78.99    4.10
   7   4   6   74.79    3.10
   7   4   6   70.29    4.60
  -8  -4  -6   38.00    3.40
  -8  -4  -6   31.70    3.00
  -8  -4  -6   33.40    2.60
   8   4   6   37.00    3.00
   8   4   6   32.70    3.60
  -9  -4  -6    0.10    1.30
  -9  -4  -6   -0.80    1.80
  -9  -4  -6   -1.80    1.40
  -9  -4  -6    0.40    1.80
   9   4   6   -0.80    1.70
   9   4   6   -0.30    2.00
 -10  -4  -6   44.00    3.60
 -10  -4  -6   36.30    3.70
 -10  -4  -6   43.10    3.40
  10   4   6   36.20    4.00
  10   4   6   35.00    3.40
 -11  -4  -6    8.10    2.40
 -11  -4  -6    7.60    2.70
 -11  -4  -6    7.00    1.90
  11   4   6    7.70    2.20
  11   4   6    3.70    2.40
 -12  -4  -6    8.80    2.40
 -12  -4  -6    9.20    3.20
  12   4   6   14.60    2.80
  12   4   6    9.00    3.10
  12   4   6   10.70    2.60
   7  -5  -6    7.70    2.90
   7  -5  -6    9.00    2.70
  -7   5   6   10.30    2.80
  -7   5   6   13.30    2.80
   6  -5  -6  201.28    9.50
   6  -5  -6  191.78    9.30
  -6   5   6  202.08    8.80
  -6   5   6  204.58    8.90
   5  -5  -6  168.28    8.50
   5  -5  -6  189.08    8.60
  -5   5   6  197.88    8.30
  -5   5   6  187.08    8.20
   4  -5  -6  100.99    5.40
   4  -5  -6   86.09    5.20
   4  -5  -6   99.69    5.60
  -4   5   6   99.89    5.10
  -4   5   6   92.39    5.20
   3  -5  -6   60.79    4.10
   3  -5  -6   57.09    2.90
   3  -5  -6   66.19    4.10
  -3   5   6   63.69    3.70
  -3   5   6   59.09    3.90
  -3   5   6   63.79    3.90
   2  -5  -6  146.59    6.40
   2  -5  -6  144.89    5.60
   2  -5  -6  148.29    6.70
  -2   5   6  150.68    6.30
  -2   5   6  141.69    6.30
  -2   5   6  149.29    6.60
   1  -5  -6  143.59    5.80
   1  -5  -6  133.09    5.10
   1  -5  -6  127.09    5.90
   1  -5  -6  143.49    5.30
  -1   5   6  137.29    5.90
  -1   5   6  128.19    5.70
  -1   5   6  126.19    5.90
   0  -5  -6  104.49    3.80
   0  -5  -6  110.69    4.60
   0  -5  -6  106.29    4.20
   0  -5  -6   93.29    4.70
   0   5   6   96.29    4.60
   0   5   6  100.39    4.80
   0   5   6  102.49    3.60
   0   5   6  100.79    4.90
   0   5   6  105.29    3.60
  -1  -5  -6   95.29    3.90
  -1  -5  -6   80.19    4.10
  -1  -5  -6   89.79    3.80
   1   5   6   85.59    3.40
   1   5   6   80.69    4.20
   1   5   6   84.39    3.50
   1   5   6   92.79    4.40
   1   5   6   81.79    3.70
  -2  -5  -6   91.29    4.00
  -2  -5  -6   84.19    4.20
  -2  -5  -6   90.69    3.70
   2   5   6   93.09    3.70
   2   5   6   84.29    3.00
   2   5   6   80.89    4.30
   2   5   6   87.99    3.60
   2   5   6   86.19    4.30
   2   5   6   85.29    3.70
  -3  -5  -6   26.40    2.20
  -3  -5  -6   27.10    2.30
  -3  -5  -6   27.70    1.80
   3   5   6   27.00    2.60
   3   5   6   27.10    1.80
   3   5   6   25.20    1.30
   3   5   6   25.30    2.40
   3   5   6   26.10    2.60
   3   5   6   26.80    2.00
  -4  -5  -6   99.59    4.50
  -4  -5  -6  102.19    3.80
  -4  -5  -6   88.29    4.40
   4   5   6   88.69    4.20
   4   5   6  100.19    5.00
   4   5   6   99.59    3.90
   4   5   6   93.89    4.80
   4   5   6   95.89    4.40
  -5  -5  -6  390.16   13.60
  -5  -5  -6  388.06   12.90
  -5  -5  -6  376.66   13.50
   5   5   6  370.46   13.40
   5   5   6  392.66   13.30
   5   5   6  372.36   14.10
   5   5   6  376.16   12.90
  -6  -5  -6  335.27   11.50
  -6  -5  -6  333.27   12.10
   6   5   6  335.77   12.10
   6   5   6  320.17   12.60
   6   5   6  331.97   11.60
  -7  -5  -6    7.50    2.00
  -7  -5  -6    8.30    1.90
  -7  -5  -6    7.30    1.80
  -7  -5  -6    6.50    1.30
   7   5   6    4.20    2.00
   7   5   6    8.10    1.20
   7   5   6    9.70    1.90
  -8  -5  -6  318.87   12.00
  -8  -5  -6  323.37   11.40
  -8  -5  -6  305.17   11.90
  -8  -5  -6  307.67   11.90
   8   5   6  323.27   10.80
   8   5   6  307.57   12.60
   8   5   6  326.27   12.00
  -9  -5  -6   25.70    2.90
  -9  -5  -6   25.50    2.50
  -9  -5  -6   20.50    2.10
  -9  -5  -6   25.80    2.90
   9   5   6   23.80    2.80
   9   5   6   27.50    3.40
 -10  -5  -6   -0.10    1.50
 -10  -5  -6   -0.40    1.70
 -10  -5  -6   -1.40    1.30
 -10  -5  -6    1.30    2.00
  10   5   6   -1.80    2.10
  10   5   6    0.10    1.80
 -11  -5  -6   -1.10    1.90
 -11  -5  -6    0.30    2.00
 -11  -5  -6   -2.50    1.70
  11   5   6    1.50    2.40
  11   5   6   -3.20    1.60
 -12  -5  -6   10.30    2.50
 -12  -5  -6   11.40    3.00
  12   5   6   11.00    2.70
  12   5   6    5.90    2.90
   7  -6  -6    9.70    2.90
   7  -6  -6   16.00    3.50
  -7   6   6   15.50    3.40
   6  -6  -6   79.89    6.10
   6  -6  -6   81.89    6.10
  -6   6   6   85.09    5.80
  -6   6   6   90.59    5.30
   5  -6  -6   64.19    5.20
   5  -6  -6   70.59    5.30
  -5   6   6   71.19    4.70
  -5   6   6   70.89    4.80
   4  -6  -6  299.07   12.30
   4  -6  -6  325.87   12.40
  -4   6   6  303.27   11.80
  -4   6   6  286.97   11.80
   3  -6  -6    5.90    1.30
   3  -6  -6    6.50    2.00
   3  -6  -6    3.40    2.10
  -3   6   6    7.30    2.20
  -3   6   6    2.60    1.30
  -3   6   6    9.00    2.20
   2  -6  -6  304.27   11.00
   2  -6  -6  306.47   12.00
   2  -6  -6  327.57   11.80
  -2   6   6  304.47   11.90
  -2   6   6  301.57   11.60
  -2   6   6  310.47   11.30
   1  -6  -6    6.60    1.30
   1  -6  -6    5.60    1.20
   1  -6  -6    7.80    1.00
   1  -6  -6    6.80    1.60
   1  -6  -6    9.40    1.90
  -1   6   6    9.30    2.10
  -1   6   6    5.90    1.40
  -1   6   6    6.50    1.80
   0  -6  -6    9.10    1.60
   0  -6  -6   11.40    0.90
   0  -6  -6   10.40    1.50
   0  -6  -6   10.90    1.90
   0   6   6    9.10    0.90
   0   6   6    9.70    2.00
   0   6   6    9.20    1.60
   0   6   6    8.40    1.70
   0   6   6    9.80    1.00
  -1  -6  -6   64.89    3.30
  -1  -6  -6   52.29    3.40
  -1  -6  -6   60.29    3.10
   1   6   6   53.19    3.60
   1   6   6   63.69    2.80
   1   6   6   55.29    3.20
   1   6   6   54.49    3.40
   1   6   6   55.59    2.70
  -2  -6  -6   95.19    4.70
  -2  -6  -6  104.49    4.50
  -2  -6  -6  107.79    4.40
   2   6   6  101.99    4.20
   2   6   6   94.89    4.80
   2   6   6   96.29    4.10
   2   6   6   97.49    4.80
  -3  -6  -6  103.49    5.10
  -3  -6  -6  114.59    5.00
  -3  -6  -6  121.49    4.80
   3   6   6  117.49    5.50
   3   6   6  117.09    5.20
   3   6   6  117.29    4.90
   3   6   6  116.49    5.50
  -4  -6  -6   19.10    1.70
  -4  -6  -6   18.50    2.00
  -4  -6  -6   19.70    2.10
   4   6   6   20.90    2.00
   4   6   6   17.40    2.50
   4   6   6   15.50    2.10
   4   6   6   19.20    1.10
   4   6   6   18.10    2.30
  -5  -6  -6  159.58    6.70
  -5  -6  -6  169.78    6.90
  -5  -6  -6  168.68    6.30
   5   6   6  173.88    6.00
   5   6   6  157.68    7.30
   5   6   6  158.08    6.60
   5   6   6  166.18    6.60
  -6  -6  -6  133.39    6.00
  -6  -6  -6  141.69    5.60
  -6  -6  -6  131.19    6.10
   6   6   6  134.79    6.70
   6   6   6  148.19    6.10
   6   6   6  144.89    5.80
  -7  -6  -6   11.10    1.60
  -7  -6  -6   12.80    2.00
   7   6   6   14.10    2.00
   7   6   6   12.60    1.60
   7   6   6   13.10    2.50
  -8  -6  -6    8.50    2.00
  -8  -6  -6    4.10    1.90
  -8  -6  -6    7.00    1.60
  -8  -6  -6    8.00    2.00
   8   6   6    3.10    1.70
   8   6   6   10.00    2.50
   8   6   6    7.90    1.30
  -9  -6  -6   16.80    2.20
  -9  -6  -6   12.20    2.20
  -9  -6  -6   13.20    2.40
   9   6   6   12.20    2.20
   9   6   6   12.90    2.80
 -10  -6  -6   -0.30    2.00
 -10  -6  -6    0.60    1.80
 -10  -6  -6    1.60    1.60
 -10  -6  -6   -0.30    1.10
  10   6   6    1.50    2.30
  10   6   6   -3.50    1.70
 -11  -6  -6   -1.10    2.10
 -11  -6  -6   -1.10    1.90
 -11  -6  -6   -2.60    1.60
  11   6   6   -0.70    1.80
  11   6   6    2.60    2.80
 -12  -6  -6   13.90    2.70
 -12  -6  -6    9.70    3.10
 -12  -6  -6   20.90    2.90
  12   6   6   15.30    3.00
  12   6   6   11.70    3.30
   6  -7  -6   -2.30    2.30
   6  -7  -6   -3.30    1.90
  -6   7   6   -1.00    2.20
  -6   7   6    0.30    2.00
   5  -7  -6   30.50    3.80
   5  -7  -6   25.20    3.50
  -5   7   6   32.00    3.70
  -5   7   6   37.80    3.80
   4  -7  -6    1.00    2.00
   4  -7  -6   -0.90    1.80
  -4   7   6    0.60    1.90
  -4   7   6    3.40    2.20
   3  -7  -6  110.79    6.30
   3  -7  -6  113.99    5.10
   3  -7  -6  113.19    6.20
  -3   7   6  110.59    6.00
  -3   7   6  108.39    5.80
   2  -7  -6  347.87   13.70
   2  -7  -6  352.06   12.90
   2  -7  -6  378.06   13.80
  -2   7   6  356.66   12.70
  -2   7   6  367.16   13.80
  -2   7   6  366.26   13.50
   1  -7  -6   10.60    2.10
   1  -7  -6   14.40    1.80
   1  -7  -6   15.70    2.30
  -1   7   6   17.40    2.60
  -1   7   6   13.40    1.70
  -1   7   6   17.90    2.40
  -1   7   6   15.00    1.10
   0  -7  -6  155.08    7.00
   0  -7  -6  170.68    7.00
   0  -7  -6  159.48    5.40
   0  -7  -6  170.08    6.60
   0   7   6  171.48    6.60
   0   7   6  154.68    7.00
   0   7   6  154.28    5.90
   0   7   6  148.89    6.60
   0   7   6  158.88    5.90
  -1  -7  -6  106.59    4.80
  -1  -7  -6   98.89    4.50
  -1  -7  -6   89.29    4.80
   1   7   6   94.89    4.70
   1   7   6   98.49    5.00
   1   7   6   94.79    4.10
   1   7   6   89.19    4.60
   1   7   6   99.89    4.20
  -2  -7  -6  485.95   17.00
  -2  -7  -6  509.15   17.00
  -2  -7  -6  468.85   17.30
   2   7   6  504.65   16.90
   2   7   6  504.45   17.30
   2   7   6  481.05   17.40
   2   7   6  484.45   16.70
   2   7   6  496.05   17.30
  -3  -7  -6    4.00    1.30
  -3  -7  -6    4.20    1.20
  -3  -7  -6    2.30    1.30
   3   7   6    2.90    1.50
   3   7   6    2.30    1.60
   3   7   6    3.80    1.50
   3   7   6    1.50    1.20
  -4  -7  -6  225.88    8.80
  -4  -7  -6  230.58    8.60
  -4  -7  -6  238.88    8.60
  -4  -7  -6  229.78    8.90
   4   7   6  221.08    8.90
   4   7   6  234.88    8.70
   4   7   6  220.48    9.20
   4   7   6  232.28    9.30
  -5  -7  -6   41.60    2.60
  -5  -7  -6   36.60    3.00
  -5  -7  -6   40.40    3.20
   5   7   6   42.40    3.10
   5   7   6   39.10    2.80
   5   7   6   40.20    3.50
   5   7   6   42.40    1.90
  -6  -7  -6   59.29    3.30
  -6  -7  -6   63.39    3.90
  -6  -7  -6   59.19    3.70
   6   7   6   55.59    3.60
   6   7   6   60.99    2.80
   6   7   6   57.59    3.50
   6   7   6   52.89    4.20
  -7  -7  -6  102.59    4.70
  -7  -7  -6  111.09    4.40
  -7  -7  -6   92.09    4.90
  -7  -7  -6  100.09    5.10
   7   7   6   88.79    4.90
   7   7   6   95.69    4.60
   7   7   6   91.09    5.80
  -8  -7  -6   24.10    2.80
  -8  -7  -6   24.40    2.80
  -8  -7  -6   22.40    2.40
   8   7   6   25.70    2.40
   8   7   6   21.00    3.30
   8   7   6   22.10    2.50
  -9  -7  -6   63.09    4.20
  -9  -7  -6   58.79    4.30
  -9  -7  -6   57.59    3.80
  -9  -7  -6   63.79    4.20
   9   7   6   53.69    4.90
   9   7   6   56.39    4.10
   9   7   6   59.29    3.20
 -10  -7  -6    0.20    1.90
 -10  -7  -6   -1.40    1.90
 -10  -7  -6    1.10    1.70
  10   7   6   -2.30    1.60
  10   7   6    2.50    2.60
 -11  -7  -6  144.99    7.00
 -11  -7  -6  146.89    7.40
 -11  -7  -6  145.39    7.20
  11   7   6  166.68    7.60
  11   7   6  139.29    8.30
 -12  -7  -6    9.80    2.80
 -12  -7  -6   11.50    2.70
 -12  -7  -6   13.60    2.60
  12   7   6    8.50    3.10
  12   7   6    9.10    2.50
   5  -8  -6   10.30    2.90
   5  -8  -6    8.10    2.80
  -5   8   6   11.90    2.60
  -5   8   6    9.50    3.00
   4  -8  -6   30.50    3.70
   4  -8  -6   24.00    3.60
  -4   8   6   21.60    3.50
  -4   8   6   28.10    3.40
   3  -8  -6  117.49    5.40
   3  -8  -6  109.29    6.40
   3  -8  -6   96.09    5.90
  -3   8   6  114.99    6.20
  -3   8   6  107.99    6.10
   2  -8  -6    6.30    2.00
   2  -8  -6    6.60    1.70
   2  -8  -6    4.40    2.00
  -2   8   6   10.50    2.50
  -2   8   6    9.00    2.40
   1  -8  -6  123.09    6.30
   1  -8  -6  124.59    5.60
   1  -8  -6  117.49    6.10
  -1   8   6  119.89    5.90
  -1   8   6  124.59    5.10
  -1   8   6  120.79    4.70
  -1   8   6  119.09    6.30
   0  -8  -6  119.69    6.00
   0  -8  -6  125.89    5.70
   0  -8  -6  116.69    6.10
   0   8   6  127.59    5.80
   0   8   6  118.69    6.10
   0   8   6  123.19    5.20
   0   8   6  122.69    5.00
  -1  -8  -6   11.20    2.00
  -1  -8  -6   13.20    2.10
  -1  -8  -6   11.80    1.90
   1   8   6   12.80    1.90
   1   8   6    7.50    1.90
   1   8   6    9.80    1.60
   1   8   6   13.30    2.40
  -2  -8  -6   28.00    2.80
  -2  -8  -6   27.30    2.70
  -2  -8  -6   22.10    2.40
   2   8   6   27.70    2.50
   2   8   6   25.30    2.70
   2   8   6   30.00    2.70
   2   8   6   25.70    3.10
   2   8   6   28.60    2.50
  -3  -8  -6  304.87   11.40
  -3  -8  -6  307.87   11.60
  -3  -8  -6  314.07   11.60
   3   8   6  320.37   11.80
   3   8   6  279.27   11.50
   3   8   6  315.37   11.00
   3   8   6  317.97   11.30
   3   8   6  308.57   11.80
  -4  -8  -6  132.39    6.20
  -4  -8  -6  136.79    6.20
  -4  -8  -6  144.09    6.20
   4   8   6  138.09    6.00
   4   8   6  149.69    6.60
   4   8   6  143.39    6.70
   4   8   6  142.69    6.70
  -5  -8  -6  176.28    7.70
  -5  -8  -6  172.08    7.60
  -5  -8  -6  193.18    7.50
   5   8   6  186.08    7.60
   5   8   6  186.68    7.80
   5   8   6  185.38    6.10
   5   8   6  191.78    8.30
  -6  -8  -6   87.09    4.70
  -6  -8  -6   83.19    4.30
  -6  -8  -6   79.29    4.50
   6   8   6   78.89    5.30
   6   8   6   89.59    3.60
   6   8   6   81.89    4.50
   6   8   6   85.19    4.60
  -7  -8  -6    1.70    1.70
  -7  -8  -6    3.50    1.50
  -7  -8  -6    1.30    1.60
   7   8   6    5.80    1.80
   7   8   6    2.80    2.40
   7   8   6    1.80    1.50
  -8  -8  -6   91.19    4.80
  -8  -8  -6   81.09    4.80
  -8  -8  -6   82.79    4.90
  -8  -8  -6   92.99    4.90
   8   8   6   78.99    5.70
   8   8   6   92.79    5.00
   8   8   6   91.59    4.50
  -9  -8  -6   11.00    2.20
  -9  -8  -6    7.20    2.20
  -9  -8  -6    6.20    2.00
   9   8   6    9.30    1.70
   9   8   6    9.20    2.10
   9   8   6    6.60    3.00
 -10  -8  -6   11.90    2.30
 -10  -8  -6    9.90    2.40
 -10  -8  -6    5.60    2.40
  10   8   6    5.50    3.00
  10   8   6    4.70    2.20
 -11  -8  -6   55.29    4.60
 -11  -8  -6   66.69    4.60
 -11  -8  -6   61.89    4.40
  11   8   6   59.79    4.90
  11   8   6   48.50    5.50
 -12  -8  -6    9.80    2.50
 -12  -8  -6    8.60    2.60
 -12  -8  -6    5.70    2.60
  12   8   6    2.70    3.20
  12   8   6    5.40    2.40
   4  -9  -6   40.70    4.40
   4  -9  -6   42.20    4.50
  -4   9   6   43.40    4.40
  -4   9   6   40.40    4.30
   3  -9  -6   -0.90    2.50
   3  -9  -6    1.10    2.20
   3  -9  -6   -0.70    1.90
  -3   9   6    1.20    2.20
  -3   9   6    2.70    2.50
   2  -9  -6   17.30    3.10
   2  -9  -6   18.00    2.50
   2  -9  -6   14.90    2.60
  -2   9   6   21.00    3.20
  -2   9   6   16.10    2.90
   1  -9  -6  194.88    8.00
   1  -9  -6  186.68    8.50
   1  -9  -6  170.68    8.40
  -1   9   6  193.88    7.10
  -1   9   6  199.98    8.80
  -1   9   6  177.28    8.10
   0  -9  -6    2.90    1.70
   0  -9  -6    2.40    1.90
   0  -9  -6    2.90    1.60
   0   9   6    3.90    2.00
   0   9   6    3.10    2.00
   0   9   6    1.70    1.30
   0   9   6    2.20    1.00
  -1  -9  -6   37.10    3.30
  -1  -9  -6   33.50    3.20
  -1  -9  -6   30.50    3.10
   1   9   6   39.10    2.70
   1   9   6   37.30    3.10
   1   9   6   37.10    2.90
   1   9   6   41.00    3.70
  -2  -9  -6   74.29    4.40
  -2  -9  -6   64.69    4.20
  -2  -9  -6   66.89    4.20
   2   9   6   62.69    3.90
   2   9   6   63.79    4.50
   2   9   6   66.59    3.90
   2   9   6   67.99    3.90
   2   9   6   63.69    3.90
  -3  -9  -6   16.40    2.30
  -3  -9  -6   21.10    2.50
  -3  -9  -6   19.90    2.50
   3   9   6   19.20    2.20
   3   9   6   21.50    2.60
   3   9   6   17.10    2.30
   3   9   6   19.50    2.60
   3   9   6   19.50    2.80
  -4  -9  -6    0.00    1.40
  -4  -9  -6   -1.20    1.30
  -4  -9  -6   -0.20    1.30
   4   9   6    0.50    1.80
   4   9   6    1.00    1.50
   4   9   6   -0.30    1.70
   4   9   6    0.80    1.80
  -5  -9  -6   -0.10    1.50
  -5  -9  -6   -0.50    1.40
  -5  -9  -6   -0.30    1.30
  -5  -9  -6    0.20    1.40
   5   9   6    1.00    2.00
   5   9   6   -1.00    1.70
   5   9   6    0.40    1.60
  -6  -9  -6   15.30    2.40
  -6  -9  -6   10.90    2.00
  -6  -9  -6    9.90    2.00
   6   9   6   14.10    2.20
   6   9   6    9.10    2.60
   6   9   6    9.80    2.40
  -7  -9  -6    2.10    1.90
  -7  -9  -6    4.90    1.80
  -7  -9  -6    3.70    1.60
   7   9   6    3.20    1.90
   7   9   6    0.80    2.20
   7   9   6    5.10    1.90
  -8  -9  -6   67.39    4.70
  -8  -9  -6   78.89    4.60
  -8  -9  -6   70.69    4.60
   8   9   6   66.49    5.40
   8   9   6   79.59    4.60
   8   9   6   82.49    5.00
  -9  -9  -6   42.90    3.70
  -9  -9  -6   43.90    3.90
  -9  -9  -6   33.20    3.40
  -9  -9  -6   44.00    3.80
   9   9   6   39.70    3.70
   9   9   6   42.60    3.40
   9   9   6   35.00    4.30
 -10  -9  -6    9.30    2.80
 -10  -9  -6    4.10    2.30
 -10  -9  -6   10.10    2.40
 -10  -9  -6    8.40    2.30
  10   9   6    8.20    2.40
  10   9   6    4.40    3.00
 -11  -9  -6    0.80    2.20
 -11  -9  -6    1.30    2.10
 -11  -9  -6    0.10    2.30
  11   9   6   -1.90    2.90
  11   9   6   -1.10    1.90
 -12  -9  -6   25.80    3.40
 -12  -9  -6   24.00    3.10
 -12  -9  -6   24.50    3.50
  12   9   6   23.70    3.30
  12   9   6   13.80    3.90
   3 -10  -6   14.00    3.00
   3 -10  -6    8.90    2.80
  -3  10   6   16.00    3.10
  -3  10   6   11.80    3.20
   2 -10  -6   26.90    3.10
   2 -10  -6   28.00    3.70
   2 -10  -6   26.70    3.70
  -2  10   6   28.40    3.60
  -2  10   6   26.70    3.80
   1 -10  -6   88.39    5.60
   1 -10  -6   94.29    5.30
   1 -10  -6   99.09    6.00
  -1  10   6   85.99    5.40
  -1  10   6   97.89    6.20
   0 -10  -6   57.99    4.60
   0 -10  -6   44.90    3.70
   0 -10  -6   52.29    4.10
   0  10   6   50.29    4.30
   0  10   6   55.99    4.50
   0  10   6   49.90    3.40
  -1 -10  -6    9.30    2.30
  -1 -10  -6   12.30    2.50
  -1 -10  -6    7.60    2.10
   1  10   6    8.20    2.30
   1  10   6   10.00    2.00
   1  10   6   11.50    2.80
  -2 -10  -6   11.10    2.30
  -2 -10  -6    8.60    2.20
  -2 -10  -6    7.90    2.00
   2  10   6    9.20    1.70
   2  10   6    9.10    2.20
   2  10   6   11.10    2.60
   2  10   6    9.80    1.80
   2  10   6    6.20    2.00
  -3 -10  -6  345.77   13.10
  -3 -10  -6  323.27   12.90
  -3 -10  -6  347.37   13.20
   3  10   6  358.96   12.50
   3  10   6  353.06   12.90
   3  10   6  338.47   13.60
   3  10   6  329.57   12.90
   3  10   6  343.37   12.90
  -4 -10  -6   13.50    2.30
  -4 -10  -6   12.20    2.20
  -4 -10  -6   12.50    2.40
   4  10   6   13.00    2.80
   4  10   6    9.00    2.00
   4  10   6   10.10    2.30
   4  10   6    9.50    2.40
  -5 -10  -6  104.29    5.50
  -5 -10  -6  107.59    5.60
  -5 -10  -6  111.29    5.70
  -5 -10  -6  110.19    5.60
   5  10   6  112.09    5.70
   5  10   6   96.49    6.10
   5  10   6  109.29    6.10
  -6 -10  -6  114.99    6.00
  -6 -10  -6  117.79    6.20
  -6 -10  -6  118.39    5.80
   6  10   6  116.89    6.10
   6  10   6  127.79    6.40
   6  10   6  114.19    6.90
  -7 -10  -6   43.50    3.90
  -7 -10  -6   47.90    3.70
  -7 -10  -6   39.20    3.50
   7  10   6   41.50    3.90
   7  10   6   35.50    4.10
   7  10   6   40.50    3.60
  -8 -10  -6  126.79    6.30
  -8 -10  -6  116.79    6.20
  -8 -10  -6  125.89    6.30
   8  10   6  126.49    6.30
   8  10   6  117.69    7.50
   8  10   6  121.19    6.30
  -9 -10  -6   17.60    3.00
  -9 -10  -6   13.70    2.50
  -9 -10  -6   14.60    2.70
  -9 -10  -6   13.60    2.70
   9  10   6   11.10    3.30
   9  10   6   17.40    2.60
   9  10   6   13.90    2.60
 -10 -10  -6  145.99    7.20
 -10 -10  -6  142.69    7.10
 -10 -10  -6  143.69    7.20
 -10 -10  -6  133.49    7.10
  10  10   6  142.79    7.40
  10  10   6  135.49    8.40
 -11 -10  -6   32.00    3.80
 -11 -10  -6   32.10    3.70
 -11 -10  -6   34.50    3.80
  11  10   6   22.70    4.40
  11  10   6   30.70    3.60
 -12 -10  -6   33.90    4.00
 -12 -10  -6   33.80    4.00
 -12 -10  -6   33.00    3.70
  12  10   6   20.20    4.50
  12  10   6   24.10    3.50
   2 -11  -6  127.39    6.80
   2 -11  -6  114.99    7.40
   2 -11  -6  119.09    7.10
  -2  11   6  130.99    7.50
  -2  11   6  134.79    7.30
   1 -11  -6   38.90    4.20
   1 -11  -6   39.30    4.30
   1 -11  -6   40.10    3.90
  -1  11   6   39.00    4.40
  -1  11   6   38.40    4.10
   0 -11  -6   15.10    2.70
   0 -11  -6   13.60    2.60
   0 -11  -6   16.10    2.90
   0  11   6   17.40    3.50
   0  11   6   14.00    2.30
   0  11   6   18.20    2.90
  -1 -11  -6  121.89    6.40
  -1 -11  -6  120.89    6.70
  -1 -11  -6  117.89    6.20
   1  11   6  112.59    6.10
   1  11   6  114.59    6.80
   1  11   6  117.79    5.90
  -2 -11  -6    1.30    1.90
  -2 -11  -6    2.60    2.00
  -2 -11  -6    3.50    1.80
   2  11   6    4.60    2.00
   2  11   6    4.20    2.20
   2  11   6    5.30    2.50
  -3 -11  -6   31.30    3.40
  -3 -11  -6   40.30    3.70
  -3 -11  -6   36.60    3.50
   3  11   6   40.10    4.20
   3  11   6   37.70    3.30
   3  11   6   40.10    3.20
   3  11   6   39.40    3.50
   3  11   6   38.90    3.60
  -4 -11  -6  338.97   13.00
  -4 -11  -6  330.97   12.70
  -4 -11  -6  321.57   12.90
   4  11   6  334.07   12.70
   4  11   6  318.47   12.80
   4  11   6  311.17   12.50
   4  11   6  329.27   13.20
   4  11   6  316.97   11.80
  -5 -11  -6  203.28    8.90
  -5 -11  -6  181.88    8.60
  -5 -11  -6  199.18    8.90
  -5 -11  -6  197.18    8.80
   5  11   6  200.58    9.20
   5  11   6  205.38    9.30
   5  11   6  204.48    8.90
  -6 -11  -6   18.10    2.80
  -6 -11  -6   18.30    2.80
  -6 -11  -6   25.30    3.10
   6  11   6   19.10    3.30
   6  11   6   12.50    2.90
   6  11   6   17.30    2.80
  -7 -11  -6   -0.50    1.80
  -7 -11  -6    0.90    1.80
  -7 -11  -6    0.40    1.90
   7  11   6   -1.50    2.10
   7  11   6    1.90    2.10
   7  11   6   -3.90    2.40
  -8 -11  -6   72.59    4.90
  -8 -11  -6   75.59    4.90
  -8 -11  -6   59.79    4.40
   8  11   6   66.19    5.80
   8  11   6   68.39    5.00
  -9 -11  -6    1.10    1.90
  -9 -11  -6    1.40    2.00
  -9 -11  -6    2.40    2.20
  -9 -11  -6    2.30    2.20
   9  11   6   -3.10    2.60
   9  11   6    0.30    2.10
   9  11   6    3.50    2.20
 -10 -11  -6    1.80    2.20
 -10 -11  -6    4.60    2.40
 -10 -11  -6   -0.50    2.20
 -10 -11  -6   -0.10    2.10
  10  11   6    2.90    2.50
  10  11   6    4.60    2.50
  10  11   6    1.00    3.00
 -11 -11  -6   28.40    3.60
 -11 -11  -6   33.80    3.90
  11  11   6   25.30    3.50
  11  11   6   19.60    4.40
   0 -12  -6   -2.80    1.80
   0 -12  -6   -0.30    2.00
   0 -12  -6    0.20    2.00
   0  12   6    3.90    2.60
   0  12   6    4.20    3.00
  -1 -12  -6    2.50    2.20
  -1 -12  -6    2.00    2.10
  -1 -12  -6    1.60    2.10
   1  12   6    2.70    2.50
   1  12   6   -0.30    2.00
   1  12   6    5.10    2.90
  -2 -12  -6   21.70    3.10
  -2 -12  -6   28.60    3.60
  -2 -12  -6   18.40    3.00
   2  12   6   16.70    2.80
   2  12   6   22.40    3.00
   2  12   6   22.50    3.80
  -3 -12  -6   24.10    3.20
  -3 -12  -6   22.70    3.10
  -3 -12  -6   19.80    3.00
   3  12   6   21.10    2.70
   3  12   6   19.40    2.90
   3  12   6   19.20    3.50
  -4 -12  -6   48.10    4.60
  -4 -12  -6   51.69    4.60
  -4 -12  -6   50.19    4.20
   4  12   6   54.59    4.70
   4  12   6   46.90    4.20
   4  12   6   44.10    4.00
   4  12   6   53.29    4.80
  -5 -12  -6   92.09    5.70
  -5 -12  -6   95.29    6.00
  -5 -12  -6   92.59    5.90
  -5 -12  -6   97.19    5.60
   5  12   6  101.69    6.10
   5  12   6   91.69    6.40
   5  12   6   94.29    6.00
  -6 -12  -6    2.00    2.10
  -6 -12  -6    3.50    2.20
  -6 -12  -6   -0.40    1.90
   6  12   6    0.60    2.60
   6  12   6   -0.80    2.40
   6  12   6    1.90    2.20
  -7 -12  -6  117.89    6.70
  -7 -12  -6  120.69    6.60
  -7 -12  -6  120.09    6.50
   7  12   6  112.29    7.50
   7  12   6  111.89    6.50
   7  12   6  118.99    7.00
  -8 -12  -6    1.90    2.30
  -8 -12  -6    1.30    2.20
  -8 -12  -6    2.60    2.00
   8  12   6    4.10    2.60
   8  12   6   -0.40    2.70
   8  12   6    1.80    2.40
  -9 -12  -6   50.59    4.60
  -9 -12  -6   42.10    4.10
  -9 -12  -6   47.00    4.30
  -9 -12  -6   49.10    4.40
   9  12   6   34.90    4.90
   9  12   6   55.09    4.80
 -10 -12  -6   -3.20    2.10
 -10 -12  -6   -3.40    1.90
 -10 -12  -6    0.60    2.30
 -10 -12  -6    0.00    2.20
  10  12   6   -4.50    2.90
  10  12   6    0.00    2.40
  10  12   6    1.20    2.20
  -2 -13  -6   62.69    5.10
  -2 -13  -6   55.49    4.70
  -2 -13  -6   56.39    5.10
   2  13   6   55.99    4.70
   2  13   6   57.09    4.60
   2  13   6   60.29    5.50
  -3 -13  -6   67.49    5.50
  -3 -13  -6   69.59    5.40
  -3 -13  -6   66.49    5.00
   3  13   6   75.69    5.30
   3  13   6   69.89    6.20
  -4 -13  -6   52.99    4.50
  -4 -13  -6   69.89    5.30
  -4 -13  -6   56.39    5.20
  -4 -13  -6   58.19    5.00
   4  13   6   56.79    5.10
   4  13   6   59.29    5.80
  -5 -13  -6   55.59    4.50
  -5 -13  -6   58.39    5.10
  -5 -13  -6   68.29    5.30
  -5 -13  -6   60.59    4.90
   5  13   6   52.89    4.80
   5  13   6   65.99    5.80
   5  13   6   60.09    5.70
  -6 -13  -6    3.90    2.00
  -6 -13  -6    5.80    2.50
  -6 -13  -6   -1.40    2.10
   6  13   6    2.00    2.90
   6  13   6   -2.10    2.40
   6  13   6    0.10    2.60
  -7 -13  -6   90.69    6.00
  -7 -13  -6   90.19    6.20
  -7 -13  -6  100.89    5.90
   7  13   6   94.99    6.10
   7  13   6   84.79    6.80
   7  13   6   93.49    6.30
  -8 -13  -6   -0.30    1.80
  -8 -13  -6    4.70    2.50
  -8 -13  -6    2.30    2.20
   8  13   6    0.30    2.90
   8  13   6    2.40    2.40
   8  13   6    2.10    2.70
  -9 -13  -6   53.49    5.00
  -9 -13  -6   46.00    4.30
  -9 -13  -6   48.30    4.40
   9  13   6   40.40    4.50
   9  13   6   33.90    4.90
   5   7  -7   15.70    4.40
   5   7  -7   22.60    4.70
  -5  -7   7   24.10    3.20
  -5  -7   7   25.70    4.20
   4   7  -7   10.30    4.20
   4   7  -7   10.40    2.80
   4   7  -7    8.80    4.00
  -4  -7   7   10.50    2.40
  -4  -7   7   13.10    3.10
   3   7  -7   24.50    4.90
   3   7  -7   34.30    4.90
   3   7  -7   33.40    3.70
  -3  -7   7   25.80    3.10
  -3  -7   7   32.30    4.30
   2   7  -7   20.50    3.30
   2   7  -7   15.10    4.40
   2   7  -7   19.90    4.10
  -2  -7   7   20.20    3.50
  -2  -7   7   25.00    3.00
  -2  -7   7   20.50    2.50
   1   7  -7    0.40    3.80
   1   7  -7    0.50    2.40
   1   7  -7    1.00    2.80
  -1  -7   7   -1.80    1.90
  -1  -7   7    0.00    1.60
  -1  -7   7   -0.30    1.50
   0   7  -7   20.70    3.70
   0   7  -7   13.60    3.10
   0   7  -7   13.40    3.70
   0   7  -7    8.60    4.50
   0  -7   7   21.00    2.80
   0  -7   7   17.90    3.10
   0  -7   7   20.80    3.30
  -1   7  -7    8.60    3.30
  -1   7  -7    6.90    3.20
  -1   7  -7    4.70    2.80
  -1   7  -7    3.30    3.70
   1  -7   7   11.80    2.40
   1  -7   7   11.60    3.00
  -2   7  -7  147.89    9.50
  -2   7  -7  135.29    7.60
  -2   7  -7  143.49    8.40
   2  -7   7  145.89    7.50
   2  -7   7  146.19    8.20
   6   6  -7   38.20    5.50
   6   6  -7   43.90    5.20
  -6  -6   7   41.60    3.90
  -6  -6   7   37.80    4.60
   5   6  -7   21.70    4.10
   5   6  -7   22.80    4.50
  -5  -6   7   18.20    3.50
  -5  -6   7   23.00    3.00
   4   6  -7  140.39    8.60
   4   6  -7  135.49    6.90
   4   6  -7  127.19    8.70
  -4  -6   7  136.69    6.70
  -4  -6   7  139.19    7.90
   3   6  -7    0.60    3.00
   3   6  -7    0.70    3.00
   3   6  -7   -0.10    2.10
  -3  -6   7    2.00    2.20
  -3  -6   7   -1.70    1.50
   2   6  -7   -0.50    2.80
   2   6  -7   -1.30    3.00
   2   6  -7   -1.80    2.20
  -2  -6   7   -1.60    2.00
  -2  -6   7    0.40    1.50
  -2  -6   7   -2.10    1.20
   1   6  -7   23.00    4.00
   1   6  -7   24.10    3.30
   1   6  -7   30.40    4.50
  -1  -6   7   35.80    3.10
  -1  -6   7   28.30    2.90
  -1  -6   7   26.50    3.60
   0   6  -7    3.80    2.70
   0   6  -7    1.00    2.50
   0   6  -7   -0.30    3.00
   0  -6   7    1.70    1.40
   0  -6   7    1.70    1.70
   0  -6   7    1.20    2.10
  -1   6  -7   29.70    4.90
  -1   6  -7   30.70    4.00
   1  -6   7   28.50    2.90
   1  -6   7   34.80    4.20
   1  -6   7   34.50    3.40
   1  -6   7   27.50    2.90
  -2   6  -7   71.19    5.60
  -2   6  -7   72.29    6.80
  -2   6  -7   74.59    5.50
   2  -6   7   73.29    4.90
   2  -6   7   71.29    5.30
   2  -6   7   81.39    5.10
  -3   6  -7   22.30    3.70
  -3   6  -7   25.00    4.50
  -3   6  -7   26.00    3.90
   3  -6   7   23.90    3.20
   3  -6   7   33.70    4.10
  -4   6  -7  296.47   13.20
  -4   6  -7  268.57   12.40
  -4   6  -7  288.97   12.20
   4  -6   7  270.67   12.50
   4  -6   7  297.17   12.20
   7   5  -7   91.59    7.90
   7   5  -7  102.79    7.40
  -7  -5   7   99.09    6.00
  -7  -5   7  100.49    6.90
   6   5  -7    0.50    2.70
   6   5  -7   -0.40    3.00
  -6  -5   7    2.50    2.00
  -6  -5   7    1.70    2.50
   5   5  -7   98.69    7.60
   5   5  -7  106.99    7.20
  -5  -5   7  103.89    6.70
  -5  -5   7  106.89    5.80
   4   5  -7  185.48    8.20
   4   5  -7  201.68   10.20
   4   5  -7  180.58   10.20
  -4  -5   7  176.78    9.10
  -4  -5   7  199.38    8.30
   3   5  -7    1.00    2.90
   3   5  -7   -0.30    1.80
   3   5  -7    0.60    2.60
  -3  -5   7    0.80    1.40
  -3  -5   7    1.10    1.90
   2   5  -7  118.79    7.80
   2   5  -7  103.69    7.00
   2   5  -7  104.09    5.90
  -2  -5   7  110.19    4.70
  -2  -5   7  107.49    6.40
  -2  -5   7  101.59    5.20
   1   5  -7    3.10    2.10
   1   5  -7    0.20    2.70
  -1  -5   7    1.30    1.30
  -1  -5   7    0.90    2.00
  -1  -5   7   -0.10    1.30
   0   5  -7   -0.50    2.50
   0   5  -7    0.30    1.90
   0  -5   7   -0.90    1.70
   0  -5   7   -1.00    1.30
   0  -5   7    1.80    1.20
   0  -5   7   -0.60    1.80
  -1   5  -7    4.30    2.80
  -1   5  -7    9.70    2.60
   1  -5   7    7.50    2.30
   1  -5   7    6.80    1.50
   1  -5   7    6.80    1.90
   1  -5   7    6.10    1.50
   1  -5   7    8.20    2.20
  -2   5  -7   -3.70    2.40
  -2   5  -7   -1.60    2.30
   2  -5   7   -1.10    1.60
   2  -5   7   -1.40    1.50
   2  -5   7   -0.30    1.80
   2  -5   7    0.00    1.20
   2  -5   7    0.90    1.20
  -3   5  -7   -2.00    2.90
  -3   5  -7   -0.90    2.50
   3  -5   7    0.60    2.00
   3  -5   7    0.80    1.80
   3  -5   7   -0.80    1.30
  -4   5  -7   22.80    3.60
  -4   5  -7   14.40    3.60
  -4   5  -7   20.40    3.60
   4  -5   7   23.50    3.10
   4  -5   7   21.30    3.20
   4  -5   7   22.10    3.50
  -5   5  -7    2.50    3.00
  -5   5  -7   -2.70    2.80
  -5   5  -7   -7.00    2.50
   5  -5   7   -0.40    2.00
   5  -5   7   -0.20    1.80
  -6   5  -7    2.00    3.10
   6  -5   7    2.10    2.60
   6  -5   7   -0.10    2.00
   8   4  -7   -4.00    2.90
   8   4  -7   -0.10    2.50
  -8  -4   7    0.80    2.40
  -8  -4   7   -5.60    2.30
   7   4  -7   17.90    3.70
   7   4  -7   29.80    5.00
  -7  -4   7   23.00    3.10
  -7  -4   7   23.80    3.70
   6   4  -7   12.20    3.20
   6   4  -7   19.70    4.10
  -6  -4   7   24.60    3.10
  -6  -4   7   19.50    3.20
   5   4  -7    7.40    3.20
   5   4  -7    8.20    3.00
  -5  -4   7   13.00    2.90
  -5  -4   7    9.90    2.10
   4   4  -7  133.99    8.20
   4   4  -7  127.39    5.90
   4   4  -7  122.89    7.50
  -4  -4   7  133.09    6.10
  -4  -4   7  118.39    6.80
   3   4  -7   62.59    4.00
   3   4  -7   66.09    5.50
   3   4  -7   65.29    5.80
  -3  -4   7   59.09    4.60
  -3  -4   7   60.69    3.80
   2   4  -7   20.60    3.60
   2   4  -7   22.10    2.60
  -2  -4   7   29.60    2.60
  -2  -4   7   22.40    1.80
  -2  -4   7   24.60    3.60
  -2  -4   7   24.90    3.20
   1   4  -7  264.27   11.50
   1   4  -7  262.97   10.20
  -1  -4   7  248.68    9.60
  -1  -4   7  239.88   10.70
  -1  -4   7  255.17    9.40
  -1  -4   7  256.87   10.90
   0   4  -7  187.48    9.20
   0   4  -7  191.28    8.20
   0  -4   7  167.68    8.40
   0  -4   7  187.48    7.30
   0  -4   7  188.58    8.60
   0  -4   7  186.68    7.50
  -1   4  -7   68.89    4.80
  -1   4  -7   62.99    5.50
   1  -4   7   53.69    4.60
   1  -4   7   58.99    3.80
   1  -4   7   61.39    3.50
   1  -4   7   57.59    3.30
   1  -4   7   65.69    4.50
  -2   4  -7  236.68    9.90
  -2   4  -7  250.47   11.00
   2  -4   7  220.08    9.70
   2  -4   7  224.78   10.10
   2  -4   7  232.98    9.40
   2  -4   7  231.98    8.80
   2  -4   7  235.88    9.00
  -3   4  -7   -0.40    2.50
  -3   4  -7   -0.20    2.30
   3  -4   7   -0.90    1.10
   3  -4   7   -0.90    1.60
   3  -4   7   -0.10    1.70
   3  -4   7    0.00    1.50
   3  -4   7    0.80    1.10
  -4   4  -7   -2.00    2.30
  -4   4  -7   -3.90    2.30
   4  -4   7    0.50    1.70
   4  -4   7    0.80    1.20
   4  -4   7    2.10    2.10
   4  -4   7    0.60    1.70
  -5   4  -7   -1.30    2.30
  -5   4  -7   -2.70    2.30
  -5   4  -7    1.00    2.50
   5  -4   7    0.40    1.40
   5  -4   7    1.10    1.70
   5  -4   7    0.10    1.90
  -6   4  -7    6.40    3.10
  -6   4  -7    6.30    3.10
   6  -4   7    4.00    2.60
   6  -4   7    7.20    2.30
  -7   4  -7   82.79    5.90
  -7   4  -7   79.29    5.90
   7  -4   7   78.39    5.40
   7  -4   7   70.99    5.80
   8   3  -7   21.30    4.50
   8   3  -7   24.00    3.90
  -8  -3   7   31.90    3.80
   7   3  -7   -2.80    3.10
   7   3  -7   -0.60    2.40
  -7  -3   7   -1.70    2.00
  -7  -3   7   -0.70    2.20
   6   3  -7   15.80    3.80
   6   3  -7   24.60    3.60
  -6  -3   7   22.00    3.40
  -6  -3   7   20.10    2.90
   5   3  -7    6.60    3.00
   5   3  -7    3.40    2.50
  -5  -3   7    5.00    1.80
  -5  -3   7    5.40    2.30
   4   3  -7  109.19    5.60
   4   3  -7   87.09    6.10
   4   3  -7   95.39    6.90
  -4  -3   7   89.19    5.70
   3   3  -7    0.70    1.30
   3   3  -7    1.70    2.30
  -3  -3   7    0.30    1.30
  -3  -3   7   -1.40    1.70
  -3  -3   7    1.70    1.80
   2   3  -7  239.18    9.10
   2   3  -7  224.08   10.50
  -2  -3   7  224.38    8.90
  -2  -3   7  233.68   10.30
  -2  -3   7  238.88   10.00
  -2  -3   7  240.68    7.80
   1   3  -7  639.14   22.60
   1   3  -7  607.64   21.10
  -1  -3   7  621.84   20.40
  -1  -3   7  594.24   22.00
  -1  -3   7  625.94   20.80
  -1  -3   7  589.14   21.80
   0   3  -7   90.49    5.90
   0   3  -7   91.09    4.80
   0  -3   7   94.89    4.30
   0  -3   7   96.19    5.50
   0  -3   7   90.29    4.10
   0  -3   7   79.69    5.00
  -1   3  -7  124.99    6.00
  -1   3  -7  123.19    6.90
   1  -3   7  113.19    6.10
   1  -3   7  109.99    6.20
   1  -3   7  117.79    4.80
   1  -3   7  116.49    5.30
  -2   3  -7   56.59    4.30
  -2   3  -7   56.19    5.10
   2  -3   7   54.59    4.30
   2  -3   7   62.99    3.20
   2  -3   7   58.69    4.30
   2  -3   7   57.49    3.00
   2  -3   7   60.99    3.80
  -3   3  -7   30.70    3.70
  -3   3  -7   25.20    3.10
   3  -3   7   27.30    2.80
   3  -3   7   29.70    3.30
   3  -3   7   32.00    3.40
   3  -3   7   31.50    2.50
   3  -3   7   30.10    2.20
  -4   3  -7   61.39    4.50
  -4   3  -7   62.09    5.00
   4  -3   7   62.49    3.50
   4  -3   7   58.99    4.20
   4  -3   7   66.99    4.10
   4  -3   7   59.89    4.50
  -5   3  -7   -1.00    2.10
  -5   3  -7    1.30    2.40
   5  -3   7    2.40    1.40
   5  -3   7    4.90    1.80
   5  -3   7    2.00    1.80
   5  -3   7    1.20    1.90
  -6   3  -7   -1.00    2.60
  -6   3  -7    0.90    2.50
  -6   3  -7   -0.20    2.20
   6  -3   7    0.50    2.00
   6  -3   7   -0.80    1.40
   6  -3   7    4.80    2.00
  -7   3  -7    5.50    2.80
  -7   3  -7    6.80    2.70
   7  -3   7    7.20    2.40
   7  -3   7    6.90    2.60
   7  -3   7    0.00    2.60
  -8   3  -7    0.60    2.50
  -8   3  -7   -0.40    2.70
   8  -3   7    1.50    2.30
   8   2  -7   -0.10    3.50
   8   2  -7    1.70    3.00
  -8  -2   7    1.00    2.40
   7   2  -7  117.49    7.30
   7   2  -7  137.59    8.50
  -7  -2   7  135.19    7.60
  -7  -2   7  137.29    6.90
   6   2  -7   11.90    3.40
   6   2  -7   11.50    2.90
  -6  -2   7    7.40    2.50
  -6  -2   7   11.40    2.30
   5   2  -7   41.20    4.80
   5   2  -7   36.50    4.10
  -5  -2   7   39.40    4.00
  -5  -2   7   35.80    3.20
   4   2  -7   -1.00    2.30
   4   2  -7    0.70    2.10
  -4  -2   7   -0.10    1.70
  -4  -2   7    3.40    1.60
   3   2  -7    8.10    2.50
   3   2  -7    7.80    1.40
  -3  -2   7    6.60    2.30
  -3  -2   7    7.20    2.00
  -3  -2   7    7.20    1.60
   2   2  -7   26.80    3.50
   2   2  -7   33.10    2.50
  -2  -2   7   31.90    2.40
  -2  -2   7   35.30    3.20
  -2  -2   7   25.80    3.20
   1   2  -7    1.50    2.20
   1   2  -7    1.80    1.30
  -1  -2   7    1.80    1.70
  -1  -2   7    1.10    0.60
  -1  -2   7    0.50    0.70
  -1  -2   7    1.40    1.80
  -1  -2   7    0.50    0.90
   0   2  -7    3.10    1.50
   0   2  -7    2.10    2.10
   0  -2   7    2.50    1.90
   0  -2   7    3.20    1.10
   0  -2   7    3.10    0.90
   0  -2   7    2.60    1.70
  -1   2  -7   82.39    4.50
  -1   2  -7   80.59    5.30
  -1   2  -7   77.29    3.00
   1  -2   7   78.89    5.00
   1  -2   7   80.69    3.40
   1  -2   7   79.59    2.90
   1  -2   7   68.99    4.60
   1  -2   7   85.29    4.10
  -2   2  -7  331.47   10.80
  -2   2  -7  330.07   12.20
  -2   2  -7  314.57   12.90
   2  -2   7  343.97   11.20
   2  -2   7  320.97   11.90
   2  -2   7  317.27   11.10
   2  -2   7  318.97   12.60
   2  -2   7  307.37   12.50
  -3   2  -7   63.99    4.40
  -3   2  -7   64.39    3.00
  -3   2  -7   68.89    4.90
   3  -2   7   66.29    3.90
   3  -2   7   63.59    4.30
   3  -2   7   71.99    3.10
   3  -2   7   59.99    3.20
   3  -2   7   67.69    4.40
  -4   2  -7  467.35   17.00
  -4   2  -7  453.95   15.40
  -4   2  -7  436.46   16.50
   4  -2   7  452.35   15.60
   4  -2   7  471.65   16.70
   4  -2   7  442.26   16.40
   4  -2   7  441.86   16.90
  -5   2  -7  160.78    6.70
  -5   2  -7  170.28    7.90
  -5   2  -7  169.98    7.80
   5  -2   7  171.48    6.80
   5  -2   7  168.38    8.10
   5  -2   7  175.58    7.70
   5  -2   7  163.78    7.50
  -6   2  -7    3.10    2.00
  -6   2  -7    4.20    2.20
  -6   2  -7    4.40    1.70
   6  -2   7    5.10    2.00
   6  -2   7    3.10    1.50
   6  -2   7    3.80    1.90
  -7   2  -7    3.70    1.90
  -7   2  -7    2.60    2.30
  -7   2  -7    4.40    2.50
   7  -2   7    6.10    2.20
   7  -2   7    3.90    1.70
  -8   2  -7  126.69    6.90
  -8   2  -7  123.69    8.20
  -8   2  -7  117.29    6.80
   8  -2   7  123.79    6.50
   8  -2   7  123.89    6.80
  -9   2  -7   10.80    3.10
  -9   2  -7   11.70    3.20
   9  -2   7   13.00    2.80
   8   1  -7    5.50    2.90
  -8  -1   7    2.20    2.40
   7   1  -7   80.79    5.80
   7   1  -7   82.79    6.70
   7   1  -7   83.49    5.00
  -7  -1   7  103.89    5.60
   6   1  -7    2.00    1.50
   6   1  -7    3.40    2.20
   6   1  -7    1.40    2.40
  -6  -1   7    1.20    1.80
  -6  -1   7    0.40    2.10
   5   1  -7   78.39    5.30
   5   1  -7   77.39    6.00
   5   1  -7   75.39    4.10
  -5  -1   7   80.09    4.90
  -5  -1   7   79.79    4.60
   4   1  -7    1.80    1.10
   4   1  -7    1.20    2.00
  -4  -1   7   -2.10    1.40
  -4  -1   7    0.40    1.90
  -4  -1   7   -0.10    1.70
   3   1  -7  211.78    7.60
   3   1  -7  215.78    7.60
   3   1  -7  194.58    9.30
  -3  -1   7  214.68    9.00
  -3  -1   7  219.58    8.20
  -3  -1   7  202.58    9.40
   2   1  -7    0.40    2.10
   2   1  -7    0.20    0.70
   2   1  -7    0.10    0.90
  -2  -1   7    1.80    1.10
  -2  -1   7   -0.20    1.40
  -2  -1   7    2.40    1.80
   1   1  -7   41.50    3.90
   1   1  -7   39.50    1.90
   1   1  -7   38.10    2.20
   1   1  -7   42.30    2.60
   1   1  -7   39.30    2.10
  -1  -1   7   44.00    2.40
  -1  -1   7   39.60    3.60
  -1  -1   7   42.80    3.30
   0   1  -7   10.50    1.10
   0   1  -7    6.40    1.40
   0   1  -7    9.60    0.90
   0   1  -7    6.60    1.00
   0   1  -7    7.10    2.20
   0  -1   7    9.90    1.10
   0  -1   7    7.10    1.00
   0  -1   7    6.70    1.10
   0  -1   7   13.20    2.50
   0  -1   7    7.80    1.70
  -1   1  -7   14.30    2.50
  -1   1  -7   16.40    1.40
  -1   1  -7   17.60    2.10
   1  -1   7   19.90    2.70
   1  -1   7   23.00    2.00
   1  -1   7   18.20    1.80
   1  -1   7   20.00    1.40
   1  -1   7   20.80    2.50
   1  -1   7   19.50    1.40
  -2   1  -7  220.88    8.40
  -2   1  -7  210.58    7.40
  -2   1  -7  227.38    9.40
  -2   1  -7  200.28    7.30
   2  -1   7  206.78    7.40
   2  -1   7  216.68    8.90
   2  -1   7  209.78    8.00
   2  -1   7  213.08    7.20
   2  -1   7  198.38    8.60
  -3   1  -7    0.90    1.80
  -3   1  -7   -1.00    1.60
  -3   1  -7   -1.70    0.90
   3  -1   7    0.20    1.60
   3  -1   7   -1.50    1.40
   3  -1   7   -0.20    0.60
   3  -1   7   -0.10    0.50
   3  -1   7   -0.10    1.20
  -4   1  -7  313.47   11.10
  -4   1  -7  314.77   12.00
  -4   1  -7  318.37   12.30
   4  -1   7  308.17   11.80
   4  -1   7  315.37   11.00
   4  -1   7  322.57   12.20
   4  -1   7  320.67   12.40
  -5   1  -7  110.89    5.20
  -5   1  -7  124.29    6.30
  -5   1  -7  130.19    6.20
   5  -1   7  127.89    5.20
   5  -1   7  114.49    5.70
   5  -1   7  120.59    6.40
   5  -1   7  113.19    6.00
  -6   1  -7   31.30    2.80
  -6   1  -7   28.00    3.20
  -6   1  -7   32.00    3.30
   6  -1   7   34.50    3.30
   6  -1   7   30.60    2.60
   6  -1   7   35.80    3.20
  -7   1  -7  569.14   19.30
  -7   1  -7  564.14   19.70
   7  -1   7  547.65   19.70
   7  -1   7  529.15   19.10
   7  -1   7  530.55   19.80
  -8   1  -7   41.20    4.10
  -8   1  -7   41.40    3.70
  -8   1  -7   32.30    3.90
   8  -1   7   35.50    3.40
   8  -1   7   39.00    3.80
  -9   1  -7    0.10    2.50
  -9   1  -7   -1.10    2.10
  -9   1  -7   -0.40    2.50
   9  -1   7   -1.90    1.70
   9  -1   7    0.40    1.80
   8   0  -7    2.90    2.20
   8   0  -7    4.40    2.10
   8   0  -7    3.10    2.40
   7   0  -7  119.49    7.50
   7   0  -7  126.39    6.40
   7   0  -7  121.79    6.70
   6   0  -7   19.20    2.50
   6   0  -7   19.90    3.00
   6   0  -7   21.90    3.60
  -6   0   7   18.80    2.80
   5   0  -7  213.88    8.60
   5   0  -7  216.08    9.70
   5   0  -7  203.88   10.10
  -5   0   7  215.38    9.20
  -5   0   7  220.38    8.90
   4   0  -7  550.74   19.70
   4   0  -7  501.35   18.10
  -4   0   7  521.45   19.50
  -4   0   7  527.75   18.40
  -4   0   7  531.25   18.90
   3   0  -7    9.60    2.50
   3   0  -7    6.70    1.40
   3   0  -7    7.80    1.10
  -3   0   7   12.00    1.80
  -3   0   7    8.70    2.10
  -3   0   7   10.80    2.40
   2   0  -7  937.11   33.00
   2   0  -7 1039.80   32.90
   2   0  -7 1009.00   34.80
  -2   0   7 1076.19   34.10
  -2   0   7  965.30   34.50
  -2   0   7 1056.19   33.30
   1   0  -7  231.58    8.40
   1   0  -7  245.68    8.60
   1   0  -7  238.18    8.50
   1   0  -7  232.48    8.30
   1   0  -7  244.98   10.30
  -1   0   7  239.98    9.40
  -1   0   7  249.48   10.10
  -1   0   7  246.98    8.60
   0   0  -7    5.70    1.30
   0   0  -7    5.90    0.80
   0   0  -7    4.80    1.00
   0   0  -7    7.10    2.10
   0   0  -7    5.00    0.90
   0   0   7    6.90    0.90
   0   0   7    4.80    0.70
   0   0   7    4.10    0.70
   0   0   7    4.50    1.80
   0   0   7    2.00    1.30
  -1   0  -7  151.98    5.80
  -1   0  -7  173.28    6.50
  -1   0  -7  160.28    7.40
  -1   0  -7  157.88    5.30
   1   0   7  167.28    6.90
   1   0   7  158.18    6.00
   1   0   7  153.78    5.80
   1   0   7  147.49    5.90
   1   0   7  170.88    5.50
   1   0   7  157.58    7.10
  -2   0  -7   -1.30    1.20
  -2   0  -7   -0.50    1.60
  -2   0  -7    0.30    0.80
   2   0   7   -0.30    0.60
   2   0   7    0.10    1.50
   2   0   7    0.60    1.00
   2   0   7   -1.40    1.20
   2   0   7    0.40    0.30
  -3   0  -7    2.40    1.10
  -3   0  -7    2.00    1.80
  -3   0  -7    3.30    1.50
   3   0   7    2.10    0.30
   3   0   7    2.10    1.50
   3   0   7    0.50    1.00
   3   0   7    2.50    1.50
   3   0   7    1.80    0.30
   3   0   7    2.60    0.50
  -4   0  -7   90.59    4.80
  -4   0  -7   98.19    4.30
  -4   0  -7  104.79    5.40
   4   0   7   92.89    4.60
   4   0   7   85.69    3.70
   4   0   7   94.29    5.10
   4   0   7   92.79    3.30
   4   0   7   98.79    5.20
  -5   0  -7   17.70    2.60
  -5   0  -7   18.30    2.10
  -5   0  -7   22.30    2.70
   5   0   7   25.80    1.90
   5   0   7   23.30    2.80
   5   0   7   22.00    2.50
  -6   0  -7    6.30    1.80
  -6   0  -7    3.30    1.70
  -6   0  -7    7.60    2.00
   6   0   7    7.50    1.30
   6   0   7    6.70    1.90
   6   0   7    8.30    2.10
  -7   0  -7   59.09    3.70
  -7   0  -7   63.49    4.10
  -7   0  -7   58.59    4.30
   7   0   7   60.09    4.20
   7   0   7   59.09    4.10
   7   0   7   67.59    3.70
  -8   0  -7    9.00    2.70
  -8   0  -7    6.90    2.40
  -8   0  -7    9.90    2.40
   8   0   7   11.60    2.50
   8   0   7   11.90    2.50
   8   0   7    9.70    1.90
  -9   0  -7   81.89    5.30
  -9   0  -7   88.09    5.70
  -9   0  -7   73.49    5.20
   9   0   7   78.89    5.20
   9   0   7   86.29    5.00
 -10   0  -7   25.70    3.50
 -10   0  -7   24.20    3.50
 -10   0  -7   22.20    3.40
  10   0   7   24.70    3.30
  10   0   7   24.40    3.20
   8  -1  -7    7.10    2.50
   8  -1  -7   12.20    2.70
   7  -1  -7    4.20    2.10
   7  -1  -7    3.20    2.20
   7  -1  -7    2.60    1.90
   7  -1  -7    2.00    1.90
   6  -1  -7    6.50    2.00
   6  -1  -7    7.10    2.10
   6  -1  -7    8.50    2.30
   6  -1  -7   10.00    2.70
   5  -1  -7   39.40    4.00
   5  -1  -7   40.70    3.30
   5  -1  -7   36.50    3.30
   5  -1  -7   32.90    3.90
   4  -1  -7    0.10    1.20
   4  -1  -7    0.50    1.30
   4  -1  -7   -0.50    1.90
  -4   1   7   -0.60    1.40
  -4   1   7   -0.20    2.00
   3  -1  -7    2.80    0.70
   3  -1  -7    3.00    1.30
   3  -1  -7    0.60    1.90
  -3   1   7    5.20    2.10
  -3   1   7    3.60    1.50
  -3   1   7    2.30    1.40
   2  -1  -7  298.47   10.50
   2  -1  -7  296.27    9.90
   2  -1  -7  283.97   11.80
   2  -1  -7  294.47    9.90
  -2   1   7  300.07   11.00
  -2   1   7  261.37   11.50
  -2   1   7  305.97   10.50
   1  -1  -7  121.69    4.80
   1  -1  -7  119.89    4.60
   1  -1  -7  111.59    4.50
   1  -1  -7  116.39    6.20
  -1   1   7  126.99    5.40
  -1   1   7  110.59    4.60
  -1   1   7  113.99    5.90
   0  -1  -7    4.00    0.60
   0  -1  -7    5.70    0.70
   0  -1  -7    6.50    0.90
   0  -1  -7    6.40    1.20
   0  -1  -7    4.60    1.00
   0  -1  -7    5.20    1.90
   0   1   7    5.50    1.50
   0   1   7    3.10    1.60
  -1  -1  -7   43.30    2.30
  -1  -1  -7   39.50    3.50
  -1  -1  -7   37.70    2.50
   1   1   7   38.90    2.00
   1   1   7   36.10    2.20
   1   1   7   43.00    2.80
   1   1   7   38.10    2.10
   1   1   7   36.00    3.30
  -2  -1  -7  129.89    6.50
  -2  -1  -7  146.49    5.40
  -2  -1  -7  141.39    5.80
   2   1   7  124.39    6.20
   2   1   7  136.39    5.50
   2   1   7  163.98    6.00
   2   1   7  143.09    6.00
   2   1   7  133.59    5.40
  -3  -1  -7   10.30    2.00
  -3  -1  -7    8.80    1.70
  -3  -1  -7    8.90    1.40
   3   1   7   10.20    1.50
   3   1   7    6.50    1.70
   3   1   7   10.50    1.80
  -4  -1  -7   38.90    2.60
  -4  -1  -7   43.50    3.60
  -4  -1  -7   36.40    2.60
  -4  -1  -7   36.50    2.90
   4   1   7   39.20    3.00
   4   1   7   42.30    3.20
   4   1   7   38.80    1.80
   4   1   7   39.10    2.70
  -5  -1  -7   43.40    3.30
  -5  -1  -7   47.70    3.50
  -5  -1  -7   45.80    3.00
   5   1   7   43.90    3.00
   5   1   7   44.10    1.80
   5   1   7   45.40    3.70
   5   1   7   46.30    2.30
  -6  -1  -7   58.29    3.70
  -6  -1  -7   60.29    4.00
  -6  -1  -7   65.39    3.90
   6   1   7   55.29    3.00
   6   1   7   58.99    3.90
   6   1   7   63.89    4.30
  -7  -1  -7    1.70    1.30
  -7  -1  -7    0.60    1.80
  -7  -1  -7    2.50    2.00
   7   1   7    0.60    1.90
   7   1   7    1.10    1.50
   7   1   7   -0.20    1.00
  -8  -1  -7    4.00    2.00
  -8  -1  -7    7.40    2.20
   8   1   7    9.10    2.10
   8   1   7    2.80    1.40
   8   1   7    5.40    2.30
  -9  -1  -7    3.90    2.40
  -9  -1  -7    0.30    2.10
  -9  -1  -7    2.00    2.30
   9   1   7    0.10    2.00
   9   1   7   -1.10    1.50
   9   1   7   -0.20    1.70
 -10  -1  -7   76.69    5.30
 -10  -1  -7   69.59    5.10
 -10  -1  -7   59.59    4.80
  10   1   7   68.79    5.90
  10   1   7   55.79    4.60
  10   1   7   64.29    4.70
 -11  -1  -7   14.10    3.30
 -11  -1  -7   15.70    3.10
 -11  -1  -7   15.00    3.10
  11   1   7   20.00    3.20
  11   1   7   19.30    4.10
   8  -2  -7   47.20    4.80
   8  -2  -7   53.99    4.90
   7  -2  -7    4.80    2.10
   7  -2  -7    9.10    2.40
   6  -2  -7    5.00    1.90
   6  -2  -7    1.90    1.90
   6  -2  -7    3.10    1.90
   6  -2  -7    1.60    1.70
   5  -2  -7   27.80    3.30
   5  -2  -7   28.60    2.90
   5  -2  -7   23.20    2.80
   5  -2  -7   27.70    3.30
   4  -2  -7   44.40    3.50
   4  -2  -7   49.60    3.50
  -4   2   7   51.49    3.90
  -4   2   7   48.90    4.20
   3  -2  -7   32.00    1.50
   3  -2  -7   31.80    2.80
   3  -2  -7   30.10    2.60
  -3   2   7   34.70    3.30
  -3   2   7   35.80    3.00
  -3   2   7   33.40    3.50
   2  -2  -7    4.50    0.70
   2  -2  -7    5.40    1.20
   2  -2  -7    4.80    1.30
   2  -2  -7    5.60    0.80
  -2   2   7    4.90    1.90
  -2   2   7    6.70    1.80
  -2   2   7    4.10    1.50
   1  -2  -7  279.47    9.30
   1  -2  -7  251.67    9.60
   1  -2  -7  249.97    9.10
   1  -2  -7  275.87    9.10
  -1   2   7  252.47   10.20
  -1   2   7  281.77    9.90
  -1   2   7  270.17   10.70
   0  -2  -7    9.50    1.40
   0  -2  -7   13.10    1.20
   0  -2  -7   11.50    1.10
   0   2   7   10.90    2.20
   0   2   7    9.80    1.50
   0   2   7   11.90    2.10
  -1  -2  -7  477.25   15.90
  -1  -2  -7  467.55   15.20
   1   2   7  449.86   16.70
   1   2   7  481.35   15.40
   1   2   7  436.66   16.40
   1   2   7  466.95   16.10
   1   2   7  497.75   15.50
  -2  -2  -7  714.53   23.20
  -2  -2  -7  703.43   23.30
   2   2   7  737.13   23.10
   2   2   7  707.53   23.00
   2   2   7  647.84   23.50
   2   2   7  716.73   23.50
   2   2   7  666.63   24.00
  -3  -2  -7   16.10    1.70
  -3  -2  -7   19.20    2.00
   3   2   7   18.80    1.90
   3   2   7   16.10    1.60
   3   2   7   16.10    1.90
   3   2   7   20.90    2.50
  -4  -2  -7  491.75   17.20
  -4  -2  -7  499.75   17.00
   4   2   7  524.05   17.10
   4   2   7  484.95   17.30
   4   2   7  480.25   17.70
  -5  -2  -7  221.28    8.70
  -5  -2  -7  208.78    8.20
  -5  -2  -7  223.28    8.30
  -5  -2  -7  200.58    8.40
   5   2   7  216.98    8.40
   5   2   7  218.08    8.90
   5   2   7  212.58    7.40
  -6  -2  -7   85.19    4.20
  -6  -2  -7   72.79    4.40
  -6  -2  -7   78.79    3.40
  -6  -2  -7   81.59    4.40
   6   2   7   79.09    3.10
   6   2   7   79.99    3.50
   6   2   7   73.29    4.20
   6   2   7   79.69    4.80
  -7  -2  -7  265.47    9.90
  -7  -2  -7  263.27   10.10
  -7  -2  -7  264.97   10.40
   7   2   7  263.57    9.60
   7   2   7  268.17   10.40
   7   2   7  254.57   10.70
  -8  -2  -7  124.29    6.10
  -8  -2  -7  109.79    6.00
  -8  -2  -7  121.19    5.20
   8   2   7  110.19    5.80
   8   2   7  113.19    5.40
   8   2   7  115.99    6.40
  -9  -2  -7   23.40    3.10
  -9  -2  -7   15.10    2.80
  -9  -2  -7   17.10    2.80
   9   2   7   17.40    3.10
   9   2   7   19.30    2.70
   9   2   7   24.70    2.60
 -10  -2  -7   40.60    4.10
 -10  -2  -7   40.30    3.80
 -10  -2  -7   49.40    4.50
  10   2   7   45.60    4.00
  10   2   7   44.50    4.40
  10   2   7   44.90    4.20
 -11  -2  -7    9.90    2.90
 -11  -2  -7    9.10    2.70
 -11  -2  -7   11.40    2.90
  11   2   7   11.70    3.30
  11   2   7    8.70    2.40
  11   2   7    8.60    2.60
   8  -3  -7   72.09    5.80
   8  -3  -7   72.19    5.90
  -8   3   7   72.49    4.90
   7  -3  -7   90.49    6.00
   7  -3  -7   86.89    5.90
  -7   3   7  100.29    5.70
   6  -3  -7   27.50    3.80
   6  -3  -7   30.50    3.50
   6  -3  -7   35.20    3.70
  -6   3   7   36.60    3.60
  -6   3   7   38.60    3.70
   5  -3  -7   -1.20    1.80
   5  -3  -7    0.50    1.60
   5  -3  -7   -1.20    1.40
  -5   3   7   -1.00    1.70
  -5   3   7   -0.50    1.70
   4  -3  -7   26.60    2.90
   4  -3  -7   26.40    2.70
  -4   3   7   29.20    3.20
  -4   3   7   25.30    2.80
  -4   3   7   29.60    3.40
   3  -3  -7   20.80    2.20
   3  -3  -7   21.10    2.40
   3  -3  -7   23.80    1.90
  -3   3   7   23.40    2.80
  -3   3   7   28.20    3.10
   2  -3  -7   50.99    2.20
   2  -3  -7   47.20    3.00
   2  -3  -7   47.40    3.30
   2  -3  -7   47.70    2.20
  -2   3   7   54.19    3.80
  -2   3   7   52.49    3.20
  -2   3   7   44.70    3.80
   1  -3  -7   21.60    1.60
   1  -3  -7   26.00    2.00
   1  -3  -7   24.60    1.60
   1  -3  -7   23.20    2.30
  -1   3   7   26.50    2.70
  -1   3   7   25.60    2.20
  -1   3   7   25.80    3.00
   0  -3  -7   68.69    3.10
   0  -3  -7   65.09    3.00
   0  -3  -7   70.09    3.00
   0  -3  -7   73.89    3.60
   0   3   7   72.79    4.30
   0   3   7   69.49    4.00
   0   3   7   68.79    3.40
  -1  -3  -7  828.62   26.90
  -1  -3  -7  839.92   27.80
  -1  -3  -7  802.32   27.50
  -1  -3  -7  830.22   27.10
   1   3   7  845.02   28.30
   1   3   7  869.41   27.00
   1   3   7  871.11   27.10
   1   3   7  814.52   27.50
   1   3   7  846.62   28.50
  -2  -3  -7  218.68    8.00
  -2  -3  -7  207.98    6.90
  -2  -3  -7  211.28    7.90
   2   3   7  203.78    8.20
   2   3   7  214.38    7.60
   2   3   7  222.08    7.80
   2   3   7  218.08    8.70
   2   3   7  202.98    7.50
  -3  -3  -7   72.49    3.60
  -3  -3  -7   72.79    3.70
   3   3   7   71.69    3.40
   3   3   7   70.79    3.40
   3   3   7   64.59    3.60
   3   3   7   73.49    4.10
  -4  -3  -7  310.07   10.70
  -4  -3  -7  297.77   10.80
   4   3   7  289.77   11.20
   4   3   7  291.97   10.60
   4   3   7  294.47    9.50
   4   3   7  304.57   10.60
   4   3   7  270.77   10.60
  -5  -3  -7   25.80    2.50
  -5  -3  -7   28.70    2.50
   5   3   7   27.00    1.60
   5   3   7   29.00    2.50
   5   3   7   27.20    2.20
   5   3   7   27.00    1.40
   5   3   7   35.40    3.30
  -6  -3  -7  147.19    6.30
  -6  -3  -7  141.29    6.40
  -6  -3  -7  139.49    6.10
  -6  -3  -7  140.29    5.40
   6   3   7  141.49    6.20
   6   3   7  141.79    5.00
   6   3   7  147.19    5.50
   6   3   7  140.29    6.80
  -7  -3  -7    7.30    1.60
  -7  -3  -7    5.60    1.90
  -7  -3  -7    6.30    2.00
   7   3   7    4.50    1.60
   7   3   7    8.60    1.40
   7   3   7    6.80    2.20
  -8  -3  -7   30.60    3.20
  -8  -3  -7   37.50    3.40
  -8  -3  -7   39.20    2.60
   8   3   7   39.30    4.10
   8   3   7   38.10    3.30
   8   3   7   41.60    2.90
  -9  -3  -7   31.30    3.50
  -9  -3  -7   34.00    3.40
   9   3   7   31.00    3.20
   9   3   7   31.10    3.60
   9   3   7   29.80    2.80
   9   3   7   30.10    3.80
 -10  -3  -7    7.70    2.60
 -10  -3  -7    7.70    2.70
 -10  -3  -7    7.70    2.20
  10   3   7    7.80    2.90
  10   3   7    8.20    2.20
  10   3   7    7.10    1.90
 -11  -3  -7   42.60    4.10
 -11  -3  -7   45.90    4.50
 -11  -3  -7   45.80    3.80
  11   3   7   41.70    4.70
  11   3   7   53.39    4.30
  11   3   7   51.29    4.30
 -12  -3  -7    7.60    2.40
 -12  -3  -7    6.40    2.90
  12   3   7    2.90    2.10
   7  -4  -7   12.40    3.20
   7  -4  -7   13.70    2.90
  -7   4   7    9.30    2.60
  -7   4   7   14.60    2.90
   6  -4  -7    0.50    1.90
   6  -4  -7   -1.10    2.00
  -6   4   7   -0.50    1.80
  -6   4   7    1.90    2.10
   5  -4  -7   78.09    4.90
   5  -4  -7   67.99    5.10
   5  -4  -7   69.49    5.10
  -5   4   7   69.99    4.50
  -5   4   7   78.29    4.90
   4  -4  -7    1.60    1.40
   4  -4  -7   -0.50    1.60
  -4   4   7    1.00    1.80
  -4   4   7    1.70    1.90
  -4   4   7    4.30    1.90
   3  -4  -7    0.10    1.30
   3  -4  -7    1.20    1.60
  -3   4   7    2.50    1.80
  -3   4   7    0.90    1.50
  -3   4   7    0.30    1.60
   2  -4  -7    1.80    1.50
   2  -4  -7    0.70    0.70
   2  -4  -7   -0.90    1.10
  -2   4   7    1.50    1.70
  -2   4   7   -0.20    1.40
  -2   4   7    0.60    1.60
   1  -4  -7   82.59    3.40
   1  -4  -7   80.79    3.90
   1  -4  -7   83.09    4.40
  -1   4   7   87.49    4.80
  -1   4   7   80.59    3.80
  -1   4   7   80.99    4.60
   0  -4  -7   42.90    2.40
   0  -4  -7   43.20    2.30
   0  -4  -7   45.20    3.10
   0  -4  -7   41.80    2.40
   0   4   7   48.20    2.50
   0   4   7   43.30    3.40
   0   4   7   43.50    3.30
  -1  -4  -7   39.70    2.80
  -1  -4  -7   34.50    1.90
  -1  -4  -7   36.70    2.30
  -1  -4  -7   34.50    1.90
   1   4   7   35.60    1.70
   1   4   7   37.20    1.80
   1   4   7   39.60    2.10
   1   4   7   34.80    3.00
   1   4   7   35.60    3.00
  -2  -4  -7  197.38    7.00
  -2  -4  -7  207.38    6.90
  -2  -4  -7  210.28    7.60
   2   4   7  210.78    7.30
   2   4   7  186.88    8.20
   2   4   7  202.08    8.10
   2   4   7  209.58    7.30
   2   4   7  209.18    7.30
  -3  -4  -7   21.00    1.10
  -3  -4  -7   19.50    2.00
  -3  -4  -7   19.20    2.00
   3   4   7   16.00    2.20
   3   4   7   18.40    1.70
   3   4   7   21.30    1.70
   3   4   7   18.50    2.10
   3   4   7   21.10    1.10
  -4  -4  -7   84.99    3.00
  -4  -4  -7   84.39    4.10
  -4  -4  -7   85.79    4.20
   4   4   7   80.79    4.10
   4   4   7   79.59    3.90
   4   4   7   89.09    3.90
   4   4   7   89.19    3.20
   4   4   7   76.69    4.50
  -5  -4  -7  385.26   12.60
  -5  -4  -7  378.06   13.70
  -5  -4  -7  392.56   13.90
   5   4   7  363.26   14.10
   5   4   7  384.86   13.60
   5   4   7  397.36   13.50
   5   4   7  389.26   12.80
  -6  -4  -7    3.30    1.60
  -6  -4  -7    3.70    1.60
  -6  -4  -7    4.70    0.80
   6   4   7    4.20    1.20
   6   4   7    2.80    1.90
   6   4   7    5.70    0.90
   6   4   7    4.80    1.90
   6   4   7    6.10    1.50
  -7  -4  -7  188.28    7.80
  -7  -4  -7  195.88    7.10
  -7  -4  -7  184.28    7.80
  -7  -4  -7  193.68    8.10
  -7  -4  -7  188.68    6.90
   7   4   7  186.18    8.50
   7   4   7  191.08    6.90
   7   4   7  188.08    6.90
   7   4   7  200.48    8.00
   7   4   7  176.68    8.40
  -8  -4  -7  124.59    6.00
  -8  -4  -7  111.99    5.60
   8   4   7  117.59    6.40
   8   4   7  101.79    6.20
   8   4   7  114.09    5.60
  -9  -4  -7    3.60    2.10
  -9  -4  -7   -0.10    1.80
   9   4   7    1.00    2.20
   9   4   7    3.30    2.20
   9   4   7    0.20    1.80
 -10  -4  -7  115.89    6.40
 -10  -4  -7  123.59    6.50
  10   4   7  110.79    6.90
  10   4   7  121.49    6.10
  10   4   7  121.79    7.00
  10   4   7  130.79    6.60
 -11  -4  -7   -3.70    2.00
 -11  -4  -7   -0.40    2.20
 -11  -4  -7   -1.20    1.80
  11   4   7    1.40    1.80
  11   4   7   -0.40    2.20
  11   4   7   -3.90    2.30
  11   4   7    1.00    1.80
 -12  -4  -7    7.20    2.90
 -12  -4  -7   12.40    2.80
  12   4   7   10.70    2.70
  12   4   7    8.90    2.40
  12   4   7   13.50    3.20
  12   4   7    6.30    3.40
   7  -5  -7   34.80    4.30
   7  -5  -7   35.00    4.30
  -7   5   7   31.80    3.90
  -7   5   7   49.30    5.00
   6  -5  -7   39.70    4.40
   6  -5  -7   34.50    3.80
  -6   5   7   39.50    4.00
  -6   5   7   42.80    3.90
   5  -5  -7    3.20    2.00
   5  -5  -7    5.50    2.30
  -5   5   7    3.60    2.00
  -5   5   7    1.40    2.10
   4  -5  -7  286.47   11.80
   4  -5  -7  299.47   11.50
   4  -5  -7  272.67   13.10
  -4   5   7  303.17   11.70
  -4   5   7  278.97   11.20
   3  -5  -7   36.90    3.40
   3  -5  -7   39.30    3.50
  -3   5   7   32.70    3.30
  -3   5   7   38.70    3.30
  -3   5   7   38.00    3.20
   2  -5  -7   93.49    3.90
   2  -5  -7   95.79    5.00
   2  -5  -7   92.59    4.70
  -2   5   7   93.49    5.20
  -2   5   7   90.49    5.00
  -2   5   7   90.89    4.80
   1  -5  -7  312.37   10.60
   1  -5  -7  306.57   10.50
   1  -5  -7  303.37   11.50
   1  -5  -7  318.47   11.00
  -1   5   7  285.27   11.40
  -1   5   7  290.37   11.50
  -1   5   7  295.07   11.10
   0  -5  -7   57.89    3.20
   0  -5  -7   61.19    3.00
   0  -5  -7   58.29    3.70
   0  -5  -7   58.89    2.60
   0   5   7   56.69    3.80
   0   5   7   59.99    3.80
  -1  -5  -7   51.59    2.70
  -1  -5  -7   48.00    3.20
  -1  -5  -7   50.89    2.80
   1   5   7   51.29    2.20
   1   5   7   43.00    3.20
   1   5   7   53.39    2.20
   1   5   7   53.59    3.50
   1   5   7   49.80    2.20
   1   5   7   49.70    2.50
  -2  -5  -7   36.60    2.00
  -2  -5  -7   41.10    2.90
  -2  -5  -7   37.30    2.50
   2   5   7   36.20    2.00
   2   5   7   38.50    2.10
   2   5   7   36.40    2.20
   2   5   7   36.90    1.80
   2   5   7   36.90    3.10
   2   5   7   35.00    2.80
  -3  -5  -7   -0.30    1.10
  -3  -5  -7   -1.00    1.00
   3   5   7    0.20    0.60
   3   5   7    0.00    1.40
   3   5   7    0.60    1.40
   3   5   7   -1.10    0.90
   3   5   7    0.10    0.50
  -4  -5  -7   55.49    2.50
  -4  -5  -7   55.79    3.30
  -4  -5  -7   52.19    3.40
   4   5   7   57.79    2.60
   4   5   7   55.39    3.90
   4   5   7   60.59    2.70
   4   5   7   58.39    3.10
   4   5   7   56.79    3.40
  -5  -5  -7  107.19    4.00
  -5  -5  -7  102.99    5.00
  -5  -5  -7  103.69    5.00
   5   5   7   98.79    5.40
   5   5   7  103.99    4.80
   5   5   7  106.69    5.60
   5   5   7  107.79    4.10
   5   5   7  103.79    4.70
  -6  -5  -7   14.80    2.20
  -6  -5  -7   15.50    1.50
  -6  -5  -7   15.50    2.20
   6   5   7   13.60    1.90
   6   5   7   20.90    1.80
   6   5   7   14.80    2.50
   6   5   7   18.50    2.80
   6   5   7   14.90    1.80
  -7  -5  -7  132.29    6.20
  -7  -5  -7  143.79    6.50
  -7  -5  -7  134.19    6.30
  -7  -5  -7  146.49    5.40
   7   5   7  127.49    6.70
   7   5   7  140.89    6.20
   7   5   7  134.49    6.90
   7   5   7  139.49    5.50
  -8  -5  -7    3.90    1.80
  -8  -5  -7    4.20    1.80
  -8  -5  -7    5.60    2.00
  -8  -5  -7    6.60    1.40
   8   5   7    7.40    2.40
   8   5   7    7.20    1.20
   8   5   7    4.30    2.40
   8   5   7    5.50    1.80
  -9  -5  -7  101.99    5.50
  -9  -5  -7  102.69    5.50
  -9  -5  -7  101.09    4.70
   9   5   7  107.89    5.50
   9   5   7  100.29    6.20
 -10  -5  -7  227.88    9.90
 -10  -5  -7  227.38    9.10
 -10  -5  -7  250.77   10.00
 -10  -5  -7  237.68    9.20
  10   5   7  248.98   10.10
  10   5   7  225.18   10.60
 -11  -5  -7   11.20    2.10
 -11  -5  -7   15.20    2.80
 -11  -5  -7   11.50    2.80
  11   5   7    9.50    3.00
  11   5   7   15.10    2.70
 -12  -5  -7   58.49    4.60
 -12  -5  -7   41.90    4.50
  12   5   7   57.89    4.50
  12   5   7   40.50    4.80
  12   5   7   46.00    4.30
   6  -6  -7   91.09    6.30
   6  -6  -7   99.19    6.50
  -6   6   7   91.29    5.80
  -6   6   7   87.29    5.60
   5  -6  -7  112.19    6.80
   5  -6  -7  113.89    6.60
  -5   6   7  115.19    6.20
  -5   6   7  111.19    6.20
   4  -6  -7   -2.60    1.80
   4  -6  -7    0.40    1.80
  -4   6   7    1.00    2.00
  -4   6   7   -0.20    1.80
   3  -6  -7   35.70    3.50
   3  -6  -7   39.00    3.80
  -3   6   7   41.40    3.70
  -3   6   7   38.00    3.50
  -3   6   7   34.70    3.00
   2  -6  -7  206.28    9.20
   2  -6  -7  220.38    8.10
   2  -6  -7  233.08    9.00
  -2   6   7  215.98    8.80
  -2   6   7  225.18    9.30
  -2   6   7  213.98    8.90
   1  -6  -7   77.69    4.20
   1  -6  -7   74.29    4.40
   1  -6  -7   69.99    3.50
  -1   6   7   66.49    4.40
  -1   6   7   66.59    4.10
  -1   6   7   80.39    4.30
   0  -6  -7   48.40    2.20
   0  -6  -7   54.59    2.90
   0  -6  -7   46.80    3.40
   0  -6  -7   52.09    3.30
   0   6   7   49.10    3.50
   0   6   7   48.50    3.50
   0   6   7   50.79    3.30
  -1  -6  -7  261.67    9.30
  -1  -6  -7  252.97    9.80
  -1  -6  -7  254.57    9.20
   1   6   7  245.38    8.70
   1   6   7  245.38    9.80
   1   6   7  253.87    8.70
   1   6   7  249.08    9.90
  -2  -6  -7    3.20    1.20
  -2  -6  -7    1.80    1.30
  -2  -6  -7    1.90    0.90
   2   6   7    1.90    0.80
   2   6   7    2.00    1.50
   2   6   7    1.20    1.00
   2   6   7    1.90    1.50
  -3  -6  -7   75.39    4.10
  -3  -6  -7   77.19    3.80
  -3  -6  -7   72.89    3.30
   3   6   7   72.89    4.00
   3   6   7   71.49    3.40
   3   6   7   75.19    4.40
   3   6   7   71.59    3.50
  -4  -6  -7   30.70    2.00
  -4  -6  -7   28.20    2.60
  -4  -6  -7   28.60    2.50
   4   6   7   29.30    3.00
   4   6   7   28.80    2.40
   4   6   7   35.10    3.30
   4   6   7   29.10    1.50
   4   6   7   29.80    2.60
  -5  -6  -7   18.30    2.20
  -5  -6  -7   17.70    2.20
  -5  -6  -7   21.90    1.80
   5   6   7   24.50    2.40
   5   6   7   19.60    2.10
   5   6   7   26.50    3.10
  -6  -6  -7   37.60    3.00
  -6  -6  -7   37.40    3.20
  -6  -6  -7   34.60    2.30
   6   6   7   40.40    3.80
   6   6   7   39.50    3.70
   6   6   7   35.00    2.80
   6   6   7   35.10    2.80
  -7  -6  -7    1.00    1.00
  -7  -6  -7   -1.00    1.50
   7   6   7    1.10    1.90
   7   6   7    0.10    1.40
   7   6   7    1.00    1.20
  -8  -6  -7  147.39    7.20
  -8  -6  -7  168.08    7.50
  -8  -6  -7  162.38    7.30
  -8  -6  -7  172.98    6.60
   8   6   7  165.28    7.40
   8   6   7  171.08    6.40
   8   6   7  167.48    8.20
  -9  -6  -7   43.90    3.80
  -9  -6  -7   45.80    3.10
  -9  -6  -7   45.40    3.80
  -9  -6  -7   49.99    3.80
   9   6   7   44.70    3.60
   9   6   7   33.50    4.00
 -10  -6  -7   19.30    2.90
 -10  -6  -7   23.60    2.50
 -10  -6  -7   23.50    3.20
 -10  -6  -7   17.70    2.20
  10   6   7   18.00    3.50
  10   6   7   19.60    2.90
 -11  -6  -7   12.10    2.20
 -11  -6  -7    8.70    2.50
 -11  -6  -7   15.00    3.00
  11   6   7    6.80    2.90
  11   6   7   14.00    2.70
 -12  -6  -7   21.40    3.70
 -12  -6  -7   30.50    3.60
  12   6   7   27.30    4.20
  12   6   7   21.60    3.40
  -6   7   7    6.30    2.40
  -6   7   7   -1.60    2.60
   5  -7  -7    0.00    2.10
   5  -7  -7    2.40    2.40
  -5   7   7    1.00    2.00
  -5   7   7   -1.60    2.20
   4  -7  -7    4.50    2.20
   4  -7  -7   10.00    2.50
  -4   7   7    8.60    2.60
  -4   7   7    7.70    2.30
   3  -7  -7   89.59    5.70
   3  -7  -7   89.99    5.40
  -3   7   7   94.89    5.60
  -3   7   7   86.59    5.50
   2  -7  -7   69.09    4.80
   2  -7  -7   65.79    3.60
   2  -7  -7   71.39    4.60
  -2   7   7   67.69    3.90
  -2   7   7   69.89    4.40
  -2   7   7   73.79    4.80
   1  -7  -7  369.46   13.00
   1  -7  -7  361.76   13.50
   1  -7  -7  357.16   13.80
  -1   7   7  365.76   13.80
  -1   7   7  371.26   13.40
  -1   7   7  351.26   13.20
   0  -7  -7  148.79    7.10
   0  -7  -7  159.98    6.50
   0  -7  -7  163.38    6.90
   0   7   7  158.58    6.80
   0   7   7  151.78    7.20
   0   7   7  159.58    6.90
   0   7   7  167.78    5.90
   0   7   7  163.48    5.60
  -1  -7  -7   15.50    2.20
  -1  -7  -7   14.30    1.90
  -1  -7  -7   16.70    2.00
   1   7   7   16.80    2.30
   1   7   7   15.70    2.20
   1   7   7   15.80    2.50
   1   7   7   15.10    1.40
   1   7   7   18.80    1.60
  -2  -7  -7  350.26   13.30
  -2  -7  -7  373.16   12.90
  -2  -7  -7  369.26   13.00
   2   7   7  366.16   13.50
   2   7   7  351.96   12.50
   2   7   7  371.76   12.80
   2   7   7  347.77   13.40
  -3  -7  -7   22.50    2.20
  -3  -7  -7   22.30    2.30
  -3  -7  -7   22.10    2.40
   3   7   7   26.30    2.90
   3   7   7   21.00    2.50
   3   7   7   25.50    2.20
  -4  -7  -7  149.59    5.90
  -4  -7  -7  134.89    6.30
  -4  -7  -7  146.39    5.80
  -4  -7  -7  140.59    6.20
   4   7   7  141.79    6.80
   4   7   7  144.69    6.50
   4   7   7  145.69    6.10
   4   7   7  148.89    7.00
  -5  -7  -7  119.99    5.60
  -5  -7  -7  119.09    5.60
  -5  -7  -7  121.19    5.00
   5   7   7  114.09    6.10
   5   7   7  121.59    6.20
   5   7   7  116.19    4.30
   5   7   7  116.19    5.30
   5   7   7  131.69    5.70
  -6  -7  -7   14.40    2.20
  -6  -7  -7   15.40    2.20
  -6  -7  -7   17.10    1.80
   6   7   7   15.30    1.60
   6   7   7   17.70    2.10
   6   7   7   19.20    2.30
   6   7   7   13.00    2.60
  -7  -7  -7   14.00    2.20
  -7  -7  -7   14.90    1.90
  -7  -7  -7   13.90    2.20
   7   7   7   16.00    2.20
   7   7   7   20.50    2.30
   7   7   7   18.00    2.90
  -8  -7  -7   24.20    2.30
  -8  -7  -7   29.30    3.20
  -8  -7  -7   26.90    3.00
   8   7   7   25.90    3.40
   8   7   7   33.50    3.10
   8   7   7   26.50    2.40
  -9  -7  -7   15.20    2.70
  -9  -7  -7   10.20    1.90
  -9  -7  -7    7.40    2.40
  -9  -7  -7   15.40    2.40
   9   7   7   12.70    2.30
   9   7   7    9.80    2.90
 -10  -7  -7    1.30    1.70
 -10  -7  -7    8.10    2.30
 -10  -7  -7    2.70    2.20
  10   7   7    0.50    1.80
  10   7   7    2.50    2.60
 -11  -7  -7    3.70    2.20
 -11  -7  -7    0.40    2.10
 -11  -7  -7    2.70    1.80
  11   7   7   -0.30    2.70
  11   7   7    0.90    2.00
 -12  -7  -7   20.30    3.70
 -12  -7  -7   28.80    3.50
  12   7   7   17.20    3.70
  12   7   7   20.20    3.10
   5  -8  -7    5.10    2.60
   5  -8  -7    7.70    2.70
  -5   8   7    6.70    2.80
  -5   8   7   11.60    2.70
   4  -8  -7   52.29    4.90
   4  -8  -7   52.89    5.00
  -4   8   7   49.50    4.60
  -4   8   7   49.10    4.40
   3  -8  -7   98.49    6.00
   3  -8  -7   92.19    5.90
  -3   8   7   88.69    5.60
  -3   8   7   99.59    5.90
   2  -8  -7   21.20    2.40
   2  -8  -7   22.00    2.90
   2  -8  -7   21.70    3.10
  -2   8   7   27.20    3.20
  -2   8   7   22.50    3.30
   1  -8  -7    4.30    1.90
   1  -8  -7    2.00    1.30
   1  -8  -7    2.10    1.80
  -1   8   7    4.50    1.30
  -1   8   7    5.10    2.10
  -1   8   7    2.90    1.90
   0  -8  -7   10.70    2.20
   0  -8  -7   11.30    1.90
   0  -8  -7   10.50    2.10
   0   8   7   12.70    1.20
   0   8   7   11.00    2.30
   0   8   7   14.40    2.50
   0   8   7   11.80    1.80
  -1  -8  -7  432.56   16.80
  -1  -8  -7  477.65   16.50
  -1  -8  -7  514.95   16.90
   1   8   7  488.85   16.60
   1   8   7  443.26   16.60
   1   8   7  457.05   17.00
   1   8   7  462.95   15.90
  -2  -8  -7   -0.30    1.40
  -2  -8  -7    1.00    1.30
  -2  -8  -7   -1.10    1.30
   2   8   7   -0.40    1.20
   2   8   7    0.50    1.50
   2   8   7   -0.60    1.80
   2   8   7    0.60    1.70
  -3  -8  -7   53.69    3.60
  -3  -8  -7   49.60    3.30
  -3  -8  -7   59.69    3.80
   3   8   7   56.39    3.90
   3   8   7   48.20    3.70
   3   8   7   48.00    3.90
   3   8   7   54.29    3.30
  -4  -8  -7  399.76   13.40
  -4  -8  -7  363.96   13.70
  -4  -8  -7  384.56   13.70
   4   8   7  371.36   13.30
   4   8   7  379.36   13.90
   4   8   7  333.97   13.90
   4   8   7  372.86   14.20
  -5  -8  -7    0.40    1.40
  -5  -8  -7   -0.70    1.20
  -5  -8  -7   -0.20    1.40
   5   8   7    2.30    1.80
   5   8   7    0.10    1.30
   5   8   7   -1.30    1.70
   5   8   7   -1.30    1.90
  -6  -8  -7   45.20    3.00
  -6  -8  -7   40.20    3.40
  -6  -8  -7   45.60    3.50
   6   8   7   39.30    4.00
   6   8   7   49.40    3.50
   6   8   7   52.69    3.60
  -7  -8  -7  327.47   11.90
  -7  -8  -7  314.37   12.40
  -7  -8  -7  309.17   12.40
   7   8   7  329.87   13.30
   7   8   7  341.97   12.10
   7   8   7  331.37   12.40
  -8  -8  -7    8.90    1.80
  -8  -8  -7    7.60    2.10
  -8  -8  -7    7.80    2.00
   8   8   7    4.80    1.90
   8   8   7    8.90    2.70
   8   8   7    9.00    1.90
  -9  -8  -7   20.90    2.90
  -9  -8  -7   23.00    3.00
  -9  -8  -7   27.50    2.80
   9   8   7   18.80    3.40
   9   8   7   26.30    2.90
   9   8   7   26.00    2.50
 -10  -8  -7   10.20    2.60
 -10  -8  -7   12.00    2.50
 -10  -8  -7   10.70    2.70
 -10  -8  -7    7.60    2.00
  10   8   7   10.30    2.40
  10   8   7   13.60    3.20
 -11  -8  -7    1.50    1.90
 -11  -8  -7   -0.60    2.20
 -11  -8  -7   -0.70    2.20
  11   8   7    1.40    2.70
  11   8   7    2.30    2.00
 -12  -8  -7    7.30    2.70
 -12  -8  -7    3.90    2.90
 -12  -8  -7    4.90    2.50
  12   8   7    2.40    3.00
  12   8   7    2.80    2.50
   4  -9  -7   12.90    2.90
   4  -9  -7   13.60    3.20
  -4   9   7   16.00    3.40
  -4   9   7   17.10    3.10
   3  -9  -7   43.40    4.50
   3  -9  -7   40.10    4.40
  -3   9   7   46.90    4.70
  -3   9   7   33.90    4.00
   2  -9  -7   44.20    4.40
   2  -9  -7   37.80    4.00
   2  -9  -7   43.40    3.50
  -2   9   7   43.40    4.40
  -2   9   7   46.60    4.10
   1  -9  -7   52.59    4.40
   1  -9  -7   56.39    4.40
   1  -9  -7   43.70    3.60
  -1   9   7   53.59    4.60
  -1   9   7   51.19    4.10
   0  -9  -7    5.30    1.70
   0  -9  -7    4.80    2.10
   0  -9  -7    0.60    1.70
   0   9   7    3.20    1.10
   0   9   7    5.50    1.40
   0   9   7    3.60    2.20
   0   9   7    6.20    2.20
  -1  -9  -7    3.30    1.80
  -1  -9  -7    2.00    1.60
  -1  -9  -7    4.90    1.70
   1   9   7    2.40    1.90
   1   9   7    4.20    1.40
   1   9   7    2.80    1.40
   1   9   7    3.90    2.20
  -2  -9  -7   -1.20    1.20
  -2  -9  -7   -1.50    1.40
  -2  -9  -7    0.50    1.40
   2   9   7    1.00    1.80
   2   9   7   -0.70    1.50
   2   9   7    0.90    1.50
   2   9   7    0.90    1.40
  -3  -9  -7    5.50    1.70
  -3  -9  -7    5.50    1.90
  -3  -9  -7    4.50    1.60
   3   9   7    5.50    1.80
   3   9   7    6.10    1.70
   3   9   7    6.00    2.00
   3   9   7    8.00    2.30
  -4  -9  -7   41.00    3.30
  -4  -9  -7   38.80    3.30
  -4  -9  -7   40.80    3.20
   4   9   7   39.90    3.80
   4   9   7   42.10    3.30
   4   9   7   42.70    3.80
   4   9   7   40.70    3.90
  -5  -9  -7   16.40    2.30
  -5  -9  -7   16.10    2.50
  -5  -9  -7   13.90    2.10
   5   9   7   23.10    3.00
   5   9   7   13.00    2.60
   5   9   7   15.10    2.70
   5   9   7   16.50    2.30
  -6  -9  -7   77.39    4.50
  -6  -9  -7   73.79    4.10
  -6  -9  -7   66.09    4.40
   6   9   7   79.59    4.70
   6   9   7   75.39    4.30
   6   9   7   73.29    5.20
  -7  -9  -7   20.20    2.70
  -7  -9  -7   19.60    2.70
  -7  -9  -7   23.30    2.50
   7   9   7   19.50    2.50
   7   9   7   23.20    3.30
   7   9   7   22.80    2.70
  -8  -9  -7   39.20    3.60
  -8  -9  -7   33.50    3.00
  -8  -9  -7   33.40    3.40
   8   9   7   25.10    3.60
   8   9   7   35.60    3.20
   8   9   7   32.40    3.30
  -9  -9  -7  157.98    7.50
  -9  -9  -7  152.98    7.50
  -9  -9  -7  158.98    7.60
  -9  -9  -7  151.18    7.00
   9   9   7  156.48    7.40
   9   9   7  146.79    8.40
   9   9   7  159.58    6.80
 -10  -9  -7   -0.80    2.10
 -10  -9  -7   -0.20    1.90
 -10  -9  -7   -0.60    2.00
 -10  -9  -7    0.80    1.80
  10   9   7   -3.00    1.70
  10   9   7   -0.10    2.70
 -11  -9  -7    0.50    2.00
 -11  -9  -7    1.60    2.30
 -11  -9  -7    0.40    2.00
  11   9   7   -3.10    2.70
  11   9   7   -2.90    2.10
 -12  -9  -7   -1.70    2.10
 -12  -9  -7   -1.30    2.00
 -12  -9  -7   -2.90    2.20
  12   9   7    1.00    3.10
  12   9   7    2.60    2.20
   3 -10  -7    3.30    2.30
   3 -10  -7   -1.60    2.30
  -3  10   7    6.60    2.90
  -3  10   7    0.80    2.20
   2 -10  -7    0.10    2.20
   2 -10  -7    4.20    2.30
  -2  10   7    9.20    2.70
  -2  10   7    5.90    2.60
   1 -10  -7  108.39    6.40
   1 -10  -7  107.79    5.90
   1 -10  -7  115.89    6.60
  -1  10   7  106.29    6.50
  -1  10   7  117.79    6.30
   0 -10  -7    8.30    2.20
   0 -10  -7    7.10    1.90
   0 -10  -7    7.20    2.30
   0  10   7    5.50    2.60
   0  10   7    8.50    1.50
   0  10   7    7.20    2.40
  -1 -10  -7   49.80    4.10
  -1 -10  -7   45.00    4.10
  -1 -10  -7   38.00    3.60
   1  10   7   46.30    3.90
   1  10   7   42.30    3.10
   1  10   7   49.10    4.70
  -2 -10  -7   81.49    5.10
  -2 -10  -7   76.39    4.70
  -2 -10  -7   76.09    4.90
   2  10   7   80.69    5.20
   2  10   7   82.79    4.40
   2  10   7   80.19    4.50
   2  10   7   82.29    4.50
  -3 -10  -7   40.40    3.70
  -3 -10  -7   39.60    3.70
  -3 -10  -7   39.80    3.70
   3  10   7   40.90    3.90
   3  10   7   40.30    3.70
   3  10   7   36.80    3.50
   3  10   7   41.70    3.40
   3  10   7   45.50    3.20
  -4 -10  -7    2.80    1.70
  -4 -10  -7    4.60    1.70
  -4 -10  -7    0.60    1.60
   4  10   7    4.00    2.30
   4  10   7   -1.10    1.80
   4  10   7    0.30    1.70
   4  10   7    1.20    1.90
  -5 -10  -7    0.60    1.60
  -5 -10  -7    0.10    1.50
  -5 -10  -7   -0.50    1.70
  -5 -10  -7    0.70    1.50
   5  10   7   -1.60    1.90
   5  10   7    1.20    2.10
   5  10   7    0.70    1.70
   5  10   7    2.00    2.10
  -6 -10  -7   18.80    2.90
  -6 -10  -7   21.40    2.80
  -6 -10  -7   23.40    2.60
   6  10   7   23.50    3.40
   6  10   7   25.30    3.30
   6  10   7   20.50    2.70
  -7 -10  -7  170.68    7.80
  -7 -10  -7  170.68    7.90
  -7 -10  -7  173.08    7.50
   7  10   7  169.38    7.80
   7  10   7  156.28    8.50
   7  10   7  182.78    8.00
  -8 -10  -7    2.60    2.10
  -8 -10  -7    1.60    1.70
  -8 -10  -7    3.50    1.90
   8  10   7    3.40    2.00
   8  10   7    1.50    2.80
   8  10   7    1.20    2.00
  -9 -10  -7   74.79    4.90
  -9 -10  -7   76.49    4.90
  -9 -10  -7   73.79    5.20
  -9 -10  -7   79.19    5.20
   9  10   7   85.49    4.80
   9  10   7   70.99    6.00
   9  10   7   74.29    5.20
 -10 -10  -7  363.16   14.10
 -10 -10  -7  343.57   13.60
 -10 -10  -7  372.76   14.20
  10  10   7  338.57   15.40
  10  10   7  355.46   14.10
 -11 -10  -7    2.40    2.00
 -11 -10  -7    0.60    2.10
 -11 -10  -7    2.50    2.40
 -11 -10  -7    2.20    2.40
  11  10   7    2.00    3.30
  11  10   7    1.10    2.40
 -12 -10  -7   21.80    3.60
 -12 -10  -7   23.40    3.50
 -12 -10  -7   16.30    3.10
  12  10   7   13.70    4.10
  12  10   7   24.20    3.50
   2 -11  -7  126.79    7.50
   2 -11  -7  122.09    7.20
  -2  11   7  136.79    7.70
   1 -11  -7  112.09    6.90
   1 -11  -7  127.69    7.10
   1 -11  -7  116.79    6.50
  -1  11   7  110.19    6.50
  -1  11   7  125.29    7.30
   0 -11  -7   35.40    3.90
   0 -11  -7   48.20    4.30
   0 -11  -7   42.60    4.30
   0  11   7   42.20    4.00
   0  11   7   39.50    4.60
  -1 -11  -7  541.45   20.40
  -1 -11  -7  534.15   20.20
  -1 -11  -7  597.94   20.70
   1  11   7  567.64   20.00
   1  11   7  541.95   19.40
   1  11   7  563.64   21.00
  -2 -11  -7    1.20    1.90
  -2 -11  -7    0.20    1.90
  -2 -11  -7   -0.10    1.80
   2  11   7   -0.90    1.70
   2  11   7    0.00    2.20
   2  11   7    2.40    2.10
  -3 -11  -7    8.90    2.30
  -3 -11  -7    8.50    2.30
  -3 -11  -7    9.50    2.30
   3  11   7    7.70    2.10
   3  11   7   10.50    2.20
   3  11   7    7.60    2.10
   3  11   7   10.70    2.10
   3  11   7   12.80    3.10
  -4 -11  -7  102.49    5.80
  -4 -11  -7  105.09    6.00
  -4 -11  -7  101.39    5.70
   4  11   7  106.29    5.70
   4  11   7  109.39    5.90
   4  11   7   93.69    5.80
   4  11   7  104.89    6.20
  -5 -11  -7   14.10    2.50
  -5 -11  -7   10.30    2.20
  -5 -11  -7    9.60    2.50
  -5 -11  -7    9.00    2.30
   5  11   7    8.70    2.30
   5  11   7    8.10    2.70
   5  11   7    8.00    2.60
   5  11   7   12.20    3.00
  -6 -11  -7    6.90    2.40
  -6 -11  -7    6.00    2.20
  -6 -11  -7    7.70    2.20
   6  11   7    7.50    2.40
   6  11   7    9.00    2.70
   6  11   7    4.20    2.60
  -7 -11  -7    2.60    2.00
  -7 -11  -7    1.70    1.80
  -7 -11  -7    3.70    2.20
   7  11   7    2.00    2.50
   7  11   7    4.30    2.50
   7  11   7    0.30    2.00
  -8 -11  -7    2.70    2.00
  -8 -11  -7    3.00    2.10
  -8 -11  -7    1.90    2.00
   8  11   7    1.00    2.80
   8  11   7    7.60    2.30
   8  11   7    1.70    2.20
  -9 -11  -7   10.40    2.60
  -9 -11  -7   10.90    2.80
  -9 -11  -7   10.30    2.50
  -9 -11  -7    9.40    2.60
   9  11   7    3.80    3.10
   9  11   7   14.90    2.70
   9  11   7    6.60    2.50
 -10 -11  -7    7.50    2.50
 -10 -11  -7    6.20    2.60
 -10 -11  -7    2.40    2.20
 -10 -11  -7    6.70    2.60
  10  11   7    2.80    3.20
  10  11   7    7.50    2.50
 -11 -11  -7    8.30    2.60
 -11 -11  -7    9.00    2.80
 -11 -11  -7   10.20    2.90
  11  11   7   11.80    2.90
  11  11   7    3.70    3.60
   0 -12  -7   35.60    4.20
   0 -12  -7   35.20    4.00
   0 -12  -7   38.20    4.10
   0  12   7   38.90    4.70
   0  12   7   35.80    4.10
  -1 -12  -7   20.20    3.10
  -1 -12  -7   15.40    2.90
  -1 -12  -7   16.60    3.00
   1  12   7   14.40    2.40
   1  12   7   14.40    3.10
   1  12   7   19.50    3.70
  -2 -12  -7    0.20    2.00
  -2 -12  -7   -1.00    1.90
  -2 -12  -7   -2.20    1.80
   2  12   7    1.90    2.80
   2  12   7    1.00    1.90
   2  12   7   -0.90    2.00
  -3 -12  -7    2.60    2.10
  -3 -12  -7    2.20    2.10
  -3 -12  -7    4.90    2.30
   3  12   7    5.30    2.30
   3  12   7    5.90    2.90
   3  12   7    5.60    2.10
  -4 -12  -7  117.79    6.70
  -4 -12  -7  120.09    6.60
  -4 -12  -7  118.59    6.70
   4  12   7  120.89    7.30
   4  12   7  116.49    6.20
   4  12   7  122.09    6.40
   4  12   7  118.29    6.50
  -5 -12  -7   25.00    3.30
  -5 -12  -7   20.50    3.00
  -5 -12  -7   23.40    3.30
  -5 -12  -7   21.70    3.10
   5  12   7   18.30    3.20
   5  12   7   21.00    3.30
   5  12   7   20.20    3.50
   5  12   7   26.80    3.40
  -6 -12  -7   50.99    4.70
  -6 -12  -7   47.00    4.30
  -6 -12  -7   50.89    4.20
   6  12   7   48.40    4.70
   6  12   7   55.49    4.70
   6  12   7   41.00    4.50
  -7 -12  -7   -0.20    1.90
  -7 -12  -7   -0.60    2.00
  -7 -12  -7   -0.80    2.00
   7  12   7    5.90    2.80
   7  12   7   -1.30    2.20
   7  12   7    0.00    2.60
  -8 -12  -7    1.80    2.30
  -8 -12  -7    2.00    2.00
  -8 -12  -7    3.30    2.10
   8  12   7    1.80    2.50
   8  12   7   -1.70    2.70
   8  12   7    4.70    2.50
  -9 -12  -7    2.80    2.20
  -9 -12  -7    4.00    2.20
  -9 -12  -7   -0.60    2.00
   9  12   7   -1.90    2.10
   9  12   7    5.50    2.60
   9  12   7   -2.70    2.80
 -10 -12  -7    1.40    2.10
 -10 -12  -7    0.10    2.10
 -10 -12  -7   -2.60    2.20
 -10 -12  -7    1.70    2.50
  10  12   7    0.10    3.50
  10  12   7   -3.60    2.30
  -2 -13  -7   12.70    2.80
  -2 -13  -7    9.20    2.50
  -2 -13  -7    8.80    2.70
   2  13   7   13.60    2.90
   2  13   7   12.00    3.50
   2  13   7   14.60    2.60
  -3 -13  -7   11.90    2.80
  -3 -13  -7    8.70    2.60
  -3 -13  -7    8.00    2.50
   3  13   7   11.30    2.60
   3  13   7   13.20    3.50
  -4 -13  -7  101.19    6.30
  -4 -13  -7   87.39    5.80
  -4 -13  -7   89.59    5.90
   4  13   7   88.09    6.70
   4  13   7   90.19    5.80
  -5 -13  -7   16.90    3.20
  -5 -13  -7   11.20    2.70
  -5 -13  -7   25.80    3.80
  -5 -13  -7   23.20    3.30
   5  13   7   19.80    4.70
   5  13   7   15.30    3.10
   5  13   7   20.10    3.90
  -6 -13  -7   17.10    3.10
  -6 -13  -7   19.30    3.20
  -6 -13  -7   20.00    3.20
   6  13   7    9.90    3.10
   6  13   7   17.00    3.50
   6  13   7   22.30    4.00
   6  13   7   18.40    3.20
  -7 -13  -7   32.70    3.90
  -7 -13  -7   35.50    4.20
  -7 -13  -7   34.30    3.90
   7  13   7   25.10    3.60
   7  13   7   33.20    4.20
   7  13   7   29.10    4.20
  -8 -13  -7    1.50    2.20
  -8 -13  -7    2.20    2.20
  -8 -13  -7    1.60    2.30
   8  13   7    0.70    2.50
   8  13   7    2.30    2.40
   8  13   7   -1.20    2.80
  -9 -13  -7   52.39    5.00
  -9 -13  -7   52.69    4.70
  -9 -13  -7   47.50    4.30
   9  13   7   42.10    5.50
   9  13   7   43.10    4.50
   9  13   7   59.89    5.30
   5   6  -8   42.10    5.80
   5   6  -8   46.70    5.60
  -5  -6   8   58.89    4.50
  -5  -6   8   53.39    5.60
   4   6  -8    5.70    3.60
   4   6  -8   -0.80    3.10
  -4  -6   8    1.00    2.60
  -4  -6   8    2.70    1.90
   3   6  -8  114.09    6.50
   3   6  -8  109.89    8.30
   3   6  -8  113.69    8.20
  -3  -6   8  114.29    6.10
  -3  -6   8  110.09    7.20
   2   6  -8  196.78   10.90
   2   6  -8  197.68    9.20
   2   6  -8  191.08   10.70
  -2  -6   8  182.28    9.70
   1   6  -8    3.10    2.60
   1   6  -8   -0.20    3.20
   1   6  -8   -1.50    3.10
  -1  -6   8    1.60    2.20
  -1  -6   8    1.50    2.40
   0   6  -8   99.19    8.10
   0   6  -8   88.69    7.40
   0   6  -8  104.79    6.60
   0  -6   8   90.59    6.40
   0  -6   8   90.69    5.20
  -1   6  -8   44.70    5.80
  -1   6  -8   59.59    5.60
   1  -6   8   58.39    5.30
   1  -6   8   65.59    4.50
  -2   6  -8  136.79    8.80
  -2   6  -8  121.19    7.60
   2  -6   8  130.69    6.90
   2  -6   8  146.79    8.00
  -3   6  -8    3.60    3.90
   6   5  -8   13.10    4.60
   6   5  -8    8.90    3.70
  -6  -5   8   10.80    3.10
  -6  -5   8   15.00    2.90
   5   5  -8    0.70    3.10
   5   5  -8    1.20    2.90
  -5  -5   8    0.00    2.40
  -5  -5   8    2.00    1.80
   4   5  -8   13.60    4.00
   4   5  -8    9.80    3.40
  -4  -5   8   11.60    2.30
  -4  -5   8   11.60    3.10
   3   5  -8  135.49    8.30
   3   5  -8  122.89    6.50
   3   5  -8  119.49    8.50
  -3  -5   8  128.09    7.50
  -3  -5   8  119.09    6.10
   2   5  -8    7.60    2.50
   2   5  -8    8.50    3.40
   2   5  -8    8.80    3.40
  -2  -5   8    8.20    1.90
  -2  -5   8   15.30    3.10
   1   5  -8   22.00    3.10
   1   5  -8   30.10    4.50
  -1  -5   8   29.00    2.60
  -1  -5   8   26.70    3.60
  -1  -5   8   26.70    2.60
   0   5  -8  166.38    9.50
   0   5  -8  177.98    8.50
   0  -5   8  168.88    8.80
   0  -5   8  179.38    7.50
   0  -5   8  172.38    8.70
  -1   5  -8   32.00    3.70
  -1   5  -8   21.20    4.00
   1  -5   8   23.80    3.40
   1  -5   8   26.40    3.70
   1  -5   8   28.00    3.00
  -2   5  -8   33.60    4.70
  -2   5  -8   41.20    4.50
   2  -5   8   44.60    4.20
   2  -5   8   47.60    4.80
   2  -5   8   50.09    3.90
  -3   5  -8   74.19    6.90
  -3   5  -8   82.49    5.80
   3  -5   8   82.79    5.20
   3  -5   8   77.69    5.90
  -4   5  -8   35.40    4.40
  -4   5  -8   35.40    4.20
  -4   5  -8   21.90    4.20
   4  -5   8   38.80    4.60
   4  -5   8   36.00    3.90
   7   4  -8   -1.70    3.00
   7   4  -8   -2.40    3.30
  -7  -4   8   -2.00    2.10
  -7  -4   8    3.20    2.50
   6   4  -8    6.70    3.70
   6   4  -8   13.10    3.80
  -6  -4   8   10.80    2.90
  -6  -4   8   15.00    2.70
   5   4  -8   38.50    4.90
   5   4  -8   42.80    5.80
  -5  -4   8   56.59    5.00
  -5  -4   8   50.79    3.90
   4   4  -8    5.30    3.30
   4   4  -8   11.00    3.70
  -4  -4   8    7.40    2.50
  -4  -4   8    8.20    2.00
   3   4  -8    5.90    3.20
   3   4  -8    6.90    3.00
   3   4  -8    3.60    1.90
  -3  -4   8   10.10    2.00
  -3  -4   8    6.10    2.50
   2   4  -8    5.80    3.20
   2   4  -8   12.70    2.40
  -2  -4   8    9.00    2.50
  -2  -4   8   10.90    1.90
   1   4  -8    2.70    2.90
   1   4  -8    4.80    2.10
  -1  -4   8    3.10    2.00
  -1  -4   8    1.10    1.20
  -1  -4   8    1.20    1.20
  -1  -4   8    4.10    2.30
   0   4  -8   -0.80    1.90
   0   4  -8   -2.50    2.50
   0  -4   8    1.30    1.10
   0  -4   8   -0.50    1.30
   0  -4   8    0.40    1.90
   0  -4   8    0.00    1.70
  -1   4  -8   52.39    5.30
  -1   4  -8   60.39    4.40
   1  -4   8   52.19    4.40
   1  -4   8   48.70    4.40
   1  -4   8   47.20    3.50
  -2   4  -8   21.80    3.80
  -2   4  -8   30.10    3.80
   2  -4   8   23.00    2.80
   2  -4   8   28.20    3.50
   2  -4   8   35.40    3.70
  -3   4  -8  204.98    9.40
  -3   4  -8  215.58   10.30
   3  -4   8  195.98    9.00
   3  -4   8  207.68    8.90
   3  -4   8  181.08    9.20
  -4   4  -8   30.50    4.00
  -4   4  -8   17.90    3.70
   4  -4   8   24.20    3.10
   4  -4   8   22.30    3.40
  -5   4  -8   32.80    4.10
  -5   4  -8   33.90    4.20
  -5   4  -8   30.10    4.20
   5  -4   8   39.80    4.60
   5  -4   8   38.20    3.90
  -6   4  -8  120.09    7.30
  -6   4  -8  142.79    8.00
   6  -4   8  133.29    7.20
   6  -4   8  119.59    7.50
   7   3  -8    4.80    3.50
   7   3  -8   -0.30    2.70
  -7  -3   8    3.90    2.80
  -7  -3   8   -0.10    2.20
   6   3  -8   11.30    3.70
   6   3  -8   10.30    3.30
  -6  -3   8    9.40    2.60
  -6  -3   8   10.10    3.00
   5   3  -8   52.89    6.00
   5   3  -8   56.79    5.40
  -5  -3   8   55.89    4.10
  -5  -3   8   58.69    5.20
   4   3  -8    3.00    3.00
   4   3  -8    0.60    2.50
  -4  -3   8    4.10    1.70
  -4  -3   8    1.80    2.00
   3   3  -8   91.59    6.40
   3   3  -8   82.09    4.80
  -3  -3   8   87.59    4.60
  -3  -3   8   82.79    5.60
   2   3  -8   36.20    4.50
   2   3  -8   33.50    3.10
  -2  -3   8   33.90    2.70
  -2  -3   8   30.80    3.90
  -2  -3   8   43.30    4.30
   1   3  -8   66.39    5.40
   1   3  -8   65.79    4.10
  -1  -3   8   61.69    3.00
  -1  -3   8   63.99    3.40
  -1  -3   8   58.79    4.70
  -1  -3   8   59.39    4.90
   0   3  -8  133.49    6.60
   0   3  -8  138.59    7.90
   0  -3   8  139.89    5.80
   0  -3   8  131.69    6.90
   0  -3   8  142.79    7.30
   0  -3   8  136.89    5.60
  -1   3  -8  122.99    6.40
  -1   3  -8  120.99    7.40
   1  -3   8  127.29    5.70
   1  -3   8  124.39    6.80
   1  -3   8  121.19    6.80
   1  -3   8  126.19    5.10
  -2   3  -8   20.50    3.50
  -2   3  -8   19.30    2.90
   2  -3   8   22.90    3.20
   2  -3   8   20.40    2.50
   2  -3   8   24.60    3.20
  -3   3  -8  357.26   14.00
  -3   3  -8  348.97   14.50
   3  -3   8  362.46   14.00
   3  -3   8  356.06   13.40
   3  -3   8  341.67   14.10
  -4   3  -8   24.90    3.60
  -4   3  -8   29.00    3.60
   4  -3   8   30.90    3.40
   4  -3   8   26.40    3.50
   4  -3   8   24.10    3.00
  -5   3  -8  118.19    6.50
  -5   3  -8   96.69    6.50
   5  -3   8  106.39    5.80
   5  -3   8   98.39    6.20
   5  -3   8  115.09    6.50
  -6   3  -8  180.98    9.00
  -6   3  -8  176.28    8.70
  -6   3  -8  198.48    9.30
   6  -3   8  171.48    9.10
   6  -3   8  195.88    8.80
  -7   3  -8   13.10    3.20
  -7   3  -8   13.70    3.40
   7  -3   8    8.80    3.10
   7  -3   8   18.30    3.10
   7   2  -8    5.10    3.40
   7   2  -8    5.30    2.70
  -7  -2   8    5.40    2.60
  -7  -2   8    2.90    2.20
   6   2  -8  141.49    8.10
   6   2  -8  128.19    8.60
  -6  -2   8  135.99    7.50
  -6  -2   8  137.79    6.80
   5   2  -8   13.30    3.60
   5   2  -8    9.20    3.20
  -5  -2   8    8.60    2.10
  -5  -2   8   13.20    2.80
   4   2  -8   29.20    4.40
   4   2  -8   45.00    4.80
  -4  -2   8   42.40    3.90
  -4  -2   8   44.20    3.30
   3   2  -8  131.69    7.50
  -3  -2   8  133.19    7.40
  -3  -2   8  135.19    7.00
  -3  -2   8  126.39    5.80
   2   2  -8    2.10    2.40
   2   2  -8    2.20    1.40
  -2  -2   8    2.20    2.20
  -2  -2   8    0.70    1.80
  -2  -2   8    2.90    1.20
   1   2  -8    7.20    1.70
   1   2  -8   10.80    3.00
  -1  -2   8    5.20    2.30
  -1  -2   8    8.00    1.40
  -1  -2   8    4.20    1.90
  -1  -2   8    7.50    0.80
   0   2  -8   11.40    2.80
   0   2  -8   11.90    2.00
   0  -2   8   14.00    1.50
   0  -2   8   14.30    1.60
   0  -2   8   13.90    2.60
   0  -2   8   11.20    2.60
  -1   2  -8  284.47   10.70
  -1   2  -8  262.27   11.80
   1  -2   8  281.67   10.20
   1  -2   8  275.27    9.60
   1  -2   8  261.97   11.20
   1  -2   8  279.67   11.50
  -2   2  -8  155.38    7.00
  -2   2  -8  149.29    7.80
   2  -2   8  144.69    5.50
   2  -2   8  142.69    7.20
   2  -2   8  153.88    6.50
   2  -2   8  150.78    7.40
  -3   2  -8   65.89    5.30
  -3   2  -8   74.69    4.90
   3  -2   8   65.29    4.60
   3  -2   8   64.09    3.10
   3  -2   8   74.19    4.90
   3  -2   8   65.39    4.00
  -4   2  -8  122.99    7.00
  -4   2  -8  121.49    6.60
   4  -2   8  124.49    6.60
   4  -2   8  123.59    6.60
   4  -2   8  126.49    6.50
   4  -2   8  124.19    6.10
  -5   2  -8    1.90    2.20
  -5   2  -8    2.90    2.30
   5  -2   8    9.90    2.60
   5  -2   8    4.30    1.90
   5  -2   8    9.70    2.30
  -6   2  -8   -2.10    2.00
  -6   2  -8    2.20    2.40
   6  -2   8   -0.40    1.50
   6  -2   8    0.50    1.90
   6  -2   8    2.70    1.80
  -7   2  -8    1.90    2.40
  -7   2  -8   -1.50    2.40
   7  -2   8    0.50    2.40
   7  -2   8    2.70    1.90
  -8   2  -8   51.39    4.90
  -8   2  -8   55.69    5.10
   8  -2   8   44.70    5.00
   8  -2   8   58.69    4.70
   8   1  -8    2.00    2.70
   7   1  -8    9.30    3.30
   7   1  -8    7.80    2.70
  -7  -1   8    7.50    2.60
   6   1  -8   21.20    4.20
   6   1  -8   21.70    3.30
  -6  -1   8   24.20    3.50
  -6  -1   8   16.60    2.80
   5   1  -8  161.88    8.50
   5   1  -8  147.49    9.00
  -5  -1   8  155.28    7.90
  -5  -1   8  163.58    7.10
   4   1  -8    3.10    2.40
  -4  -1   8    3.30    2.10
  -4  -1   8    2.50    1.60
  -4  -1   8    1.60    2.20
   3   1  -8   59.49    5.00
  -3  -1   8   66.29    4.40
  -3  -1   8   59.39    3.60
  -3  -1   8   57.29    5.00
   2   1  -8   61.29    3.00
   2   1  -8   59.69    4.90
   2   1  -8   60.89    3.30
  -2  -1   8   62.49    4.90
  -2  -1   8   62.19    4.40
  -2  -1   8   68.79    3.50
   1   1  -8    9.80    2.80
   1   1  -8    9.70    1.60
   1   1  -8   12.30    1.10
  -1  -1   8   10.20    2.70
  -1  -1   8    9.90    1.40
  -1  -1   8   10.90    2.20
   0   1  -8  130.49    6.90
   0   1  -8  116.49    5.40
   0   1  -8  127.59    4.40
   0  -1   8  116.09    6.00
   0  -1   8  118.79    4.70
   0  -1   8  126.79    6.70
   0  -1   8  119.59    4.70
  -1   1  -8   93.79    4.60
  -1   1  -8   79.09    5.40
   1  -1   8   82.09    4.80
   1  -1   8   83.79    5.30
   1  -1   8   84.29    3.40
   1  -1   8   81.09    3.90
  -2   1  -8   55.69    3.80
  -2   1  -8   49.30    2.60
  -2   1  -8   54.89    4.50
   2  -1   8   49.80    2.20
   2  -1   8   51.19    4.30
   2  -1   8   43.10    3.80
   2  -1   8   60.19    3.30
  -3   1  -8  105.29    6.30
  -3   1  -8  106.79    5.60
  -3   1  -8  100.29    4.20
   3  -1   8  105.89    5.00
   3  -1   8  100.39    3.70
   3  -1   8  101.59    5.60
   3  -1   8  102.79    5.80
  -4   1  -8  162.18    6.50
  -4   1  -8  161.38    7.60
  -4   1  -8  175.18    8.20
   4  -1   8  176.58    8.00
   4  -1   8  166.58    7.70
   4  -1   8  166.98    6.20
   4  -1   8  166.28    7.20
  -5   1  -8   15.90    2.70
  -5   1  -8   16.90    2.80
  -5   1  -8   15.20    2.00
   5  -1   8   16.50    2.70
   5  -1   8   17.10    2.50
   5  -1   8   12.70    2.70
   5  -1   8   19.70    1.80
  -6   1  -8   29.00    3.60
  -6   1  -8   28.10    2.70
  -6   1  -8   37.90    3.70
   6  -1   8   32.00    3.50
   6  -1   8   33.10    3.30
   6  -1   8   30.10    3.70
  -7   1  -8   27.70    2.90
   7  -1   8   27.80    3.30
   7  -1   8   23.30    3.00
  -8   1  -8  108.69    5.90
  -8   1  -8   98.69    6.20
   8  -1   8  123.19    6.60
  -9   1  -8   79.29    5.80
  -9   1  -8   74.69    5.70
   9  -1   8   91.69    5.90
   8   0  -8    0.30    2.10
   8   0  -8    4.80    2.90
   7   0  -8    8.60    2.30
   7   0  -8    8.30    2.60
   7   0  -8    7.70    3.10
   6   0  -8    4.40    2.90
   6   0  -8    7.40    2.60
   6   0  -8    8.00    2.10
   6   0  -8   11.30    2.20
   5   0  -8    7.90    1.80
   5   0  -8    1.90    2.60
   5   0  -8    6.90    2.40
  -5   0   8    4.50    2.10
  -5   0   8    5.20    1.90
   4   0  -8   10.40    2.80
   4   0  -8    8.60    1.60
  -4   0   8   14.10    2.40
  -4   0   8   12.00    2.00
  -4   0   8   10.30    2.90
   3   0  -8   -0.90    1.00
   3   0  -8    2.00    2.20
  -3   0   8   -1.20    1.20
  -3   0   8    0.50    2.10
  -3   0   8   -0.30    1.70
   2   0  -8  396.86   13.90
   2   0  -8  446.16   16.20
   2   0  -8  389.76   13.80
  -2   0   8  389.46   15.00
  -2   0   8  414.16   14.20
  -2   0   8  409.06   15.70
   1   0  -8    0.10    0.80
   1   0  -8    1.80    1.20
   1   0  -8    2.90    2.20
  -1   0   8    1.20    0.90
  -1   0   8    2.90    1.70
  -1   0   8    3.10    1.90
   0   0  -8  544.95   21.10
   0   0  -8  570.04   19.10
   0   0  -8  596.44   19.70
   0   0   8  611.84   18.70
   0   0   8  602.44   20.40
   0   0   8  599.44   19.10
   0   0   8  539.55   18.60
   0   0   8  554.04   20.90
  -1   0  -8   25.10    1.80
  -1   0  -8   21.20    2.30
  -1   0  -8   18.70    2.90
   1   0   8   21.70    1.90
   1   0   8   18.90    2.80
   1   0   8   21.10    1.60
   1   0   8   22.50    1.70
   1   0   8   28.10    2.90
   1   0   8   21.50    1.30
  -2   0  -8   84.39    5.40
  -2   0  -8   86.59    3.70
  -2   0  -8   91.29    4.70
   2   0   8   79.59    3.70
   2   0   8   92.39    4.10
   2   0   8   87.29    4.70
   2   0   8   74.79    5.00
  -3   0  -8  459.55   16.20
  -3   0  -8  392.66   14.40
  -3   0  -8  437.76   15.30
   3   0   8  417.86   15.60
   3   0   8  424.26   15.00
   3   0   8  415.56   15.80
  -4   0  -8   66.29    4.30
  -4   0  -8   67.89    3.60
  -4   0  -8   70.99    4.70
   4   0   8   67.69    4.70
   4   0   8   64.49    4.50
   4   0   8   70.39    4.00
   4   0   8   70.89    2.70
  -5   0  -8   18.90    2.70
  -5   0  -8   17.70    2.10
  -5   0  -8   22.80    3.00
   5   0   8   23.10    1.70
   5   0   8   17.00    2.70
   5   0   8   17.50    2.40
   5   0   8   20.90    2.90
  -6   0  -8   10.60    2.30
  -6   0  -8    8.00    1.90
  -6   0  -8   12.00    2.60
   6   0   8    8.00    1.90
   6   0   8   12.80    2.60
   6   0   8    9.60    1.40
  -7   0  -8   38.20    3.50
  -7   0  -8   41.40    4.00
  -7   0  -8   43.90    3.50
   7   0   8   46.00    4.00
   7   0   8   40.90    3.50
   7   0   8   44.80    4.00
  -8   0  -8    4.90    2.50
  -8   0  -8    9.90    2.50
   8   0   8    6.60    2.20
   8   0   8   11.80    2.60
  -9   0  -8   23.00    3.70
  -9   0  -8   34.60    4.10
  -9   0  -8   22.40    3.20
   9   0   8   29.30    3.70
 -10   0  -8   25.30    3.70
 -10   0  -8   16.90    3.40
 -10   0  -8   22.60    3.50
  10   0   8   26.10    3.50
   7  -1  -8   -0.30    1.90
   7  -1  -8    3.10    2.00
   7  -1  -8    3.10    2.00
   7  -1  -8    1.40    2.20
   6  -1  -8   32.60    3.30
   6  -1  -8   27.70    3.90
   6  -1  -8   27.60    3.00
   6  -1  -8   26.30    3.50
   5  -1  -8   -1.00    1.80
   5  -1  -8    0.50    1.50
   5  -1  -8   -0.20    2.10
   5  -1  -8    2.00    1.60
   4  -1  -8    5.20    1.50
   4  -1  -8    0.70    2.20
   4  -1  -8    1.30    1.30
  -4   1   8    2.80    2.30
  -4   1   8    2.10    1.90
   3  -1  -8    5.30    2.60
   3  -1  -8   10.20    1.60
   3  -1  -8    5.70    1.50
  -3   1   8    8.50    1.90
  -3   1   8    6.50    2.30
   2  -1  -8   61.39    3.40
   2  -1  -8   58.39    4.90
   2  -1  -8   65.69    3.00
   2  -1  -8   63.39    3.30
  -2   1   8   66.59    4.10
  -2   1   8   58.39    4.70
   1  -1  -8  275.97    9.30
   1  -1  -8  268.27    9.50
   1  -1  -8  270.57   11.50
   1  -1  -8  268.17    9.60
  -1   1   8  269.57   10.30
  -1   1   8  246.68   11.00
   0  -1  -8  169.88    5.80
   0  -1  -8  174.58    6.10
   0  -1  -8  170.28    6.50
   0  -1  -8  163.68    6.60
   0  -1  -8  171.98    5.80
   0  -1  -8  169.78    8.30
   0   1   8  169.78    7.90
   0   1   8  183.68    7.30
  -1  -1  -8    2.00    1.30
  -1  -1  -8    1.80    1.90
  -1  -1  -8    2.60    1.00
   1   1   8    1.70    0.70
   1   1   8    1.90    1.40
   1   1   8    2.60    0.80
   1   1   8    1.40    1.60
  -2  -1  -8   44.50    3.10
  -2  -1  -8   40.10    3.80
  -2  -1  -8   46.00    2.60
   2   1   8   37.20    3.10
   2   1   8   40.70    2.40
   2   1   8   42.90    2.50
   2   1   8   33.80    3.50
  -3  -1  -8    9.70    2.40
  -3  -1  -8    7.50    1.90
  -3  -1  -8   11.10    1.50
   3   1   8    8.80    1.50
   3   1   8   10.80    2.10
   3   1   8    9.50    2.20
  -4  -1  -8  245.78    9.00
  -4  -1  -8  248.68   10.20
  -4  -1  -8  241.28    9.00
  -4  -1  -8  239.98    9.70
   4   1   8  239.18    9.80
   4   1   8  236.68   10.00
   4   1   8  245.58    9.30
  -5  -1  -8   30.10    2.80
  -5  -1  -8   30.80    3.20
  -5  -1  -8   35.40    3.50
   5   1   8   35.30    3.00
   5   1   8   34.40    3.50
   5   1   8   23.70    3.10
   5   1   8   33.00    1.70
  -6  -1  -8   26.80    2.60
  -6  -1  -8   28.50    3.00
  -6  -1  -8   27.70    3.10
   6   1   8   25.90    3.20
   6   1   8   35.20    3.10
   6   1   8   28.20    2.00
  -7  -1  -8    2.00    1.90
  -7  -1  -8    0.00    1.50
  -7  -1  -8    1.50    2.20
   7   1   8    3.60    2.10
   7   1   8    5.40    1.80
   7   1   8    1.80    1.00
  -8  -1  -8   31.20    3.30
  -8  -1  -8   30.90    3.40
   8   1   8   33.20    3.70
   8   1   8   30.80    2.80
   8   1   8   40.90    3.50
  -9  -1  -8   40.40    4.10
  -9  -1  -8   38.00    3.80
  -9  -1  -8   30.10    3.70
   9   1   8   35.70    4.10
   9   1   8   43.00    4.10
 -10  -1  -8    0.40    2.60
 -10  -1  -8    5.80    2.80
 -10  -1  -8    3.80    2.50
  10   1   8    3.40    2.20
   7  -2  -8    5.00    2.10
   7  -2  -8    2.90    2.10
   6  -2  -8    2.00    1.90
   6  -2  -8    2.10    1.70
   6  -2  -8    2.40    2.10
   6  -2  -8    2.50    2.10
   5  -2  -8   56.09    4.30
   5  -2  -8   59.99    5.10
   5  -2  -8   64.99    4.20
   5  -2  -8   60.89    5.00
   4  -2  -8    4.40    2.20
   4  -2  -8    3.80    1.50
   4  -2  -8    3.40    1.60
  -4   2   8    3.60    2.40
   3  -2  -8   12.20    1.90
   3  -2  -8   20.50    2.10
  -3   2   8   19.20    3.00
  -3   2   8   16.00    2.40
   2  -2  -8    0.60    1.20
   2  -2  -8    0.80    1.00
  -2   2   8    1.00    1.50
  -2   2   8    0.90    1.70
  -2   2   8   -0.40    1.90
   1  -2  -8    6.60    1.40
   1  -2  -8    6.00    1.20
   1  -2  -8    8.30    1.10
  -1   2   8    9.40    1.80
  -1   2   8    7.60    2.30
  -1   2   8    7.60    2.10
   0  -2  -8    3.00    1.10
   0  -2  -8    3.70    1.20
   0  -2  -8    5.90    0.90
   0  -2  -8    2.30    0.70
   0   2   8    5.30    2.00
   0   2   8    2.00    1.60
   0   2   8    3.80    1.40
  -1  -2  -8    0.40    1.00
  -1  -2  -8    0.90    1.10
  -1  -2  -8    0.80    0.50
   1   2   8    1.20    1.20
   1   2   8    0.10    0.50
   1   2   8   -1.20    1.50
   1   2   8    1.30    0.60
   1   2   8    2.70    1.60
  -2  -2  -8   -1.50    1.10
  -2  -2  -8    1.70    1.10
   2   2   8   -0.20    1.50
   2   2   8    1.10    1.20
   2   2   8    0.10    0.80
   2   2   8    1.00    0.70
  -3  -2  -8  413.06   14.80
  -3  -2  -8  417.66   14.50
   3   2   8  425.46   14.50
   3   2   8  394.06   15.40
   3   2   8  437.36   15.00
  -4  -2  -8   13.20    1.70
  -4  -2  -8   13.20    2.10
  -4  -2  -8   15.30    2.50
   4   2   8   17.60    2.70
   4   2   8   14.10    2.20
   4   2   8   16.70    2.00
  -5  -2  -8  163.78    6.80
  -5  -2  -8  180.48    7.70
  -5  -2  -8  166.38    6.80
  -5  -2  -8  151.98    7.10
   5   2   8  165.48    5.60
   5   2   8  167.48    7.30
   5   2   8  167.78    7.70
   5   2   8  166.08    7.00
  -6  -2  -8  256.97    9.70
  -6  -2  -8  246.48   10.10
  -6  -2  -8  271.97   10.30
   6   2   8  261.17   10.00
   6   2   8  255.17    8.80
   6   2   8  231.18   10.40
  -7  -2  -8   27.60    3.10
  -7  -2  -8   36.30    3.10
  -7  -2  -8   38.30    3.20
   7   2   8   38.60    3.90
   7   2   8   32.10    2.20
   7   2   8   28.50    2.90
  -8  -2  -8    0.90    1.90
  -8  -2  -8    3.60    2.10
   8   2   8    3.60    1.90
   8   2   8    5.00    2.40
   8   2   8    1.70    1.20
  -9  -2  -8   43.50    4.20
  -9  -2  -8   33.30    3.50
   9   2   8   43.20    3.80
   9   2   8   35.60    3.10
   9   2   8   34.30    4.00
 -10  -2  -8    4.40    2.50
 -10  -2  -8    4.30    2.60
 -10  -2  -8    4.50    2.60
  10   2   8    2.90    2.50
  10   2   8    5.10    2.40
 -11  -2  -8   12.50    3.00
 -11  -2  -8    9.10    2.90
 -11  -2  -8    3.60    2.50
  11   2   8    7.20    2.40
   7  -3  -8   67.99    5.50
   7  -3  -8   75.09    5.50
   6  -3  -8  294.27   12.30
   6  -3  -8  312.87   12.30
   6  -3  -8  284.57   12.50
   5  -3  -8  180.48    8.20
   5  -3  -8  166.68    8.40
   5  -3  -8  174.88    7.90
  -5   3   8  171.78    8.20
   4  -3  -8    0.50    1.50
   4  -3  -8    2.70    1.80
  -4   3   8    3.60    2.30
  -4   3   8   -0.10    1.90
   3  -3  -8  426.36   15.30
   3  -3  -8  407.56   15.00
  -3   3   8  434.86   15.80
  -3   3   8  415.76   16.00
   2  -3  -8    7.20    1.00
   2  -3  -8    9.40    1.50
   2  -3  -8    9.00    1.80
  -2   3   8    8.70    1.80
  -2   3   8    9.50    2.20
  -2   3   8   12.10    2.50
   1  -3  -8   13.90    1.40
   1  -3  -8    9.10    1.70
   1  -3  -8    9.70    1.30
  -1   3   8   10.40    2.20
  -1   3   8    9.70    1.70
  -1   3   8   12.50    2.50
   0  -3  -8  232.78    8.60
   0  -3  -8  231.88    7.80
   0  -3  -8  232.88    8.10
   0  -3  -8  217.68    8.00
   0   3   8  222.18    9.10
   0   3   8  209.38    8.40
   0   3   8  221.48    9.40
  -1  -3  -8    1.00    0.60
  -1  -3  -8   -0.90    0.90
  -1  -3  -8    0.60    1.10
   1   3   8    0.10    1.00
   1   3   8   -0.60    1.50
   1   3   8    0.20    1.50
   1   3   8    0.40    0.50
   1   3   8    0.00    0.40
  -2  -3  -8    1.40    1.30
  -2  -3  -8    3.00    1.20
   2   3   8    0.20    1.00
   2   3   8    3.10    0.80
   2   3   8    0.90    1.40
   2   3   8   -0.70    1.40
   2   3   8    2.40    0.90
  -3  -3  -8   48.10    3.30
  -3  -3  -8   45.60    3.00
   3   3   8   53.49    3.50
   3   3   8   51.49    3.00
   3   3   8   47.90    2.70
   3   3   8   48.00    3.60
  -4  -3  -8   62.59    3.90
  -4  -3  -8   65.09    3.60
   4   3   8   64.89    4.20
   4   3   8   64.69    3.50
   4   3   8   65.99    3.70
   4   3   8   61.69    3.70
  -5  -3  -8  121.19    5.30
  -5  -3  -8  111.39    5.40
   5   3   8  112.59    6.00
   5   3   8  111.99    5.20
   5   3   8  108.79    5.40
  -6  -3  -8   97.89    4.90
  -6  -3  -8  110.29    5.20
  -6  -3  -8   99.99    5.20
  -6  -3  -8  104.29    5.40
   6   3   8   97.89    5.60
   6   3   8  102.09    3.90
   6   3   8   94.49    4.90
  -7  -3  -8   -0.10    1.60
  -7  -3  -8    0.80    2.00
  -7  -3  -8    1.70    1.50
   7   3   8    1.00    0.90
   7   3   8    0.20    2.00
   7   3   8    2.70    1.50
  -8  -3  -8  243.18    9.90
  -8  -3  -8  224.78    9.40
  -8  -3  -8  242.68    9.10
   8   3   8  215.78   10.10
   8   3   8  244.68    9.70
   8   3   8  232.58    8.80
  -9  -3  -8    2.10    2.00
  -9  -3  -8    1.30    2.10
   9   3   8   -1.50    2.20
   9   3   8    3.00    1.80
   9   3   8    0.50    1.30
 -10  -3  -8   51.09    4.00
 -10  -3  -8   48.70    4.50
 -10  -3  -8   50.19    4.40
  10   3   8   51.19    4.30
  10   3   8   48.20    4.20
  10   3   8   46.20    5.00
 -11  -3  -8   63.29    5.10
 -11  -3  -8   50.69    4.30
 -11  -3  -8   52.19    4.70
  11   3   8   59.19    4.70
  11   3   8   50.69    5.10
   7  -4  -8    7.10    2.70
   7  -4  -8    5.90    2.60
  -7   4   8    8.00    2.60
   6  -4  -8   28.70    3.50
   6  -4  -8   20.40    3.50
  -6   4   8   22.90    3.30
  -6   4   8   25.70    3.50
   5  -4  -8    6.20    2.00
   5  -4  -8    1.90    2.00
  -5   4   8    0.90    1.90
  -5   4   8    3.20    2.20
   4  -4  -8   54.19    4.00
   4  -4  -8   48.80    4.30
  -4   4   8   60.89    4.70
  -4   4   8   57.79    4.50
  -4   4   8   50.99    3.90
   3  -4  -8   28.90    3.00
   3  -4  -8   33.70    2.90
  -3   4   8   36.30    3.70
  -3   4   8   34.00    3.50
   2  -4  -8    0.00    1.50
   2  -4  -8   -2.00    1.00
   2  -4  -8    1.40    0.90
  -2   4   8    2.80    1.70
  -2   4   8   -0.70    1.70
   1  -4  -8  169.18    6.30
   1  -4  -8  177.98    6.70
  -1   4   8  171.18    7.80
  -1   4   8  167.28    7.60
  -1   4   8  168.48    6.70
   0  -4  -8   84.79    4.30
   0  -4  -8   82.39    3.60
   0  -4  -8   77.19    3.50
   0   4   8   80.29    3.80
   0   4   8   76.29    4.70
   0   4   8   86.19    4.70
  -1  -4  -8  128.39    4.60
  -1  -4  -8  119.69    5.10
  -1  -4  -8  121.39    4.70
  -1  -4  -8  126.49    5.50
   1   4   8  119.09    5.90
   1   4   8  133.99    4.30
   1   4   8  125.89    6.20
   1   4   8  130.79    5.10
   1   4   8  121.49    4.30
  -2  -4  -8   48.10    2.10
  -2  -4  -8   51.89    2.90
  -2  -4  -8   50.99    3.20
   2   4   8   45.30    3.60
   2   4   8   50.39    2.40
   2   4   8   54.19    2.50
   2   4   8   50.09    3.50
   2   4   8   53.09    2.70
  -3  -4  -8   26.40    2.40
  -3  -4  -8   23.50    2.30
   3   4   8   33.40    3.30
   3   4   8   28.70    2.70
   3   4   8   28.20    2.10
   3   4   8   32.10    2.10
  -4  -4  -8   59.99    3.80
  -4  -4  -8   63.99    3.60
   4   4   8   60.49    3.70
   4   4   8   67.89    3.30
   4   4   8   53.79    3.20
   4   4   8   57.59    4.10
  -5  -4  -8   18.50    2.20
  -5  -4  -8   17.50    2.30
   5   4   8   17.90    2.00
   5   4   8   23.00    2.30
   5   4   8   19.00    1.10
   5   4   8   23.80    2.40
   5   4   8   21.30    2.90
  -6  -4  -8   10.00    2.30
  -6  -4  -8   11.50    2.00
   6   4   8   18.10    1.50
   6   4   8   17.90    3.00
   6   4   8   17.60    2.00
   6   4   8   16.90    2.10
  -7  -4  -8    4.70    1.90
  -7  -4  -8    5.70    2.00
  -7  -4  -8    4.30    2.00
   7   4   8    2.30    2.20
   7   4   8    5.80    1.70
  -8  -4  -8   21.70    2.90
  -8  -4  -8   20.00    2.90
  -8  -4  -8   18.50    2.20
   8   4   8   19.80    2.70
   8   4   8   18.40    3.10
   8   4   8   18.50    1.90
  -9  -4  -8   27.00    3.20
  -9  -4  -8   22.30    3.00
   9   4   8   24.10    3.70
   9   4   8   24.90    2.40
   9   4   8   25.80    3.10
 -10  -4  -8   26.80    3.20
 -10  -4  -8   21.30    3.20
  10   4   8   22.20    3.00
  10   4   8   20.20    2.50
  10   4   8   22.00    3.70
 -11  -4  -8   46.30    4.50
 -11  -4  -8   40.80    3.90
 -11  -4  -8   49.80    4.60
  11   4   8   49.20    4.30
  11   4   8   47.00    5.00
   6  -5  -8    0.00    2.30
   6  -5  -8    0.40    2.00
  -6   5   8    1.70    2.30
  -6   5   8    0.10    2.10
   5  -5  -8   -0.50    2.10
   5  -5  -8    1.70    1.90
  -5   5   8    1.20    2.00
  -5   5   8   -0.80    2.10
   4  -5  -8    0.60    1.90
   4  -5  -8    0.20    1.60
  -4   5   8    1.30    1.90
  -4   5   8    0.70    2.00
   3  -5  -8  124.49    6.00
   3  -5  -8  120.89    6.30
  -3   5   8  120.19    6.10
  -3   5   8  134.09    6.50
  -3   5   8  128.69    6.60
   2  -5  -8   51.69    3.90
   2  -5  -8   55.09    3.50
  -2   5   8   53.39    4.10
  -2   5   8   49.40    4.10
  -2   5   8   50.09    3.60
   1  -5  -8   20.20    2.00
   1  -5  -8   19.50    1.80
   1  -5  -8   18.20    2.40
  -1   5   8   23.80    3.00
  -1   5   8   18.70    2.60
   0  -5  -8  497.65   17.40
   0  -5  -8  479.15   16.70
   0  -5  -8  505.55   16.60
   0  -5  -8  481.95   16.90
   0   5   8  491.15   17.80
   0   5   8  485.05   17.60
  -1  -5  -8   24.60    2.50
  -1  -5  -8   22.20    1.80
  -1  -5  -8   20.00    1.90
   1   5   8   25.10    2.80
   1   5   8   21.90    2.70
   1   5   8   20.50    1.60
   1   5   8   21.40    1.10
   1   5   8   22.20    1.20
  -2  -5  -8  148.59    6.00
  -2  -5  -8  155.28    5.30
  -2  -5  -8  138.79    5.40
  -2  -5  -8  147.09    6.30
   2   5   8  147.69    5.50
   2   5   8  148.09    6.90
   2   5   8  149.29    5.50
   2   5   8  137.69    6.50
   2   5   8  147.99    5.50
  -3  -5  -8 1114.49   36.20
  -3  -5  -8 1101.89   36.30
   3   5   8 1110.59   35.50
   3   5   8 1069.39   35.20
   3   5   8 1109.39   35.80
   3   5   8 1067.39   36.90
   3   5   8 1101.99   36.60
  -4  -5  -8  388.16   13.80
  -4  -5  -8  373.36   13.70
  -4  -5  -8  365.46   12.50
   4   5   8  395.96   13.50
   4   5   8  391.96   13.90
   4   5   8  388.76   13.10
   4   5   8  380.46   12.60
   4   5   8  376.46   14.40
  -5  -5  -8   32.30    2.80
  -5  -5  -8   27.40    1.40
   5   5   8   32.70    3.50
   5   5   8   29.50    2.30
   5   5   8   33.30    2.80
   5   5   8   28.30    1.70
   5   5   8   30.30    2.50
  -6  -5  -8   66.09    4.10
  -6  -5  -8   67.89    4.30
  -6  -5  -8   72.09    2.90
   6   5   8   70.99    4.70
   6   5   8   72.09    4.10
   6   5   8   79.39    3.20
   6   5   8   76.19    3.90
  -7  -5  -8   50.59    3.70
  -7  -5  -8   50.09    2.40
  -7  -5  -8   54.09    3.90
   7   5   8   55.49    3.60
   7   5   8   49.30    4.20
   7   5   8   46.60    4.30
   7   5   8   51.69    3.00
  -8  -5  -8   -2.00    1.90
  -8  -5  -8    1.10    1.10
  -8  -5  -8    1.60    2.00
  -8  -5  -8   -1.10    1.60
   8   5   8    0.20    1.50
   8   5   8    2.80    1.20
   8   5   8    2.50    2.20
   8   5   8    3.10    2.20
  -9  -5  -8    0.80    2.00
  -9  -5  -8    0.10    1.90
   9   5   8   -2.40    2.30
   9   5   8    2.80    1.80
   9   5   8    0.30    2.40
 -10  -5  -8    5.60    2.50
 -10  -5  -8    2.10    2.40
  10   5   8    2.10    2.70
  10   5   8    3.50    2.80
  10   5   8   -0.10    1.80
 -11  -5  -8   60.79    4.30
 -11  -5  -8   60.79    5.00
 -11  -5  -8   68.59    5.20
  11   5   8   60.99    4.90
  11   5   8   65.59    5.60
  11   5   8   72.29    4.60
  11   5   8   51.59    5.50
 -12  -5  -8    3.40    2.80
 -12  -5  -8    0.70    2.40
  12   5   8   -0.10    1.90
  12   5   8    2.50    3.10
  12   5   8    6.70    2.70
   6  -6  -8  106.79    6.90
   6  -6  -8   97.49    6.90
  -6   6   8  118.69    6.80
  -6   6   8  124.09    6.80
   5  -6  -8    0.90    2.10
   5  -6  -8    4.00    2.30
  -5   6   8   -1.50    2.00
  -5   6   8    4.70    2.50
   4  -6  -8   34.00    3.60
   4  -6  -8   36.10    3.90
  -4   6   8   33.40    3.60
  -4   6   8   31.10    3.80
   3  -6  -8   20.90    2.70
   3  -6  -8   18.90    3.00
  -3   6   8   15.00    2.40
  -3   6   8   18.10    3.00
  -3   6   8   17.70    2.80
   2  -6  -8    7.60    1.80
   2  -6  -8    5.00    1.90
  -2   6   8    7.20    2.30
  -2   6   8    5.10    1.90
  -2   6   8    3.20    2.20
   1  -6  -8   32.10    3.30
   1  -6  -8   32.70    2.40
   1  -6  -8   34.20    2.90
  -1   6   8   34.80    3.30
  -1   6   8   34.70    3.40
  -1   6   8   35.20    3.60
   0  -6  -8  175.88    7.10
   0  -6  -8  184.38    6.90
   0  -6  -8  169.98    7.60
   0   6   8  173.68    7.80
   0   6   8  178.48    7.90
  -1  -6  -8   18.30    1.80
  -1  -6  -8   14.90    1.80
  -1  -6  -8   17.10    2.30
   1   6   8   13.30    1.10
   1   6   8   19.20    2.60
   1   6   8   14.60    1.10
   1   6   8   18.70    2.70
  -2  -6  -8  151.28    6.30
  -2  -6  -8  154.78    5.80
  -2  -6  -8  149.99    6.60
   2   6   8  150.18    7.00
   2   6   8  150.98    5.70
   2   6   8  152.28    5.70
   2   6   8  146.59    5.80
   2   6   8  161.58    7.00
  -3  -6  -8   86.09    3.60
  -3  -6  -8   89.69    4.50
  -3  -6  -8   89.89    4.60
   3   6   8   90.59    4.00
   3   6   8   87.09    3.20
   3   6   8   84.59    5.10
   3   6   8   83.69    3.60
   3   6   8   85.79    4.70
  -4  -6  -8  120.69    5.40
  -4  -6  -8  115.69    5.50
  -4  -6  -8  116.29    4.40
   4   6   8  113.89    5.00
   4   6   8  107.29    4.50
   4   6   8  110.29    5.90
   4   6   8  125.89    5.70
   4   6   8  110.39    4.20
  -5  -6  -8 1341.37   43.60
  -5  -6  -8 1322.37   42.50
  -5  -6  -8 1280.27   43.50
   5   6   8 1359.76   43.50
   5   6   8 1346.77   43.30
   5   6   8 1219.68   44.00
   5   6   8 1376.96   42.70
   5   6   8 1299.57   42.70
  -6  -6  -8  139.79    5.30
  -6  -6  -8  136.09    6.40
  -6  -6  -8  141.59    6.50
   6   6   8  145.39    6.30
   6   6   8  137.29    7.10
   6   6   8  147.39    6.20
   6   6   8  139.19    7.00
  -7  -6  -8   47.10    4.00
  -7  -6  -8   51.79    2.70
  -7  -6  -8   52.39    3.70
   7   6   8   51.79    3.20
   7   6   8   51.59    4.50
   7   6   8   52.29    3.50
   7   6   8   48.90    4.30
  -8  -6  -8   42.90    2.60
  -8  -6  -8   36.00    3.50
  -8  -6  -8   43.50    3.80
  -8  -6  -8   41.40    3.60
   8   6   8   35.60    4.00
   8   6   8   43.80    2.80
   8   6   8   40.90    4.10
   8   6   8   41.60    3.60
  -9  -6  -8   16.70    2.70
  -9  -6  -8   15.40    2.70
  -9  -6  -8   20.70    3.00
   9   6   8   16.70    2.50
   9   6   8   13.20    2.90
   9   6   8   19.30    3.60
 -10  -6  -8   -1.90    2.10
 -10  -6  -8   -1.80    2.10
  10   6   8   -2.70    2.40
  10   6   8    3.50    2.80
  10   6   8    1.40    2.00
 -11  -6  -8    3.50    2.40
 -11  -6  -8    5.80    2.70
  11   6   8    3.90    2.10
  11   6   8    0.20    2.60
  11   6   8    3.40    3.00
 -12  -6  -8   -1.80    2.50
 -12  -6  -8   -1.00    2.40
  12   6   8   -0.10    2.20
  12   6   8    1.90    2.70
  12   6   8   -6.00    2.90
   5  -7  -8   -0.30    2.00
   5  -7  -8   -3.00    2.10
  -5   7   8    0.60    2.30
  -5   7   8    2.20    2.10
   4  -7  -8   77.49    5.40
   4  -7  -8   74.79    5.60
  -4   7   8   78.59    5.50
  -4   7   8   80.49    5.50
   3  -7  -8   42.20    4.20
   3  -7  -8   38.40    3.70
  -3   7   8   40.20    3.90
  -3   7   8   30.40    3.50
   2  -7  -8  227.98    9.40
   2  -7  -8  216.58    9.80
  -2   7   8  218.38    9.10
  -2   7   8  236.08    9.50
  -2   7   8  220.18    9.80
   1  -7  -8  147.29    6.70
   1  -7  -8  142.59    7.10
   1  -7  -8  147.89    6.10
  -1   7   8  145.69    7.20
  -1   7   8  150.48    6.80
  -1   7   8  137.29    6.60
   0  -7  -8   -2.00    1.50
   0  -7  -8    1.20    1.10
   0  -7  -8    0.40    1.30
   0   7   8   -1.20    1.70
   0   7   8    0.90    1.70
   0   7   8   -0.60    1.40
  -1  -7  -8   -1.00    1.40
  -1  -7  -8    0.30    1.20
  -1  -7  -8   -1.80    1.00
   1   7   8   -0.30    0.70
   1   7   8    0.40    1.50
   1   7   8   -1.00    1.80
  -2  -7  -8    5.70    1.50
  -2  -7  -8    5.70    1.30
  -2  -7  -8    2.60    1.60
   2   7   8    5.00    1.10
   2   7   8    3.00    1.80
   2   7   8    5.10    1.90
   2   7   8    4.80    1.20
  -3  -7  -8   15.30    1.60
  -3  -7  -8   13.10    2.10
  -3  -7  -8   14.20    2.00
   3   7   8   12.40    1.60
   3   7   8   12.70    2.50
   3   7   8   10.50    2.10
  -4  -7  -8    3.30    1.20
  -4  -7  -8    2.70    1.50
  -4  -7  -8    3.30    1.60
   4   7   8    2.70    1.30
   4   7   8    2.00    1.90
   4   7   8    2.50    1.90
  -5  -7  -8   -0.10    1.50
  -5  -7  -8    0.70    1.50
  -5  -7  -8    0.80    1.00
   5   7   8    4.90    2.00
   5   7   8    0.70    1.50
   5   7   8   -1.80    1.30
   5   7   8    1.20    0.60
   5   7   8    3.20    1.90
  -6  -7  -8   45.20    3.40
  -6  -7  -8   41.50    3.40
  -6  -7  -8   42.80    2.50
   6   7   8   34.80    3.80
   6   7   8   44.30    3.30
   6   7   8   43.10    3.10
   6   7   8   41.30    4.30
  -7  -7  -8    1.20    1.70
  -7  -7  -8    0.10    1.00
  -7  -7  -8   -1.50    1.50
   7   7   8    1.00    2.20
   7   7   8   -1.00    2.00
   7   7   8    1.40    1.40
   7   7   8   -0.20    1.40
  -8  -7  -8   17.40    2.60
  -8  -7  -8   13.20    2.40
  -8  -7  -8   17.00    1.90
   8   7   8   14.50    3.00
   8   7   8   15.60    2.50
   8   7   8   14.90    3.30
   8   7   8   15.90    2.00
  -9  -7  -8  129.69    6.40
  -9  -7  -8  126.99    5.50
  -9  -7  -8  137.59    6.60
  -9  -7  -8  124.69    6.50
   9   7   8  120.39    7.30
   9   7   8  114.49    7.10
   9   7   8  120.79    6.40
 -10  -7  -8   34.90    3.80
 -10  -7  -8   41.10    4.00
  10   7   8   29.20    4.10
  10   7   8   33.30    3.50
 -11  -7  -8   19.20    3.20
 -11  -7  -8   17.30    3.30
  11   7   8   15.70    3.00
  11   7   8   22.20    4.00
 -12  -7  -8   22.20    3.50
 -12  -7  -8   22.20    3.50
  12   7   8   13.00    3.80
  12   7   8   21.20    3.40
   4  -8  -8   -0.10    2.00
   4  -8  -8    0.50    2.30
  -4   8   8    1.20    2.20
  -4   8   8    2.00    2.60
   3  -8  -8   85.79    5.80
   3  -8  -8   86.59    5.80
  -3   8   8  102.19    6.00
  -3   8   8   86.79    5.50
   2  -8  -8    9.10    2.30
   2  -8  -8   13.40    2.70
  -2   8   8   14.90    2.80
  -2   8   8    9.40    2.60
   1  -8  -8  160.78    6.80
   1  -8  -8  161.58    7.70
   1  -8  -8  157.58    7.50
  -1   8   8  155.88    7.30
  -1   8   8  159.28    7.80
  -1   8   8  168.68    7.10
   0  -8  -8   36.70    3.30
   0  -8  -8   35.70    3.70
   0  -8  -8   43.00    3.10
   0   8   8   39.00    3.30
   0   8   8   42.40    3.50
   0   8   8   43.10    3.80
  -1  -8  -8   11.20    2.20
  -1  -8  -8    9.60    1.90
  -1  -8  -8   10.90    1.90
   1   8   8   10.70    2.50
   1   8   8   10.60    2.20
   1   8   8    9.90    1.20
   1   8   8    7.50    1.90
  -2  -8  -8    3.10    1.30
  -2  -8  -8    0.20    1.50
  -2  -8  -8    0.90    1.40
   2   8   8    2.30    1.70
   2   8   8    2.30    1.80
   2   8   8    0.30    1.00
  -3  -8  -8   -1.00    1.00
  -3  -8  -8   -1.40    1.40
  -3  -8  -8   -1.40    1.50
   3   8   8   -0.40    1.70
   3   8   8    0.00    1.20
   3   8   8   -1.70    1.70
  -4  -8  -8   43.50    3.70
  -4  -8  -8   49.99    3.50
  -4  -8  -8   44.10    3.00
   4   8   8   48.30    4.00
   4   8   8   49.10    3.90
   4   8   8   43.00    4.10
   4   8   8   48.80    3.20
  -5  -8  -8  225.38    9.30
  -5  -8  -8  222.98    9.30
  -5  -8  -8  214.08    8.50
   5   8   8  244.88   10.10
   5   8   8  227.38    9.00
   5   8   8  229.28   10.00
   5   8   8  233.78    9.40
  -6  -8  -8   93.49    5.00
  -6  -8  -8   86.79    5.00
  -6  -8  -8   82.09    4.10
   6   8   8   73.99    5.40
   6   8   8   83.09    4.50
   6   8   8   80.69    5.50
   6   8   8   88.59    4.80
  -7  -8  -8   28.40    3.10
  -7  -8  -8   35.90    3.30
  -7  -8  -8   39.70    2.70
   7   8   8   36.80    4.00
   7   8   8   29.10    3.70
   7   8   8   38.80    3.20
   7   8   8   37.20    3.40
  -8  -8  -8  170.48    7.90
  -8  -8  -8  170.68    7.10
  -8  -8  -8  181.28    8.00
   8   8   8  187.88    7.50
   8   8   8  181.08    7.90
   8   8   8  171.98    8.80
  -9  -8  -8   81.59    4.30
  -9  -8  -8   70.39    4.80
  -9  -8  -8   76.79    5.20
  -9  -8  -8   73.09    4.80
   9   8   8   63.39    5.60
   9   8   8   76.69    4.90
   9   8   8   76.29    5.00
 -10  -8  -8   15.40    2.90
 -10  -8  -8   10.50    2.70
 -10  -8  -8   16.90    3.10
 -10  -8  -8   13.90    2.80
  10   8   8    9.80    3.30
  10   8   8   13.10    2.50
 -11  -8  -8   52.19    4.50
 -11  -8  -8   42.60    4.30
  11   8   8   57.49    4.80
  11   8   8   42.50    5.00
 -12  -8  -8    1.70    2.50
 -12  -8  -8    1.50    2.60
  12   8   8    3.50    3.40
  12   8   8   -1.40    2.10
   3  -9  -8  173.48    9.00
   3  -9  -8  189.38    9.20
  -3   9   8  181.78    8.70
  -3   9   8  189.68    9.10
   2  -9  -8    5.00    2.30
   2  -9  -8    6.50    2.40
  -2   9   8    8.60    2.70
  -2   9   8    9.50    2.80
   1  -9  -8  179.78    7.80
   1  -9  -8  178.28    8.40
   1  -9  -8  190.78    8.80
  -1   9   8  180.48    8.20
  -1   9   8  184.28    8.90
   0  -9  -8  230.78    9.10
   0  -9  -8  215.68    9.70
   0  -9  -8  232.98    9.50
   0   9   8  215.08    8.90
   0   9   8  223.18    9.50
   0   9   8  221.68    9.90
  -1  -9  -8    1.80    1.60
  -1  -9  -8    1.00    1.60
  -1  -9  -8    1.30    1.60
   1   9   8    1.70    1.40
   1   9   8    1.50    2.10
   1   9   8    0.60    0.90
   1   9   8    2.80    2.10
  -2  -9  -8  165.28    7.30
  -2  -9  -8  158.18    7.70
  -2  -9  -8  172.28    7.40
   2   9   8  174.08    6.80
   2   9   8  177.28    8.10
   2   9   8  167.08    7.60
  -3  -9  -8    6.80    2.00
  -3  -9  -8    8.40    1.70
  -3  -9  -8    4.50    1.90
   3   9   8    9.30    2.30
   3   9   8    8.30    2.30
   3   9   8    4.20    1.50
  -4  -9  -8    5.80    1.90
  -4  -9  -8    4.20    1.40
  -4  -9  -8    4.20    2.00
   4   9   8    5.40    1.70
   4   9   8    2.60    2.20
   4   9   8    4.70    2.00
   4   9   8    4.60    2.20
  -5  -9  -8   15.80    2.50
  -5  -9  -8   13.20    2.30
  -5  -9  -8   16.90    2.10
   5   9   8   10.60    2.10
   5   9   8   13.00    2.80
   5   9   8   16.40    2.80
   5   9   8   15.60    2.60
  -6  -9  -8    5.40    1.90
  -6  -9  -8    5.50    2.00
  -6  -9  -8    2.40    1.40
   6   9   8    4.10    1.80
   6   9   8    5.30    2.00
   6   9   8    6.20    2.40
   6   9   8    3.10    2.50
  -7  -9  -8   11.00    2.30
  -7  -9  -8   16.00    2.60
  -7  -9  -8   17.40    2.20
   7   9   8   13.60    3.00
   7   9   8   12.10    2.40
   7   9   8   13.50    3.00
   7   9   8   12.60    2.30
  -8  -9  -8   -1.60    1.60
  -8  -9  -8    1.80    1.90
  -8  -9  -8    2.50    1.50
   8   9   8    1.60    2.40
   8   9   8    0.40    1.80
   8   9   8    0.90    1.70
  -9  -9  -8   32.90    3.60
  -9  -9  -8   39.20    3.30
  -9  -9  -8   33.40    3.70
   9   9   8   42.30    3.30
   9   9   8   30.30    4.20
   9   9   8   35.30    3.50
 -10  -9  -8   -0.20    2.20
 -10  -9  -8    2.10    1.70
 -10  -9  -8   -0.50    2.10
 -10  -9  -8   -0.20    2.20
  10   9   8   -2.90    2.70
  10   9   8   -0.90    2.20
 -11  -9  -8    1.40    2.40
 -11  -9  -8    1.70    2.30
  11   9   8    0.60    1.90
  11   9   8   -0.20    2.70
 -12  -9  -8    2.20    2.80
 -12  -9  -8    3.10    2.60
  12   9   8    2.30    2.30
  12   9   8    0.10    3.00
   2 -10  -8   -2.00    2.00
   2 -10  -8   -2.00    1.90
  -2  10   8    1.90    2.60
  -2  10   8   -1.20    2.20
   1 -10  -8   15.50    2.90
   1 -10  -8   23.00    4.00
   1 -10  -8   18.40    3.00
  -1  10   8   16.20    3.40
  -1  10   8   15.30    3.10
   0 -10  -8   14.70    2.70
   0 -10  -8   12.70    2.80
   0 -10  -8   10.80    2.20
   0  10   8   18.60    3.30
   0  10   8   13.20    2.80
  -1 -10  -8   15.40    2.40
  -1 -10  -8   10.60    2.40
  -1 -10  -8   12.80    2.50
   1  10   8   13.00    3.00
   1  10   8   12.60    2.20
   1  10   8   13.90    1.70
   1  10   8   16.90    2.90
  -2 -10  -8   13.20    2.40
  -2 -10  -8   16.60    2.80
  -2 -10  -8   11.50    2.20
   2  10   8   10.80    1.80
   2  10   8   11.90    2.40
   2  10   8    6.60    2.50
   2  10   8   11.00    2.10
  -3 -10  -8  153.18    7.40
  -3 -10  -8  159.28    7.20
  -3 -10  -8  169.08    7.50
   3  10   8  149.88    7.40
   3  10   8  157.98    6.90
   3  10   8  163.98    7.90
  -4 -10  -8    1.60    1.50
  -4 -10  -8    3.60    1.80
  -4 -10  -8    5.20    1.90
   4  10   8    1.00    1.60
   4  10   8    3.50    2.10
   4  10   8    1.60    2.00
   4  10   8    3.40    2.00
  -5 -10  -8    3.00    1.60
  -5 -10  -8    2.50    1.90
  -5 -10  -8    1.40    1.60
  -5 -10  -8   -0.20    1.60
   5  10   8    2.20    2.20
   5  10   8    2.10    2.20
   5  10   8    0.70    2.00
   5  10   8    1.70    1.80
  -6 -10  -8   77.89    4.50
  -6 -10  -8   81.99    5.10
  -6 -10  -8   75.19    5.00
   6  10   8   81.29    5.20
   6  10   8   70.59    5.50
   6  10   8   79.09    4.80
   6  10   8   77.09    5.80
  -7 -10  -8   78.89    4.40
  -7 -10  -8   79.09    5.10
  -7 -10  -8   74.29    5.00
   7  10   8   63.79    5.70
   7  10   8   76.89    5.00
   7  10   8   72.49    4.80
   7  10   8   72.49    6.00
  -8 -10  -8   43.70    3.40
  -8 -10  -8   43.30    4.10
  -8 -10  -8   41.70    3.90
   8  10   8   41.80    3.90
   8  10   8   44.30    4.00
   8  10   8   34.00    4.30
  -9 -10  -8   14.60    2.80
  -9 -10  -8   13.60    2.80
  -9 -10  -8   12.50    2.30
   9  10   8   15.70    2.70
   9  10   8   20.30    3.90
   9  10   8   14.80    2.50
 -10 -10  -8    7.40    2.70
 -10 -10  -8    8.60    2.20
 -10 -10  -8    7.70    2.50
  10  10   8    5.70    2.50
  10  10   8    2.10    3.00
 -11 -10  -8   29.80    3.90
 -11 -10  -8   30.40    3.80
 -11 -10  -8   25.00    3.50
  11  10   8   34.50    3.90
  11  10   8   29.30    4.60
   1 -11  -8   -1.10    2.00
   1 -11  -8    1.40    2.20
  -1  11   8   -2.60    2.50
  -1  11   8    2.80    2.60
   0 -11  -8   -0.40    2.00
   0 -11  -8    5.00    2.30
   0 -11  -8    6.60    2.20
   0  11   8    4.30    2.60
   0  11   8    3.40    2.50
  -1 -11  -8    6.80    2.20
  -1 -11  -8    9.20    2.50
  -1 -11  -8    7.80    2.30
   1  11   8   12.20    2.90
   1  11   8    9.80    2.90
  -2 -11  -8  108.39    6.60
  -2 -11  -8  124.79    6.50
  -2 -11  -8  126.29    6.70
   2  11   8  126.69    7.30
   2  11   8  121.39    6.30
   2  11   8  128.09    5.80
  -3 -11  -8  186.88    8.40
  -3 -11  -8  187.48    8.70
  -3 -11  -8  193.58    8.60
   3  11   8  176.78    8.30
   3  11   8  186.18    9.10
   3  11   8  188.68    8.00
  -4 -11  -8    2.50    2.00
  -4 -11  -8    2.20    1.70
  -4 -11  -8    1.40    1.90
   4  11   8    3.10    1.90
   4  11   8    2.90    2.00
   4  11   8    3.30    2.20
   4  11   8    4.50    2.40
  -5 -11  -8  121.29    6.70
  -5 -11  -8  138.29    6.90
  -5 -11  -8  133.49    6.60
  -5 -11  -8  139.19    6.80
   5  11   8  140.99    7.20
   5  11   8  124.39    7.20
   5  11   8  144.49    6.70
   5  11   8  126.39    7.20
  -6 -11  -8  113.79    6.50
  -6 -11  -8  129.09    6.30
  -6 -11  -8  129.09    6.70
   6  11   8  128.29    6.90
   6  11   8  109.69    6.90
   6  11   8  117.99    7.00
   6  11   8  120.69    6.30
  -7 -11  -8   -0.50    1.90
  -7 -11  -8    1.80    1.80
  -7 -11  -8    0.80    1.90
   7  11   8    1.30    2.10
   7  11   8    1.50    2.50
   7  11   8    1.20    2.30
   7  11   8    0.90    2.60
  -8 -11  -8   45.10    4.40
  -8 -11  -8   55.49    4.40
  -8 -11  -8   48.90    4.00
   8  11   8   53.19    4.50
   8  11   8   42.10    4.90
   8  11   8   56.89    4.60
  -9 -11  -8    8.10    2.40
  -9 -11  -8    4.10    2.10
  -9 -11  -8    5.20    2.30
   9  11   8    3.80    2.40
   9  11   8    7.80    2.30
   9  11   8    0.30    2.80
 -10 -11  -8    2.40    2.10
 -10 -11  -8    2.40    2.30
 -10 -11  -8    1.60    2.20
 -10 -11  -8    6.00    2.90
  10  11   8    5.80    2.40
  10  11   8    4.60    3.30
 -11 -11  -8   37.60    4.10
 -11 -11  -8   39.90    4.60
 -11 -11  -8   33.00    4.00
  11  11   8   52.59    4.60
  11  11   8   33.40    4.90
   0 -12  -8   -0.60    1.90
   0 -12  -8   -0.80    2.00
   0 -12  -8   -0.10    2.00
   0  12   8    1.10    2.50
   0  12   8    4.90    2.80
  -1 -12  -8   -1.90    2.10
  -1 -12  -8    3.00    2.10
  -1 -12  -8   -0.40    2.00
   1  12   8    1.90    2.30
   1  12   8    9.20    3.10
  -2 -12  -8   85.49    5.40
  -2 -12  -8   77.89    5.70
  -2 -12  -8   93.89    5.80
   2  12   8   81.09    4.80
   2  12   8   85.19    6.30
   2  12   8   83.09    5.30
  -3 -12  -8   60.79    4.70
  -3 -12  -8   63.29    5.00
  -3 -12  -8   59.29    4.90
   3  12   8   64.19    5.60
   3  12   8   58.49    4.40
   3  12   8   58.39    4.40
  -4 -12  -8   74.39    5.30
  -4 -12  -8   68.49    5.20
  -4 -12  -8   65.59    4.90
   4  12   8   76.49    5.60
   4  12   8   70.29    4.90
   4  12   8   64.69    4.70
  -5 -12  -8   81.19    5.30
  -5 -12  -8   66.19    5.00
  -5 -12  -8   69.59    5.00
  -5 -12  -8   77.09    5.10
   5  12   8   69.29    5.00
   5  12   8   67.09    5.20
   5  12   8   74.69    5.50
   5  12   8   82.89    6.00
  -6 -12  -8    2.80    2.10
  -6 -12  -8    2.80    2.20
  -6 -12  -8    5.90    2.30
   6  12   8   10.30    2.50
   6  12   8    8.80    3.00
   6  12   8    7.20    2.80
   6  12   8    4.50    2.70
  -7 -12  -8    9.80    2.80
  -7 -12  -8   11.40    2.80
  -7 -12  -8   10.40    2.60
   7  12   8   10.40    2.50
   7  12   8   19.70    3.40
   7  12   8    5.30    3.00
   7  12   8    5.90    2.90
  -8 -12  -8   18.80    3.30
  -8 -12  -8   23.70    3.20
  -8 -12  -8   16.80    3.00
   8  12   8   25.90    3.50
   8  12   8   19.30    3.00
   8  12   8   13.40    3.50
  -9 -12  -8   17.50    3.40
  -9 -12  -8   21.40    3.30
  -9 -12  -8   18.20    2.80
   9  12   8   22.80    3.30
   9  12   8   15.30    4.00
   9  12   8   20.20    3.20
 -10 -12  -8   15.90    2.90
 -10 -12  -8   17.40    3.50
 -10 -12  -8   16.80    3.20
 -10 -12  -8   25.00    3.50
  10  12   8   23.90    4.40
  10  12   8   16.00    3.40
  -2 -13  -8   -1.50    1.90
   2  13   8    1.60    2.50
   2  13   8    3.50    3.00
  -3 -13  -8    6.00    2.50
  -3 -13  -8    1.20    2.40
  -3 -13  -8    4.70    2.20
   3  13   8    7.30    3.10
   3  13   8    3.80    2.20
   3  13   8    7.40    2.90
  -4 -13  -8   14.80    2.90
  -4 -13  -8   14.10    3.10
  -4 -13  -8    8.50    2.80
   4  13   8   16.10    3.70
   4  13   8   13.70    2.70
  -5 -13  -8   -0.40    2.10
  -5 -13  -8    0.70    2.10
  -5 -13  -8    3.30    2.00
  -5 -13  -8    0.10    2.20
   5  13   8    3.60    2.80
   5  13   8    1.90    2.20
  -6 -13  -8  197.88    9.20
  -6 -13  -8  201.58    9.00
  -6 -13  -8  193.98    9.40
   6  13   8  182.18    9.60
   6  13   8  198.18    9.10
   6  13   8  199.18    9.60
   6  13   8  173.68    9.30
  -7 -13  -8    3.90    2.70
  -7 -13  -8    1.40    2.30
  -7 -13  -8    0.90    2.20
   7  13   8    4.60    2.70
   7  13   8    0.20    2.70
   7  13   8   -0.50    2.60
   7  13   8   12.50    3.20
  -8 -13  -8   53.49    4.70
  -8 -13  -8   62.59    5.40
  -8 -13  -8   53.99    4.80
   8  13   8   61.59    5.00
   8  13   8   56.49    6.30
   8  13   8   64.69    5.50
  -9 -13  -8   82.09    5.60
  -9 -13  -8   71.09    5.50
  -9 -13  -8   72.29    5.30
   9  13   8   63.69    6.40
   9  13   8   87.69    5.90
   9  13   8   78.09    5.60
   4   5  -9   18.70    4.20
   4   5  -9   21.20    4.90
  -4  -5   9   23.10    3.70
   3   5  -9   46.40    5.60
   3   5  -9   43.80    5.80
  -3  -5   9   54.19    5.40
   2   5  -9   16.60    4.40
   2   5  -9   14.30    3.00
   2   5  -9   21.10    4.60
  -2  -5   9   11.90    3.00
   1   5  -9    8.10    2.80
   1   5  -9    9.10    3.90
  -1  -5   9   11.80    3.10
   0   5  -9  102.59    6.30
   0   5  -9   96.99    7.70
   0  -5   9  101.79    6.80
  -1   5  -9    1.30    2.40
  -1   5  -9    1.30    3.30
   1  -5   9   -0.70    2.10
   1  -5   9    1.80    2.40
   1  -5   9    0.00    1.60
  -2   5  -9   43.80    5.60
  -2   5  -9   43.50    4.70
   2  -5   9   57.29    4.20
   2  -5   9   54.99    5.00
  -3   5  -9    0.00    3.20
   3  -5   9    6.40    2.20
   3  -5   9    5.40    2.50
   5   4  -9    2.30    3.20
   5   4  -9    4.30    3.60
  -5  -4   9    2.70    2.00
  -5  -4   9    5.00    2.70
   4   4  -9    9.80    3.70
   4   4  -9   14.80    4.10
  -4  -4   9   13.70    3.20
  -4  -4   9   17.50    3.50
   3   4  -9   28.80    4.90
   3   4  -9   33.70    4.80
  -3  -4   9   34.10    4.30
   2   4  -9   28.10    3.30
   2   4  -9   28.30    4.50
  -2  -4   9   29.40    4.10
   1   4  -9   16.90    2.90
   1   4  -9   19.90    4.10
  -1  -4   9   21.30    3.50
  -1  -4   9   23.30    3.80
   0   4  -9    3.60    3.20
   0   4  -9    6.50    2.50
   0  -4   9    1.50    2.10
   0  -4   9    6.80    2.50
   0  -4   9    5.20    1.60
  -1   4  -9   44.70    4.30
  -1   4  -9   53.39    5.70
   1  -4   9   59.59    5.10
   1  -4   9   59.59    3.90
   1  -4   9   54.69    4.90
  -2   4  -9   17.10    3.40
  -2   4  -9   17.80    3.90
   2  -4   9   22.80    3.40
   2  -4   9   22.90    3.60
   2  -4   9   17.00    2.50
  -3   4  -9    5.10    2.90
  -3   4  -9    3.40    3.00
   3  -4   9    9.00    2.30
   3  -4   9    6.60    2.60
   3  -4   9   12.50    2.70
  -4   4  -9   27.80    4.30
  -4   4  -9   26.10    3.90
   4  -4   9   35.40    3.80
   4  -4   9   36.70    4.40
  -5   4  -9    5.80    3.20
  -5   4  -9    4.10    3.50
   5  -4   9   14.40    3.10
   5  -4   9   13.10    2.80
   6   3  -9   65.69    6.80
   6   3  -9   62.29    6.50
  -6  -3   9   62.79    4.80
  -6  -3   9   59.99    5.50
   5   3  -9   -2.90    2.60
   5   3  -9    0.80    3.20
  -5  -3   9    0.60    2.30
  -5  -3   9    1.80    2.00
   4   3  -9   87.19    7.50
   4   3  -9  105.49    7.30
  -4  -3   9   94.29    5.20
  -4  -3   9   90.79    6.20
   3   3  -9   -0.20    3.00
  -3  -3   9    1.20    2.20
  -3  -3   9   -1.20    1.30
   2   3  -9    6.30    3.30
   2   3  -9    7.00    2.10
  -2  -3   9    6.10    1.70
  -2  -3   9    3.40    2.30
  -2  -3   9    5.10    2.60
   1   3  -9  202.68    8.80
   1   3  -9  203.78   10.40
  -1  -3   9  205.48    9.60
  -1  -3   9  223.68   10.20
   0   3  -9   33.20    4.40
   0   3  -9   32.40    3.30
   0  -3   9   24.40    3.40
   0  -3   9   32.80    3.90
   0  -3   9   36.00    2.60
  -1   3  -9   -2.20    2.00
  -1   3  -9    0.80    2.70
   1  -3   9    0.60    2.10
   1  -3   9    1.90    1.90
   1  -3   9    0.80    1.40
  -2   3  -9   -2.60    2.70
  -2   3  -9   -0.20    2.20
   2  -3   9    1.60    2.20
   2  -3   9   -1.30    1.40
   2  -3   9    2.40    2.10
  -3   3  -9  131.19    8.10
  -3   3  -9  135.89    7.40
   3  -3   9  125.69    6.40
   3  -3   9  137.29    7.40
   3  -3   9  124.49    7.30
  -4   3  -9    4.70    3.10
  -4   3  -9    5.20    2.70
   4  -3   9    6.90    2.60
   4  -3   9    6.20    2.40
   4  -3   9    5.10    2.00
  -5   3  -9    2.00    2.80
  -5   3  -9    3.20    2.80
   5  -3   9    9.60    2.50
   5  -3   9    9.70    2.80
  -6   3  -9  159.28    8.50
  -6   3  -9  180.08    9.00
   6  -3   9  174.88    9.10
   6  -3   9  168.68    8.50
   6   2  -9   75.19    6.60
   6   2  -9   63.29    6.70
  -6  -2   9   69.79    4.80
  -6  -2   9   65.59    5.40
   5   2  -9   48.10    5.30
   5   2  -9   37.20    5.40
  -5  -2   9   48.10    4.50
  -5  -2   9   50.59    3.90
   4   2  -9   68.09    6.40
   4   2  -9   65.69    6.40
  -4  -2   9   65.09    4.20
  -4  -2   9   65.79    5.30
   3   2  -9   58.89    5.90
  -3  -2   9   53.59    3.50
  -3  -2   9   47.10    4.30
  -3  -2   9   54.29    5.00
   2   2  -9  127.79    8.00
   2   2  -9  129.89    7.20
  -2  -2   9  130.19    5.60
  -2  -2   9  124.99    7.40
  -2  -2   9  120.99    6.90
   1   2  -9   87.19    6.30
   1   2  -9   80.59    4.70
  -1  -2   9   86.09    4.00
  -1  -2   9   81.49    5.50
  -1  -2   9   85.69    5.90
   0   2  -9   51.09    5.20
   0   2  -9   62.39    4.10
   0  -2   9   52.09    2.90
   0  -2   9   58.29    4.60
   0  -2   9   61.79    5.10
  -1   2  -9  202.28    8.40
  -1   2  -9  183.98    9.40
   1  -2   9  177.48    8.60
   1  -2   9  183.38    9.10
   1  -2   9  196.38    7.50
  -2   2  -9   41.30    4.70
   2  -2   9   42.40    4.00
   2  -2   9   53.19    3.50
   2  -2   9   46.50    4.60
  -3   2  -9    0.20    2.60
  -3   2  -9    0.10    2.30
   3  -2   9    1.20    2.00
   3  -2   9    1.30    2.10
   3  -2   9    0.10    1.50
  -4   2  -9   42.20    4.20
  -4   2  -9   39.40    4.50
   4  -2   9   44.30    4.30
   4  -2   9   39.60    4.10
   4  -2   9   41.90    3.60
  -5   2  -9   86.69    6.00
  -5   2  -9   80.29    5.60
   5  -2   9   83.79    5.80
   5  -2   9   78.69    5.50
   5  -2   9   85.59    5.20
  -6   2  -9   15.20    3.10
  -6   2  -9   14.70    3.10
   6  -2   9   24.30    4.70
   6  -2   9   19.70    3.30
   6  -2   9   12.60    2.50
  -7   2  -9   13.10    3.30
  -7   2  -9   10.20    3.30
   7  -2   9   14.10    2.90
   7  -2   9   10.50    3.10
   6   1  -9    4.70    3.10
   6   1  -9    3.10    2.90
  -6  -1   9    2.90    2.10
  -6  -1   9    1.10    2.50
   5   1  -9    5.10    3.30
   5   1  -9    6.00    3.10
  -5  -1   9    2.60    2.30
  -5  -1   9    5.60    2.00
   4   1  -9   -0.60    2.40
  -4  -1   9    1.80    1.60
  -4  -1   9    1.70    2.20
   3   1  -9    0.10    2.40
  -3  -1   9    3.70    1.40
  -3  -1   9    5.40    2.70
  -3  -1   9    6.00    2.10
   2   1  -9    3.40    2.60
  -2  -1   9    3.40    1.30
  -2  -1   9    5.80    2.50
  -2  -1   9    5.00    2.10
   1   1  -9   -2.30    2.20
   1   1  -9   -0.40    1.30
  -1  -1   9    1.00    2.10
  -1  -1   9    1.40    1.80
  -1  -1   9    0.20    0.90
   0   1  -9    1.60    1.50
   0   1  -9   -0.10    2.20
   0  -1   9    0.80    0.80
   0  -1   9    0.60    0.60
   0  -1   9    1.50    1.60
   0  -1   9   -1.40    2.00
  -1   1  -9   -1.80    1.50
  -1   1  -9   -2.10    2.00
   1  -1   9    1.00    1.00
   1  -1   9    0.40    1.70
   1  -1   9    0.20    2.00
  -2   1  -9  267.37   10.20
  -2   1  -9  259.97   11.30
   2  -1   9  240.78    9.40
   2  -1   9  248.58   10.80
   2  -1   9  220.18   10.20
  -3   1  -9   63.89    4.60
  -3   1  -9   58.59    5.30
   3  -1   9   59.79    4.80
   3  -1   9   58.59    4.60
   3  -1   9   59.09    3.80
  -4   1  -9    2.40    2.40
  -4   1  -9    4.30    2.50
   4  -1   9    7.80    1.90
   4  -1   9    6.70    2.20
   4  -1   9    2.40    2.00
  -5   1  -9  143.29    7.50
  -5   1  -9  150.28    7.90
   5  -1   9  154.38    7.70
   5  -1   9  161.98    7.90
   5  -1   9  154.58    7.10
  -6   1  -9    4.70    2.50
  -6   1  -9    6.70    2.80
   6  -1   9    5.80    2.30
   6  -1   9    4.50    2.10
   6  -1   9    6.50    2.50
  -7   1  -9   22.10    3.40
   7  -1   9   21.50    3.00
   7  -1   9   24.50    3.80
   7  -1   9   26.10    3.40
  -8   1  -9    3.90    3.00
  -8   1  -9    3.60    3.00
   8  -1   9    9.60    2.50
   8  -1   9    2.50    2.70
   7   0  -9  103.89    6.90
   7   0  -9   89.79    7.10
   6   0  -9   39.40    4.60
   6   0  -9   30.10    4.60
   5   0  -9   89.29    7.00
   5   0  -9   86.09    6.30
   5   0  -9  105.19    7.30
  -5   0   9   81.69    5.80
   4   0  -9   20.80    3.50
  -4   0   9   22.30    3.10
  -4   0   9   21.30    2.70
  -4   0   9   21.90    3.90
   3   0  -9    5.00    2.80
  -3   0   9    3.70    2.00
  -3   0   9    3.10    2.40
  -3   0   9    4.40    1.50
   2   0  -9   48.40    4.90
  -2   0   9   48.40    4.60
  -2   0   9   59.09    4.30
  -2   0   9   54.99    3.10
   1   0  -9   15.70    1.50
   1   0  -9   11.50    3.10
   1   0  -9   15.40    1.90
  -1   0   9   15.30    2.90
  -1   0   9   15.80    2.50
  -1   0   9   12.50    1.50
   0   0  -9  179.78    9.10
   0   0  -9  193.08    7.60
   0   0  -9  189.28    6.90
   0   0   9  192.48    6.70
   0   0   9  189.58    8.30
   0   0   9  180.88    8.80
  -1   0  -9   79.69    4.40
  -1   0  -9   74.59    5.50
  -1   0  -9   78.99    3.40
   1   0   9   77.49    5.40
   1   0   9   79.39    3.50
   1   0   9   82.89    4.90
  -2   0  -9   76.09    3.60
  -2   0  -9   79.29    5.50
  -2   0  -9   86.69    4.80
   2   0   9   75.49    4.90
   2   0   9   80.89    5.40
   2   0   9   91.79    4.10
  -3   0  -9  196.48    8.50
  -3   0  -9  205.58    9.40
  -3   0  -9  191.08    7.40
   3   0   9  200.08    9.10
   3   0   9  185.98    8.60
   3   0   9  199.58    7.90
  -4   0  -9  265.67   10.70
  -4   0  -9  268.67    9.70
  -4   0  -9  270.77   11.30
   4   0   9  266.37   11.00
   4   0   9  263.77   10.30
   4   0   9  263.17   11.20
  -5   0  -9   50.89    4.10
  -5   0  -9   48.10    4.60
  -5   0  -9   45.70    3.20
   5   0   9   47.00    3.60
   5   0   9   49.00    4.30
   5   0   9   46.90    4.00
  -6   0  -9   11.20    2.60
  -6   0  -9   13.20    3.00
  -6   0  -9   15.00    2.20
   6   0   9   10.00    2.70
   6   0   9   13.20    2.40
   6   0   9   16.00    2.90
  -7   0  -9   59.99    5.20
  -7   0  -9   70.19    4.30
  -7   0  -9   63.59    4.80
   7   0   9   65.99    4.50
   7   0   9   68.19    5.10
   7   0   9   60.19    4.90
  -8   0  -9    7.00    2.30
  -8   0  -9    5.60    2.90
   8   0   9    7.60    2.30
   8   0   9    9.50    2.60
  -9   0  -9   22.70    3.80
  -9   0  -9   21.80    3.80
   9   0   9   26.10    3.40
   7  -1  -9   59.39    5.60
   6  -1  -9   22.50    3.70
   6  -1  -9   23.80    3.10
   6  -1  -9   24.40    4.00
   5  -1  -9   82.29    4.80
   5  -1  -9   79.89    4.70
   5  -1  -9   69.89    6.40
   5  -1  -9   84.89    6.30
  -5   1   9   76.69    5.40
   4  -1  -9   -0.70    1.40
   4  -1  -9    1.50    2.40
   4  -1  -9    3.80    1.50
  -4   1   9   -0.60    1.70
  -4   1   9   -0.40    2.40
   3  -1  -9  242.68   10.80
   3  -1  -9  207.68    8.50
   3  -1  -9  212.98    8.50
  -3   1   9  235.38    9.50
  -3   1   9  212.28   10.20
   2  -1  -9  117.89    5.10
   2  -1  -9  116.79    5.20
   2  -1  -9  126.29    7.30
  -2   1   9  136.79    6.40
  -2   1   9  125.99    7.10
   1  -1  -9   20.60    1.90
   1  -1  -9   20.60    1.90
   1  -1  -9   19.30    3.30
  -1   1   9   19.90    2.70
  -1   1   9   20.50    3.20
   0  -1  -9   76.29    5.60
   0  -1  -9   89.29    4.30
   0  -1  -9   85.79    3.90
   0   1   9   90.89    4.90
   0   1   9   89.59    5.70
  -1  -1  -9    0.10    1.40
  -1  -1  -9    2.00    2.30
  -1  -1  -9    1.70    1.10
   1   1   9    2.50    0.80
   1   1   9    2.50    2.10
   1   1   9    2.10    1.50
  -2  -1  -9   53.69    3.50
  -2  -1  -9   55.79    3.00
  -2  -1  -9   58.39    4.70
   2   1   9   54.99    3.00
   2   1   9   52.19    4.40
   2   1   9   59.69    3.80
  -3  -1  -9  195.28    7.70
  -3  -1  -9  208.18    9.40
  -3  -1  -9  210.78    8.60
   3   1   9  201.58    9.20
   3   1   9  204.28    7.90
   3   1   9  212.88    8.70
  -4  -1  -9   57.69    4.00
  -4  -1  -9   63.79    4.90
  -4  -1  -9   59.19    3.50
  -4  -1  -9   60.59    3.50
   4   1   9   55.79    3.50
   4   1   9   53.49    4.10
   4   1   9   56.79    4.50
  -5  -1  -9   36.80    4.00
  -5  -1  -9   32.70    2.90
  -5  -1  -9   37.70    3.60
   5   1   9   36.80    3.90
   5   1   9   31.60    2.80
   5   1   9   31.40    3.40
  -6  -1  -9    7.50    2.30
  -6  -1  -9    6.40    1.90
  -6  -1  -9   10.10    2.60
   6   1   9    5.60    1.90
   6   1   9    9.50    2.60
   6   1   9    7.10    2.30
  -7  -1  -9    2.90    2.40
  -7  -1  -9    4.80    1.90
  -7  -1  -9    0.40    1.80
   7   1   9    1.90    1.70
   7   1   9    3.00    2.30
  -8  -1  -9   25.40    3.40
  -8  -1  -9   20.20    2.90
   8   1   9   23.20    3.10
   8   1   9   22.50    3.40
  -9  -1  -9   80.09    5.90
  -9  -1  -9   66.99    5.00
   9   1   9   73.99    5.30
   9   1   9   68.69    5.40
 -10  -1  -9    2.50    3.00
 -10  -1  -9    8.20    3.00
 -10  -1  -9    7.50    2.60
  10   1   9    9.90    2.60
   6  -2  -9    2.00    1.80
   6  -2  -9    0.70    1.80
   6  -2  -9   -1.10    2.10
   6  -2  -9    0.20    2.20
   5  -2  -9   13.30    3.10
   5  -2  -9   12.00    2.20
   5  -2  -9   10.30    2.10
   5  -2  -9    9.60    2.90
   4  -2  -9    7.80    1.90
   4  -2  -9    6.70    2.90
   4  -2  -9    6.60    1.70
  -4   2   9    4.50    2.10
  -4   2   9    5.90    2.80
   3  -2  -9    1.90    1.30
   3  -2  -9    3.90    1.60
   3  -2  -9    6.10    2.80
  -3   2   9    3.20    2.40
  -3   2   9    3.40    1.80
   2  -2  -9    6.20    2.50
   2  -2  -9    3.30    1.40
   2  -2  -9    3.70    1.20
  -2   2   9    2.20    2.10
  -2   2   9    3.70    1.80
   1  -2  -9   59.49    3.10
   1  -2  -9   55.39    3.40
   1  -2  -9   58.29    5.00
   1  -2  -9   61.19    2.80
  -1   2   9   59.79    4.00
  -1   2   9   55.19    4.80
   0  -2  -9   78.99    3.80
   0  -2  -9   69.49    3.70
   0   2   9   83.19    4.40
   0   2   9   69.49    5.10
  -1  -2  -9   82.09    4.10
  -1  -2  -9   83.29    5.50
  -1  -2  -9   79.79    3.90
   1   2   9   79.39    3.00
   1   2   9   82.19    4.40
   1   2   9   83.19    5.20
   1   2   9   83.59    3.10
  -2  -2  -9  355.16   14.50
  -2  -2  -9  374.06   13.20
  -2  -2  -9  352.46   12.90
   2   2   9  362.26   14.30
   2   2   9  381.26   13.50
   2   2   9  372.96   12.60
  -3  -2  -9  277.47   10.40
  -3  -2  -9  277.27    9.90
  -3  -2  -9  269.47   11.30
   3   2   9  246.38   10.90
   3   2   9  266.57    9.80
   3   2   9  269.07   10.40
  -4  -2  -9    0.40    1.80
  -4  -2  -9   -0.30    1.30
  -4  -2  -9    0.10    2.10
   4   2   9   -0.80    1.30
   4   2   9    1.50    1.80
   4   2   9   -1.00    1.10
  -5  -2  -9    2.60    1.50
  -5  -2  -9    1.60    2.00
  -5  -2  -9    1.80    1.60
  -5  -2  -9    2.30    2.00
   5   2   9    2.70    2.10
   5   2   9    2.70    1.60
   5   2   9    4.80    1.60
  -6  -2  -9  215.28    9.20
  -6  -2  -9  217.18    8.70
  -6  -2  -9  221.18    9.40
   6   2   9  212.38    9.60
   6   2   9  200.68    8.70
   6   2   9  224.38    9.40
  -7  -2  -9  144.09    6.90
  -7  -2  -9  137.49    6.50
  -7  -2  -9  132.99    7.10
   7   2   9  151.28    7.60
   7   2   9  140.59    6.70
  -8  -2  -9  141.99    7.30
  -8  -2  -9  155.18    6.90
   8   2   9  153.68    7.30
   8   2   9  138.39    7.70
  -9  -2  -9   64.19    4.80
  -9  -2  -9   58.39    4.80
   9   2   9   61.09    4.70
   9   2   9   64.49    5.40
 -10  -2  -9   59.19    5.40
 -10  -2  -9   59.79    4.60
 -10  -2  -9   48.50    4.50
  10   2   9   51.99    5.20
  10   2   9   50.79    4.70
   6  -3  -9   10.70    2.80
   6  -3  -9   12.10    2.50
   6  -3  -9   10.10    2.50
   5  -3  -9   69.89    4.70
   5  -3  -9   66.69    4.60
   5  -3  -9   63.49    5.10
   4  -3  -9   32.50    3.00
   4  -3  -9   28.80    3.00
  -4   3   9   27.90    4.00
   3  -3  -9  124.39    5.70
   3  -3  -9  124.09    6.00
  -3   3   9  130.79    6.80
  -3   3   9  113.99    6.00
  -3   3   9  129.09    7.00
   2  -3  -9  180.08    7.40
   2  -3  -9  156.88    6.70
  -2   3   9  172.58    7.30
  -2   3   9  175.48    8.50
  -2   3   9  173.28    8.10
   1  -3  -9  209.48    7.80
   1  -3  -9  210.58    8.40
  -1   3   9  222.98    8.60
  -1   3   9  204.78    9.60
  -1   3   9  222.98    9.40
   0  -3  -9    4.60    0.80
   0  -3  -9    3.70    1.40
   0   3   9    3.70    1.90
   0   3   9    3.50    1.50
   0   3   9    1.90    2.00
  -1  -3  -9  281.67   10.60
   1   3   9  274.17   11.70
   1   3   9  312.87   10.80
   1   3   9  284.47   11.30
  -2  -3  -9   58.49    3.30
  -2  -3  -9   54.79    3.40
   2   3   9   45.10    3.90
   2   3   9   47.80    2.50
   2   3   9   53.49    3.70
   2   3   9   54.99    2.60
   2   3   9   52.49    3.30
  -3  -3  -9    8.00    1.90
  -3  -3  -9    6.60    1.60
   3   3   9    3.50    1.80
   3   3   9    5.90    1.50
   3   3   9    5.40    1.30
   3   3   9    8.20    2.30
  -4  -3  -9  106.09    5.50
  -4  -3  -9  113.39    5.20
   4   3   9  113.39    5.00
   4   3   9  112.49    5.30
   4   3   9  102.89    6.00
  -5  -3  -9   62.79    4.00
  -5  -3  -9   75.59    4.40
  -5  -3  -9   69.59    4.70
   5   3   9   65.69    4.20
   5   3   9   75.69    4.10
   5   3   9   67.19    4.90
  -6  -3  -9  134.19    6.70
  -6  -3  -9  145.49    6.50
  -6  -3  -9  146.09    6.50
  -6  -3  -9  150.98    7.20
   6   3   9  149.39    6.60
   6   3   9  134.29    7.30
   6   3   9  142.79    6.80
  -7  -3  -9    0.90    1.70
  -7  -3  -9   -0.60    1.80
  -7  -3  -9    1.20    1.90
   7   3   9   -1.10    1.50
   7   3   9    0.30    2.20
  -8  -3  -9   17.40    2.40
  -8  -3  -9   18.20    3.10
  -8  -3  -9   17.60    2.80
   8   3   9   12.70    2.30
   8   3   9   14.70    3.10
  -9  -3  -9   41.30    4.00
  -9  -3  -9   42.40    4.20
   9   3   9   47.80    4.90
   9   3   9   46.40    4.20
 -10  -3  -9    5.00    2.50
 -10  -3  -9    0.20    2.60
  10   3   9    4.80    2.40
  10   3   9    3.40    2.60
 -11  -3  -9   18.80    3.40
 -11  -3  -9   21.50    3.40
 -11  -3  -9   15.20    3.30
  11   3   9   20.40    3.20
  11   3   9   16.30    3.60
   6  -4  -9   16.20    3.00
   6  -4  -9   18.10    3.00
   6  -4  -9   22.90    3.70
   5  -4  -9    0.90    1.70
   5  -4  -9    2.50    2.10
  -5   4   9    0.50    2.20
   4  -4  -9   78.49    4.80
  -4   4   9   86.79    5.60
  -4   4   9   84.79    5.80
   3  -4  -9   10.50    2.30
   3  -4  -9   13.70    2.10
  -3   4   9   18.90    3.00
  -3   4   9   10.60    2.50
   2  -4  -9    2.30    1.30
   2  -4  -9    0.80    1.60
  -2   4   9    2.40    2.10
  -2   4   9    0.90    1.70
   1  -4  -9    0.20    0.90
   1  -4  -9   -1.60    0.90
   1  -4  -9    1.10    1.40
  -1   4   9    1.10    1.30
  -1   4   9    1.60    1.90
  -1   4   9    1.60    2.00
   0  -4  -9   12.70    1.60
   0  -4  -9   10.10    1.30
   0  -4  -9   12.90    2.00
   0   4   9   14.10    2.60
   0   4   9   14.40    2.60
   0   4   9    9.70    1.60
  -1  -4  -9  110.29    5.20
  -1  -4  -9  111.79    5.00
  -1  -4  -9  114.39    4.00
   1   4   9  106.69    6.10
   1   4   9  119.89    5.00
   1   4   9  110.19    5.80
  -2  -4  -9    1.30    1.20
  -2  -4  -9    1.90    1.40
   2   4   9    1.80    1.00
   2   4   9    1.90    1.70
   2   4   9   -0.10    1.60
   2   4   9    0.90    0.70
   2   4   9    1.90    0.70
  -3  -4  -9   40.40    3.10
  -3  -4  -9   42.30    3.20
   3   4   9   41.90    2.70
   3   4   9   33.00    3.50
   3   4   9   43.70    3.40
   3   4   9   41.40    2.40
  -4  -4  -9   33.50    3.00
  -4  -4  -9   34.00    3.00
   4   4   9   30.00    3.00
   4   4   9   31.50    2.50
   4   4   9   26.20    3.20
   4   4   9   32.00    2.50
  -5  -4  -9   42.60    3.30
  -5  -4  -9   43.60    3.40
   5   4   9   44.50    3.10
   5   4   9   43.90    3.10
   5   4   9   35.80    3.10
   5   4   9   36.40    3.90
  -6  -4  -9   19.20    2.70
  -6  -4  -9   15.10    2.40
   6   4   9   22.10    2.30
   6   4   9   18.00    3.00
   6   4   9   14.70    2.30
   6   4   9   17.80    2.30
  -7  -4  -9    4.70    2.00
  -7  -4  -9    2.10    1.90
  -7  -4  -9   -2.00    1.90
   7   4   9   -0.20    1.40
   7   4   9    1.20    2.20
  -8  -4  -9  164.78    7.20
  -8  -4  -9  153.98    7.20
  -8  -4  -9  156.38    7.70
   8   4   9  149.19    8.00
   8   4   9  156.08    7.20
  -9  -4  -9  184.08    8.30
  -9  -4  -9  174.28    8.00
   9   4   9  165.98    8.90
   9   4   9  183.08    8.30
 -10  -4  -9   61.59    4.90
 -10  -4  -9   66.39    4.90
  10   4   9   66.39    5.60
  10   4   9   64.99    5.00
 -11  -4  -9   36.10    4.20
 -11  -4  -9   26.20    3.50
 -11  -4  -9   29.30    3.80
  11   4   9   30.50    3.70
  11   4   9   33.00    4.40
  -6   5   9    1.00    2.20
   5  -5  -9    2.70    2.20
   5  -5  -9   -1.30    1.80
  -5   5   9   -1.30    2.10
   4  -5  -9   60.89    4.30
  -4   5   9   58.79    5.00
  -4   5   9   60.89    4.70
   3  -5  -9   19.60    2.90
   3  -5  -9   14.70    2.30
  -3   5   9   19.10    2.90
  -3   5   9   17.00    2.90
   2  -5  -9   10.20    1.80
   2  -5  -9    7.70    2.10
  -2   5   9    8.50    2.60
  -2   5   9    5.60    2.20
   1  -5  -9   17.20    1.90
   1  -5  -9   14.90    2.40
   1  -5  -9   18.50    2.40
  -1   5   9   16.70    2.80
  -1   5   9   18.80    2.90
   0  -5  -9   47.50    3.40
   0  -5  -9   45.30    2.80
   0  -5  -9   50.69    2.90
   0   5   9   47.10    3.80
   0   5   9   40.30    3.90
   0   5   9   48.80    2.80
  -1  -5  -9   97.09    5.00
  -1  -5  -9   92.89    3.90
  -1  -5  -9   94.19    4.50
   1   5   9  100.19    5.70
   1   5   9   97.39    4.20
   1   5   9   93.09    5.30
  -2  -5  -9  113.69    4.20
  -2  -5  -9  118.09    5.30
  -2  -5  -9  124.09    5.70
   2   5   9  125.09    4.60
   2   5   9  123.09    4.70
   2   5   9  119.29    4.90
   2   5   9  117.19    6.10
   2   5   9  124.49    6.40
  -3  -5  -9   13.50    1.90
  -3  -5  -9   12.30    1.00
  -3  -5  -9   14.10    2.00
   3   5   9   10.50    1.40
   3   5   9   13.70    1.50
   3   5   9   16.40    2.80
   3   5   9   14.40    2.30
   3   5   9   14.30    1.50
  -4  -5  -9   64.49    4.00
   4   5   9   64.99    4.20
   4   5   9   63.79    3.20
   4   5   9   63.89    4.50
   4   5   9   63.69    3.50
  -5  -5  -9  139.79    6.40
  -5  -5  -9  140.29    6.50
   5   5   9  136.59    6.00
   5   5   9  142.59    6.30
   5   5   9  138.59    5.70
   5   5   9  121.59    6.90
  -6  -5  -9   19.60    2.80
  -6  -5  -9   18.70    2.50
   6   5   9   18.50    2.30
   6   5   9   19.60    2.30
   6   5   9   22.20    3.30
   6   5   9   21.10    2.40
  -7  -5  -9  173.78    7.60
  -7  -5  -9  163.08    7.30
   7   5   9  159.68    6.60
   7   5   9  152.38    7.10
   7   5   9  152.98    8.00
  -8  -5  -9    1.60    2.20
  -8  -5  -9   -1.60    1.80
  -8  -5  -9    2.80    2.00
   8   5   9    2.10    1.70
   8   5   9   -0.70    2.30
  -9  -5  -9   -1.50    2.10
  -9  -5  -9   -0.50    2.10
   9   5   9    0.60    2.40
   9   5   9    1.00    1.80
 -10  -5  -9   54.69    4.70
 -10  -5  -9   53.99    4.80
  10   5   9   43.90    4.00
  10   5   9   40.70    4.80
 -11  -5  -9  143.49    7.40
 -11  -5  -9  123.09    6.60
 -11  -5  -9  143.79    7.40
  11   5   9  135.29    8.10
  11   5   9  135.99    7.30
   5  -6  -9  124.89    6.90
   5  -6  -9  115.59    6.90
  -5   6   9  118.29    6.70
  -5   6   9  118.39    6.90
   4  -6  -9  148.29    7.80
   4  -6  -9  145.39    7.30
  -4   6   9  148.99    7.60
  -4   6   9  150.18    7.40
   3  -6  -9    4.30    1.80
   3  -6  -9    6.00    2.30
  -3   6   9    4.30    2.20
  -3   6   9    2.60    2.30
  -3   6   9    2.90    2.10
   2  -6  -9   51.09    4.50
   2  -6  -9   59.79    3.90
  -2   6   9   63.99    4.60
  -2   6   9   60.09    4.60
   1  -6  -9   16.20    2.60
   1  -6  -9   23.90    2.40
  -1   6   9   24.30    3.10
  -1   6   9   25.10    3.40
   0  -6  -9   48.30    3.70
   0  -6  -9   45.20    3.00
   0  -6  -9   49.50    3.10
   0   6   9   52.49    4.20
   0   6   9   47.50    4.10
  -1  -6  -9   22.40    2.10
  -1  -6  -9   21.20    2.60
  -1  -6  -9   22.30    2.00
   1   6   9   18.30    2.70
   1   6   9   15.90    2.60
  -2  -6  -9  264.07   10.00
  -2  -6  -9  275.77    9.30
  -2  -6  -9  253.57   10.30
   2   6   9  260.67   10.60
   2   6   9  271.87    9.20
   2   6   9  264.77    9.10
   2   6   9  266.57   11.00
  -3  -6  -9  161.98    7.20
  -3  -6  -9  172.68    7.10
   3   6   9  174.38    6.50
   3   6   9  171.08    6.10
   3   6   9  160.48    7.80
   3   6   9  168.08    7.50
  -4  -6  -9    6.30    0.90
  -4  -6  -9    4.90    1.90
  -4  -6  -9    4.30    1.60
   4   6   9    5.00    2.20
   4   6   9    2.20    1.30
   4   6   9    3.40    2.00
   4   6   9    5.30    0.90
  -5  -6  -9  431.36   15.80
  -5  -6  -9  450.85   16.00
  -5  -6  -9  451.65   14.50
   5   6   9  437.86   14.90
   5   6   9  421.86   16.60
   5   6   9  424.86   15.80
   5   6   9  451.25   15.50
  -6  -6  -9  187.68    8.00
   6   6   9  182.18    7.20
   6   6   9  184.48    7.60
   6   6   9  168.38    8.50
   6   6   9  188.48    7.60
  -7  -6  -9  235.58    9.50
  -7  -6  -9  213.58    9.10
   7   6   9  222.38    8.70
   7   6   9  219.38    8.90
   7   6   9  206.08    9.90
  -8  -6  -9   14.60    2.60
  -8  -6  -9   14.70    2.70
  -8  -6  -9   12.70    2.60
   8   6   9   14.40    2.00
   8   6   9   17.10    2.50
   8   6   9    9.50    3.00
   8   6   9   13.50    3.00
  -9  -6  -9   40.10    3.90
  -9  -6  -9   47.20    4.40
  -9  -6  -9   48.30    4.10
   9   6   9   43.60    4.70
   9   6   9   39.60    4.60
   9   6   9   42.80    3.70
 -10  -6  -9   22.40    3.20
 -10  -6  -9   19.10    3.30
  10   6   9   16.70    3.40
  10   6   9   13.00    3.40
  10   6   9   17.00    2.80
 -11  -6  -9   19.10    3.30
 -11  -6  -9   14.10    3.00
  11   6   9   22.40    3.30
  11   6   9   20.10    4.20
  11   6   9   25.10    4.10
 -12  -6  -9   13.10    3.40
  12   6   9   10.10    3.20
   4  -7  -9   59.29    5.20
   4  -7  -9   58.49    4.80
  -4   7   9   58.59    4.80
  -4   7   9   56.19    5.00
   3  -7  -9   17.30    3.20
   3  -7  -9   24.30    3.10
  -3   7   9   20.50    3.20
  -3   7   9   23.90    3.40
   2  -7  -9   63.89    4.80
   2  -7  -9   64.79    4.50
  -2   7   9   64.99    4.60
  -2   7   9   72.09    4.90
  -2   7   9   61.99    4.60
   1  -7  -9    2.90    2.10
   1  -7  -9    5.20    1.70
  -1   7   9    4.20    2.20
  -1   7   9    7.30    2.10
   0  -7  -9    4.70    1.50
   0  -7  -9    3.30    1.40
   0  -7  -9    3.60    1.90
   0   7   9    5.60    2.00
   0   7   9    4.30    2.00
  -1  -7  -9   51.89    3.20
  -1  -7  -9   43.20    3.60
  -1  -7  -9   51.39    3.20
   1   7   9   47.50    3.90
   1   7   9   49.20    4.00
  -2  -7  -9   75.69    3.70
  -2  -7  -9   72.29    4.50
  -2  -7  -9   71.89    4.10
   2   7   9   77.99    3.30
   2   7   9   86.19    5.10
   2   7   9   73.99    4.70
  -3  -7  -9    3.50    1.00
  -3  -7  -9    3.30    1.60
  -3  -7  -9    1.60    1.50
   3   7   9    1.70    1.10
   3   7   9    0.50    2.00
   3   7   9   -0.40    1.70
  -4  -7  -9    5.00    1.70
  -4  -7  -9    6.90    1.90
  -4  -7  -9    4.70    1.10
   4   7   9    4.10    1.40
   4   7   9    5.20    1.90
   4   7   9    7.80    2.50
  -5  -7  -9    8.00    2.20
  -5  -7  -9    8.10    2.00
  -5  -7  -9    7.10    1.20
   5   7   9    9.10    2.60
   5   7   9    6.90    2.20
   5   7   9    7.90    1.70
   5   7   9    8.70    0.90
  -6  -7  -9    0.90    0.90
  -6  -7  -9    0.30    1.70
  -6  -7  -9    2.70    1.70
   6   7   9   -2.40    1.40
   6   7   9   -0.70    1.50
   6   7   9    1.30    2.20
   6   7   9    0.50    0.80
  -7  -7  -9   -0.40    1.70
   7   7   9   -1.20    2.20
   7   7   9   -0.90    1.40
   7   7   9   -1.00    1.40
   7   7   9   -1.50    1.90
  -8  -7  -9   -0.20    1.80
  -8  -7  -9   -1.10    2.00
   8   7   9    1.70    2.10
   8   7   9    1.20    1.50
   8   7   9    1.60    2.50
   8   7   9   -0.30    1.50
  -9  -7  -9   64.49    4.90
  -9  -7  -9   54.69    4.40
  -9  -7  -9   52.79    4.30
   9   7   9   52.79    4.20
   9   7   9   61.09    5.70
   9   7   9   55.69    5.50
 -10  -7  -9   -2.10    2.00
 -10  -7  -9    2.70    2.30
 -10  -7  -9    1.20    2.20
  10   7   9   -0.10    1.80
  10   7   9   -2.10    2.60
  10   7   9    3.30    2.80
 -11  -7  -9    1.50    2.20
 -11  -7  -9    2.10    2.60
  11   7   9   -0.80    2.60
  11   7   9   -0.50    1.90
  11   7   9   -2.40    2.90
 -12  -7  -9    0.70    2.70
 -12  -7  -9    4.00    2.70
  12   7   9   -2.50    3.00
  12   7   9    3.20    2.90
  12   7   9    1.10    2.40
   4  -8  -9   37.80    4.10
   4  -8  -9   25.70    3.80
  -4   8   9   31.00    4.10
  -4   8   9   29.50    4.00
   3  -8  -9   29.90    3.90
   3  -8  -9   23.00    3.30
  -3   8   9   28.30    3.70
  -3   8   9   27.50    3.70
   2  -8  -9   37.80    4.20
   2  -8  -9   31.50    3.30
  -2   8   9   40.30    4.40
  -2   8   9   40.10    4.00
   1  -8  -9  335.47   12.90
   1  -8  -9  326.27   13.30
  -1   8   9  336.67   12.90
  -1   8   9  339.37   13.00
  -1   8   9  326.87   13.50
   0  -8  -9    0.80    1.50
   0  -8  -9    0.20    1.40
   0  -8  -9   -1.20    1.70
   0   8   9    0.70    1.60
   0   8   9    0.10    2.00
  -1  -8  -9   79.89    4.40
  -1  -8  -9   85.99    4.40
  -1  -8  -9   68.09    4.70
   1   8   9   76.39    4.80
   1   8   9   70.09    4.90
  -2  -8  -9   90.59    4.40
  -2  -8  -9   83.19    4.50
  -2  -8  -9   79.89    5.10
   2   8   9   86.19    3.70
   2   8   9   83.79    5.30
   2   8   9   80.29    5.30
  -3  -8  -9    1.20    1.60
  -3  -8  -9    3.60    1.20
  -3  -8  -9    1.30    1.60
   3   8   9    0.50    1.90
   3   8   9    3.30    2.00
   3   8   9    1.70    1.20
  -4  -8  -9  166.38    7.10
  -4  -8  -9  154.88    7.30
   4   8   9  150.68    7.80
   4   8   9  157.78    7.50
   4   8   9  164.18    6.60
  -5  -8  -9   13.50    2.40
  -5  -8  -9   12.70    1.60
  -5  -8  -9   11.90    2.20
   5   8   9    9.80    2.60
   5   8   9    8.00    1.80
   5   8   9    8.40    2.30
  -6  -8  -9   28.90    2.40
  -6  -8  -9   26.10    3.10
  -6  -8  -9   41.70    3.60
   6   8   9   31.00    2.90
   6   8   9   30.50    3.80
   6   8   9   28.30    3.50
   6   8   9   36.50    3.50
  -7  -8  -9   23.80    2.20
  -7  -8  -9   20.00    2.70
  -7  -8  -9   17.70    2.60
   7   8   9   19.40    2.70
   7   8   9   24.30    3.80
   7   8   9   21.50    2.70
   7   8   9   17.00    3.10
  -8  -8  -9   55.39    4.40
   8   8   9   59.79    5.20
   8   8   9   68.59    4.00
   8   8   9   55.09    5.20
   8   8   9   58.89    4.40
  -9  -8  -9   24.20    3.10
  -9  -8  -9   25.30    3.40
  -9  -8  -9   31.70    3.70
   9   8   9   22.40    3.80
   9   8   9   21.50    2.80
   9   8   9   18.90    3.70
 -10  -8  -9   93.39    5.80
 -10  -8  -9   92.79    6.00
 -10  -8  -9  102.79    6.20
  10   8   9   92.39    6.80
  10   8   9   87.99    6.60
  10   8   9   95.19    5.60
 -11  -8  -9   31.50    3.80
 -11  -8  -9   25.00    3.60
  11   8   9   29.00    3.60
  11   8   9   26.70    4.30
  11   8   9   24.70    4.60
 -12  -8  -9   34.90    4.20
  12   8   9   40.20    4.20
  12   8   9   35.10    5.20
  12   8   9   32.60    4.70
   3  -9  -9    8.30    2.80
   3  -9  -9   10.00    2.80
  -3   9   9   10.60    3.10
  -3   9   9   11.40    3.10
   2  -9  -9    4.80    2.30
   2  -9  -9    1.60    2.10
  -2   9   9    4.10    2.60
  -2   9   9    7.00    2.60
   1  -9  -9    3.10    2.00
   1  -9  -9    4.10    2.20
  -1   9   9    4.60    2.60
  -1   9   9    6.00    2.80
   0  -9  -9  142.79    6.70
   0  -9  -9  148.69    7.00
   0  -9  -9  145.69    7.50
   0   9   9  147.69    7.60
   0   9   9  142.09    6.90
   0   9   9  149.69    7.10
  -1  -9  -9  107.39    5.40
  -1  -9  -9  103.89    5.40
  -1  -9  -9  102.09    5.90
   1   9   9  101.89    5.70
   1   9   9  110.59    6.40
  -2  -9  -9    8.30    2.20
  -2  -9  -9    8.70    2.00
  -2  -9  -9   10.40    1.80
   2   9   9    6.30    1.30
   2   9   9    9.20    2.20
   2   9   9    5.90    2.40
  -3  -9  -9   -1.30    1.50
  -3  -9  -9   -0.60    1.10
  -3  -9  -9    0.70    1.60
   3   9   9    0.70    1.90
   3   9   9    0.50    2.00
   3   9   9   -1.20    1.20
  -4  -9  -9  259.37   10.20
  -4  -9  -9  236.08   10.30
  -4  -9  -9  244.38    9.60
   4   9   9  265.17   10.70
   4   9   9  250.47   10.80
   4   9   9  256.67    9.70
  -5  -9  -9    3.60    2.00
  -5  -9  -9    2.80    1.40
  -5  -9  -9    1.30    1.90
   5   9   9    2.70    1.60
   5   9   9    3.00    2.30
   5   9   9    2.50    2.00
  -6  -9  -9   57.89    4.20
  -6  -9  -9   40.70    3.00
  -6  -9  -9   46.40    3.90
   6   9   9   48.10    4.10
   6   9   9   47.30    4.70
   6   9   9   47.90    4.60
   6   9   9   42.30    3.40
  -7  -9  -9   40.20    3.80
  -7  -9  -9   41.60    2.90
  -7  -9  -9   34.60    3.50
   7   9   9   41.30    4.60
   7   9   9   33.80    4.10
   7   9   9   39.70    3.60
   7   9   9   34.90    3.40
  -8  -9  -9   92.69    5.40
  -8  -9  -9   89.79    5.30
   8   9   9   95.09    5.10
   8   9   9   89.29    5.10
   8   9   9   81.69    6.20
   8   9   9   71.69    6.20
  -9  -9  -9    8.10    2.30
   9   9   9    8.60    2.30
   9   9   9    8.90    2.30
   9   9   9    6.50    3.20
   9   9   9    5.40    2.90
 -10  -9  -9    3.60    2.40
 -10  -9  -9    4.50    2.50
 -10  -9  -9   -0.10    2.30
  10   9   9   -0.90    3.10
  10   9   9    0.20    2.80
  10   9   9    4.60    2.40
 -11  -9  -9   30.30    3.90
 -11  -9  -9   37.20    4.10
 -11  -9  -9   37.00    4.20
  11   9   9   31.20    4.60
  11   9   9   31.20    3.60
  11   9   9   32.60    5.10
   2 -10  -9    8.20    2.90
   2 -10  -9   12.60    3.00
  -2  10   9   16.50    3.30
  -2  10   9   16.40    3.20
   1 -10  -9   12.60    2.70
   1 -10  -9   10.70    2.80
  -1  10   9   22.20    3.70
  -1  10   9   14.20    3.10
   0 -10  -9   -0.70    1.80
   0 -10  -9   -0.90    2.10
   0 -10  -9    4.30    1.90
   0  10   9    0.70    2.40
   0  10   9    0.00    2.30
  -1 -10  -9   13.10    2.70
  -1 -10  -9   11.80    2.30
  -1 -10  -9   11.80    2.40
   1  10   9   11.10    2.90
   1  10   9   10.30    2.60
   1  10   9   12.40    2.30
  -2 -10  -9   11.20    2.20
  -2 -10  -9    7.40    2.30
  -2 -10  -9   10.30    2.30
   2  10   9   11.20    2.40
   2  10   9   10.40    1.60
   2  10   9    8.00    2.60
  -3 -10  -9   25.70    3.00
  -3 -10  -9   22.70    2.60
  -3 -10  -9   23.30    3.10
   3  10   9   33.30    3.80
   3  10   9   21.60    2.30
   3  10   9   21.20    3.00
  -4 -10  -9   39.50    3.40
  -4 -10  -9   41.20    3.80
  -4 -10  -9   44.80    3.90
   4  10   9   45.60    4.50
   4  10   9   44.00    4.30
   4  10   9   41.50    3.20
  -5 -10  -9    2.50    1.90
  -5 -10  -9    0.50    1.90
  -5 -10  -9    1.50    1.60
   5  10   9    2.90    2.40
   5  10   9    1.10    1.70
   5  10   9    0.80    2.20
   5  10   9    2.80    2.20
  -6 -10  -9   -0.30    1.90
  -6 -10  -9    2.10    1.60
  -6 -10  -9    1.70    1.90
   6  10   9    1.20    1.80
   6  10   9    1.80    2.30
   6  10   9    3.50    2.20
   6  10   9    3.30    2.60
  -7 -10  -9   23.70    3.20
  -7 -10  -9   37.10    3.70
  -7 -10  -9   31.50    2.90
   7  10   9   30.70    3.30
   7  10   9   26.10    3.80
   7  10   9   37.30    3.70
   7  10   9   27.10    4.20
  -8 -10  -9    1.70    1.60
  -8 -10  -9    1.30    2.10
  -8 -10  -9    1.50    1.90
   8  10   9    1.40    2.70
   8  10   9    2.20    2.60
   8  10   9    1.60    2.00
   8  10   9    1.30    1.90
  -9 -10  -9   12.80    2.70
  -9 -10  -9   13.30    2.60
   9  10   9    2.80    3.10
   9  10   9   11.10    2.70
   9  10   9    6.30    3.00
   9  10   9   14.10    2.40
 -10 -10  -9   35.10    4.10
 -10 -10  -9   40.50    4.20
  10  10   9   27.40    4.80
  10  10   9   37.00    4.90
  10  10   9   40.10    4.10
 -11 -10  -9    1.90    2.70
 -11 -10  -9   -0.30    2.60
 -11 -10  -9    2.20    2.30
  11  10   9   -0.90    2.90
  11  10   9   -0.60    2.00
   1 -11  -9   10.00    2.80
   1 -11  -9   16.70    3.20
  -1  11   9   12.00    3.30
  -1  11   9   16.00    3.20
   0 -11  -9   30.10    3.60
   0 -11  -9   28.80    3.90
   0  11   9   21.80    3.50
   0  11   9   28.20    4.00
  -1 -11  -9    9.60    2.20
  -1 -11  -9    5.50    2.50
  -1 -11  -9    9.00    2.30
   1  11   9    6.90    3.00
   1  11   9    8.60    2.70
  -2 -11  -9    3.00    1.90
  -2 -11  -9   -0.20    2.00
  -2 -11  -9    0.50    1.80
   2  11   9    7.00    2.70
  -3 -11  -9   79.99    5.00
  -3 -11  -9   70.39    5.20
  -3 -11  -9   65.49    4.70
   3  11   9   79.69    4.30
   3  11   9   75.19    5.00
   3  11   9   77.99    5.80
  -4 -11  -9   11.30    2.10
  -4 -11  -9   10.30    2.70
  -4 -11  -9    8.70    2.40
   4  11   9   11.90    2.90
   4  11   9    6.10    2.50
   4  11   9    6.50    1.90
  -5 -11  -9   43.80    3.80
  -5 -11  -9   52.79    4.60
  -5 -11  -9   53.09    3.90
  -5 -11  -9   39.70    4.10
   5  11   9   55.49    4.70
   5  11   9   49.99    3.90
   5  11   9   45.40    4.60
   5  11   9   45.10    4.70
  -6 -11  -9   37.80    3.40
  -6 -11  -9   35.50    3.80
  -6 -11  -9   38.10    3.90
   6  11   9   47.70    4.60
   6  11   9   34.70    3.40
   6  11   9   36.00    4.30
   6  11   9   32.10    4.20
  -7 -11  -9   71.39    5.40
  -7 -11  -9   74.99    4.50
  -7 -11  -9   78.49    5.20
   7  11   9   73.29    4.80
   7  11   9   63.29    5.90
   7  11   9   82.19    5.40
   7  11   9   61.99    5.60
  -8 -11  -9   35.50    3.40
  -8 -11  -9   34.60    4.00
  -8 -11  -9   37.10    4.00
   8  11   9   26.80    3.40
   8  11   9   29.30    4.30
   8  11   9   39.60    4.00
   8  11   9   29.50    4.50
  -9 -11  -9    3.60    2.30
  -9 -11  -9    5.30    2.30
   9  11   9    1.30    2.10
   9  11   9   -1.60    3.10
   9  11   9    3.10    3.00
   9  11   9    3.70    2.20
 -10 -11  -9   28.20    3.70
 -10 -11  -9   21.20    3.40
 -10 -11  -9   25.70    3.70
  10  11   9   23.40    3.30
  10  11   9   16.00    4.10
 -11 -11  -9    0.60    2.30
 -11 -11  -9    4.20    3.00
  11  11   9    0.80    3.30
  -1 -12  -9   96.19    6.20
  -1 -12  -9  104.39    6.10
  -1 -12  -9   88.19    6.30
   1  12   9   97.59    6.20
   1  12   9  102.49    7.10
  -2 -12  -9   -1.00    1.90
  -2 -12  -9   -0.80    1.80
  -2 -12  -9    1.20    2.30
   2  12   9    6.20    2.80
  -3 -12  -9   14.10    2.80
  -3 -12  -9   12.60    2.80
  -3 -12  -9   12.10    2.60
   3  12   9   19.10    3.60
   3  12   9   11.20    2.20
  -4 -12  -9   59.99    4.90
  -4 -12  -9   69.79    4.90
  -4 -12  -9   77.09    5.00
   4  12   9   63.19    5.00
   4  12   9   62.99    5.70
   4  12   9   74.09    4.70
  -5 -12  -9   40.70    3.90
  -5 -12  -9   35.60    3.90
  -5 -12  -9   34.30    3.50
  -5 -12  -9   43.40    4.40
   5  12   9   41.50    4.30
   5  12   9   39.10    4.40
   5  12   9   34.80    3.50
  -6 -12  -9    0.40    2.10
  -6 -12  -9   -2.10    2.00
  -6 -12  -9   -1.40    1.80
   6  12   9    3.30    2.60
   6  12   9   -1.20    2.40
   6  12   9    1.10    2.10
   6  12   9   -0.10    2.60
  -7 -12  -9    9.10    2.30
  -7 -12  -9    5.80    2.70
  -7 -12  -9   12.10    2.80
   7  12   9    9.00    3.10
   7  12   9   11.80    3.10
   7  12   9    5.00    2.40
   7  12   9    5.70    3.10
  -8 -12  -9   12.90    2.60
  -8 -12  -9   14.70    3.10
  -8 -12  -9    7.00    2.80
   8  12   9    4.80    3.20
   8  12   9   11.20    3.60
   8  12   9   13.60    2.90
   8  12   9   15.30    3.00
  -9 -12  -9   15.80    3.20
  -9 -12  -9   16.20    3.30
   9  12   9   12.40    2.90
   9  12   9   11.40    3.60
   9  12   9    8.10    3.70
   9  12   9   15.10    3.00
 -10 -12  -9    5.40    2.80
 -10 -12  -9    2.50    2.60
 -10 -12  -9    4.20    2.70
  10  12   9    0.50    3.10
  10  12   9    1.40    2.50
  -3 -13  -9   20.30    3.30
  -3 -13  -9   24.10    3.40
  -3 -13  -9   24.20    3.50
   3  13   9   25.70    4.00
  -4 -13  -9   85.29    5.70
  -4 -13  -9   82.19    5.80
  -4 -13  -9   66.49    5.60
   4  13   9   77.69    5.00
   4  13   9   81.09    6.50
  -5 -13  -9   64.29    5.00
  -5 -13  -9   55.29    4.80
  -5 -13  -9   53.29    5.00
  -5 -13  -9   50.49    4.80
   5  13   9   60.49    4.60
  -6 -13  -9   85.09    5.90
  -6 -13  -9   79.29    5.30
  -6 -13  -9   81.19    6.00
   6  13   9   81.29    6.20
   6  13   9   59.29    5.70
   6  13   9   79.69    5.50
   6  13   9   79.39    6.20
  -7 -13  -9   42.70    4.40
  -7 -13  -9   36.30    4.20
  -7 -13  -9   37.80    4.00
   7  13   9   40.30    4.80
   7  13   9   52.89    5.00
   7  13   9   37.30    4.70
   7  13   9   36.50    4.00
  -8 -13  -9    1.60    2.10
  -8 -13  -9    3.10    2.40
  -8 -13  -9   -0.10    2.10
   8  13   9   -1.00    2.60
   8  13   9   -1.90    2.90
   8  13   9    0.00    2.40
   8  13   9    2.10    2.60
   3   4 -10    6.50    3.70
   3   4 -10    0.80    3.50
  -3  -4  10    6.70    2.80
   2   4 -10   11.50    4.10
  -2  -4  10   22.30    3.90
   1   4 -10   -3.40    3.20
   1   4 -10    4.90    2.70
  -1  -4  10    1.90    2.40
  -1  -4  10    0.20    2.40
   0   4 -10    7.50    2.90
   0   4 -10    1.10    3.50
   0  -4  10    4.10    2.40
   0  -4  10    6.80    3.00
  -1   4 -10   51.49    5.80
  -1   4 -10   69.89    5.50
   1  -4  10   54.59    5.10
   1  -4  10   56.19    5.20
  -2   4 -10   10.00    3.10
  -2   4 -10    2.10    3.30
   2  -4  10    8.60    2.10
   2  -4  10    7.10    2.60
   2  -4  10   12.30    3.10
  -3   4 -10   -1.90    2.80
   3  -4  10    1.40    2.20
   3  -4  10    2.40    1.90
   4   3 -10   35.70    5.50
   4   3 -10   27.80    4.60
  -4  -3  10   45.30    4.90
   3   3 -10   88.39    7.50
  -3  -3  10   86.59    6.40
   2   3 -10    7.90    3.70
  -2  -3  10    4.90    2.80
  -2  -3  10    5.30    3.10
   1   3 -10   93.39    7.00
   1   3 -10   81.39    5.80
  -1  -3  10   76.59    6.20
  -1  -3  10   81.59    6.10
   0   3 -10   24.30    3.30
   0   3 -10   23.00    4.30
   0  -3  10   27.30    3.90
   0  -3  10   27.70    3.70
  -1   3 -10   40.20    4.10
  -1   3 -10   40.50    5.10
   1  -3  10   39.30    4.60
   1  -3  10   48.00    4.70
  -2   3 -10    4.70    3.30
  -2   3 -10   10.20    3.10
   2  -3  10   10.00    2.00
   2  -3  10   13.70    3.30
   2  -3  10   17.80    3.40
  -3   3 -10   17.40    3.50
  -3   3 -10   10.70    3.60
   3  -3  10   16.50    3.50
   3  -3  10   19.50    3.50
   3  -3  10   14.40    2.50
  -4   3 -10   -4.40    3.00
  -4   3 -10    0.90    2.80
   4  -3  10    6.70    2.60
   4  -3  10    3.20    2.50
   4  -3  10    3.60    1.90
  -5   3 -10   34.50    4.70
   5  -3  10   26.90    4.00
   5  -3  10   43.00    4.10
   5   2 -10    1.50    3.20
   5   2 -10    1.60    3.60
  -5  -2  10    5.20    2.60
   4   2 -10   38.50    5.60
   4   2 -10   54.69    5.90
  -4  -2  10   64.09    5.40
   3   2 -10   -0.40    2.90
  -3  -2  10    2.10    2.40
  -3  -2  10   -0.20    2.40
   2   2 -10   81.69    6.70
  -2  -2  10   76.99    6.20
  -2  -2  10   82.79    5.80
   1   2 -10  120.89    7.10
   1   2 -10  114.79    7.70
  -1  -2  10  117.09    7.30
  -1  -2  10  110.99    6.80
   0   2 -10   22.10    4.00
   0   2 -10   24.00    3.00
   0  -2  10   26.10    4.00
   0  -2  10   26.30    3.70
  -1   2 -10    4.90    3.20
  -1   2 -10    8.40    2.50
   1  -2  10    3.50    2.70
   1  -2  10    7.70    1.50
   1  -2  10    3.60    2.40
  -2   2 -10   12.70    2.70
  -2   2 -10   14.80    3.80
   2  -2  10   11.20    2.00
   2  -2  10   14.00    3.20
   2  -2  10   11.40    2.70
  -3   2 -10   -0.30    2.80
  -3   2 -10   -2.20    2.10
   3  -2  10   -0.20    2.00
   3  -2  10    1.70    1.60
   3  -2  10   -0.40    2.20
  -4   2 -10   16.60    3.30
  -4   2 -10   15.10    3.60
   4  -2  10   19.90    2.80
   4  -2  10   14.50    3.10
   4  -2  10   23.00    3.60
  -5   2 -10   20.80    3.60
  -5   2 -10   17.00    3.30
   5  -2  10   19.40    3.40
   5  -2  10   26.60    3.80
   5  -2  10   21.80    3.10
  -6   2 -10    2.30    3.00
  -6   2 -10   -0.60    2.60
   6  -2  10    2.80    1.90
   6  -2  10    5.90    2.70
   5   1 -10    2.40    3.20
   5   1 -10    1.10    3.10
  -5  -1  10    2.20    3.20
  -5  -1  10    5.70    2.70
   4   1 -10   -1.70    2.60
  -4  -1  10   -3.70    2.10
   3   1 -10   13.30    3.60
  -3  -1  10   16.00    2.90
  -3  -1  10   17.10    3.80
   2   1 -10   86.59    6.60
  -2  -1  10   81.49    6.30
  -2  -1  10   94.39    5.90
   1   1 -10   32.60    4.40
  -1  -1  10   26.70    3.80
  -1  -1  10   32.80    3.80
   0   1 -10    4.30    2.80
   0   1 -10    3.70    1.90
   0  -1  10    5.40    2.20
   0  -1  10    9.30    2.80
  -1   1 -10  320.07   13.50
  -1   1 -10  300.67   11.90
   1  -1  10  291.57   13.00
   1  -1  10  308.07   12.60
   1  -1  10  305.77   10.80
  -2   1 -10   13.60    2.50
  -2   1 -10   12.10    3.20
   2  -1  10   10.40    1.80
   2  -1  10   16.50    3.30
   2  -1  10    7.80    2.40
  -3   1 -10   -1.30    2.70
  -3   1 -10   -0.10    2.20
   3  -1  10    0.90    2.20
   3  -1  10   -1.00    1.40
   3  -1  10    0.90    2.00
  -4   1 -10    5.40    2.70
  -4   1 -10    3.90    2.80
   4  -1  10    2.60    2.40
   4  -1  10    2.80    2.10
   4  -1  10    4.40    1.90
  -5   1 -10    5.80    2.80
  -5   1 -10    6.10    2.90
   5  -1  10   14.20    3.00
   5  -1  10    5.60    2.10
   5  -1  10    9.60    2.80
  -6   1 -10   -1.80    2.60
  -6   1 -10    0.10    2.50
   6  -1  10    2.30    1.90
   6  -1  10    1.80    2.30
   6  -1  10    2.90    2.30
  -7   1 -10    2.00    2.60
   7  -1  10   -0.40    2.40
   7  -1  10    1.30    1.90
   5   0 -10    5.60    3.20
   5   0 -10    2.80    3.00
  -5   0  10    6.70    2.80
   4   0 -10    8.70    3.50
  -4   0  10    6.30    2.40
  -4   0  10    5.30    3.20
   3   0 -10    5.10    2.90
  -3   0  10    9.10    3.20
  -3   0  10    1.10    2.10
   2   0 -10   40.00    4.60
  -2   0  10   36.10    3.90
  -2   0  10   38.40    4.60
   1   0 -10    4.70    2.80
  -1   0  10    7.30    2.70
  -1   0  10    9.90    2.40
   0   0 -10   10.30    3.10
   0   0 -10    9.00    1.90
   0   0  10   10.50    3.00
   0   0  10   10.20    2.30
  -1   0 -10   11.00    2.90
  -1   0 -10    7.40    2.00
   1   0  10   11.50    2.50
   1   0  10   10.90    2.70
   1   0  10   12.50    1.40
  -2   0 -10   73.19    4.70
  -2   0 -10   71.19    5.50
   2   0  10   73.29    3.80
   2   0  10   64.39    5.30
   2   0  10   74.09    5.00
  -3   0 -10   54.29    4.90
  -3   0 -10   51.49    4.00
   3   0  10   55.59    4.90
   3   0  10   44.80    3.20
   3   0  10   47.50    4.20
  -4   0 -10   69.09    5.60
  -4   0 -10   68.09    4.70
   4   0  10   67.09    4.10
   4   0  10   55.99    5.00
   4   0  10   65.99    4.90
  -5   0 -10  582.54   22.00
  -5   0 -10  612.84   21.60
   5   0  10  595.94   22.00
   5   0  10  580.64   21.00
   5   0  10  593.64   21.80
  -6   0 -10   30.10    3.70
  -6   0 -10   24.90    3.50
   6   0  10   26.60    3.50
   6   0  10   33.60    4.00
   6   0  10   26.90    3.20
  -7   0 -10  181.78    9.30
   7   0  10  195.38    8.80
   7   0  10  184.08    9.20
   7   0  10  193.98    9.50
   8   0  10   59.99    4.90
   8   0  10   64.59    6.20
   8   0  10   56.39    5.40
   6  -1 -10   16.00    3.50
   6  -1 -10   14.70    3.50
   5  -1 -10  249.97   11.50
   5  -1 -10  206.48   11.40
  -5   1  10  224.58   10.30
   4  -1 -10  301.07   13.50
  -4   1  10  299.87   12.50
   3  -1 -10  191.58   10.10
  -3   1  10  184.08    8.60
  -3   1  10  194.98    9.80
   2  -1 -10    1.10    2.40
  -2   1  10    4.80    2.60
  -2   1  10    2.40    2.00
   1  -1 -10  189.28    9.60
   1  -1 -10  187.78    7.80
  -1   1  10  179.68    9.20
  -1   1  10  186.28    8.30
   0  -1 -10    6.10    2.70
   0  -1 -10    8.40    1.80
   0  -1 -10    6.40    1.30
   0   1  10    4.10    1.90
   0   1  10   10.40    2.80
  -1  -1 -10    0.30    1.60
  -1  -1 -10    1.80    1.20
  -1  -1 -10    5.40    2.70
   1   1  10    0.10    1.50
   1   1  10    0.40    2.20
  -2  -1 -10   10.50    2.20
  -2  -1 -10    9.10    1.50
  -2  -1 -10    6.80    2.60
   2   1  10    8.50    2.00
   2   1  10    6.30    2.30
   2   1  10    8.60    1.40
  -3  -1 -10   13.60    3.00
  -3  -1 -10   11.80    2.30
  -3  -1 -10    8.80    1.60
   3   1  10   14.70    1.80
   3   1  10   10.30    2.60
   3   1  10    8.90    2.10
  -4  -1 -10  117.79    5.50
  -4  -1 -10  133.69    6.50
  -4  -1 -10  127.59    7.20
   4   1  10  112.19    6.30
   4   1  10  123.09    7.00
   4   1  10  125.39    5.80
  -5  -1 -10    7.20    2.40
  -5  -1 -10    7.10    1.90
  -5  -1 -10    1.40    2.30
   5   1  10    5.00    2.20
   5   1  10    5.40    2.50
   5   1  10    7.00    1.90
  -6  -1 -10  101.09    5.90
  -6  -1 -10   96.89    6.10
  -6  -1 -10   92.59    4.90
   6   1  10   98.39    6.00
   6   1  10   98.09    5.40
   6   1  10   92.19    6.10
  -7  -1 -10  125.99    6.80
  -7  -1 -10  119.59    5.90
  -7  -1 -10  110.19    6.60
   7   1  10  111.49    6.80
   7   1  10  122.89    7.10
   7   1  10  117.59    6.20
  -8  -1 -10   25.90    3.70
  -8  -1 -10   35.70    3.50
   8   1  10   31.80    4.20
   8   1  10   28.30    3.40
   8   1  10   37.70    4.40
  -9  -1 -10   43.30    4.70
   9   1  10   53.99    4.70
   9   1  10   49.70    5.00
   9   1  10   34.90    4.70
   6  -2 -10    3.70    2.60
   5  -2 -10   40.90    5.00
   5  -2 -10   34.50    4.60
   4  -2 -10   -3.70    2.20
   4  -2 -10   -0.10    1.60
  -4   2  10    0.40    2.70
  -4   2  10   -0.50    1.90
   3  -2 -10    4.60    2.80
   3  -2 -10    2.60    1.50
  -3   2  10    2.70    2.00
  -3   2  10    4.30    2.80
   2  -2 -10   35.30    2.80
   2  -2 -10   37.00    4.70
  -2   2  10   35.80    4.40
  -2   2  10   35.50    3.50
   1  -2 -10  181.28    9.40
   1  -2 -10  162.28    6.90
  -1   2  10  178.88    7.70
  -1   2  10  168.38    8.60
   0  -2 -10   12.30    1.90
   0  -2 -10   11.60    1.70
   0  -2 -10   15.90    3.30
   0   2  10   15.50    2.40
   0   2  10   11.10    2.90
  -1  -2 -10   31.40    2.80
  -1  -2 -10   33.40    4.20
  -1  -2 -10   35.70    2.60
   1   2  10   35.50    3.20
   1   2  10   25.20    3.60
  -2  -2 -10   16.20    3.30
  -2  -2 -10   15.50    2.30
  -2  -2 -10   14.80    1.90
   2   2  10   19.40    3.20
   2   2  10   14.80    2.30
   2   2  10   15.40    1.50
  -3  -2 -10    9.20    2.70
  -3  -2 -10    8.80    1.60
  -3  -2 -10   10.00    2.20
   3   2  10   13.80    2.30
   3   2  10    9.80    1.60
   3   2  10   10.60    2.50
  -4  -2 -10    5.20    2.50
  -4  -2 -10    7.90    1.70
  -4  -2 -10    4.10    2.20
   4   2  10    6.20    2.30
   4   2  10    8.00    1.60
   4   2  10    6.50    2.00
  -5  -2 -10   40.40    4.10
  -5  -2 -10   39.80    3.80
  -5  -2 -10   39.00    3.20
  -5  -2 -10   46.30    3.40
   5   2  10   45.10    3.30
   5   2  10   31.80    3.40
   5   2  10   41.10    4.30
  -6  -2 -10   88.29    5.50
  -6  -2 -10   96.79    5.90
  -6  -2 -10   95.79    5.00
   6   2  10   90.49    5.60
   6   2  10   98.09    5.20
   6   2  10   99.89    6.30
  -7  -2 -10    1.50    1.90
  -7  -2 -10   -0.90    2.30
  -7  -2 -10    0.60    2.00
   7   2  10   -0.20    2.30
   7   2  10   -0.40    1.50
   7   2  10   -1.30    1.90
  -8  -2 -10   10.40    3.10
  -8  -2 -10    8.10    2.30
   8   2  10    8.40    2.10
   8   2  10    8.90    2.80
   8   2  10    1.40    2.40
  -9  -2 -10    4.80    2.50
  -9  -2 -10   11.40    3.20
   9   2  10   10.60    2.90
   9   2  10    3.50    2.00
   5  -3 -10   11.50    2.50
   5  -3 -10   14.90    3.50
   5  -3 -10   10.60    3.00
   4  -3 -10   22.80    3.80
   4  -3 -10   20.30    2.80
  -4   3  10   11.60    3.30
   3  -3 -10    3.80    2.90
   3  -3 -10   -0.20    1.50
  -3   3  10    2.20    2.40
  -3   3  10   -2.00    1.60
   2  -3 -10   19.90    2.40
  -2   3  10   26.90    4.00
  -2   3  10   28.30    3.00
   1  -3 -10  258.07   10.20
  -1   3  10  271.57   11.30
  -1   3  10  248.68   11.70
  -1   3  10  295.07   10.70
   0  -3 -10   13.60    1.90
   0  -3 -10   17.50    2.00
   0   3  10   19.10    2.40
   0   3  10   15.90    2.90
   0   3  10   14.80    2.90
  -1  -3 -10   66.49    3.70
  -1  -3 -10   67.89    3.80
   1   3  10   61.19    5.00
   1   3  10   70.39    4.00
   1   3  10   64.59    4.80
  -2  -3 -10   54.09    3.60
  -2  -3 -10   56.59    3.70
   2   3  10   62.79    2.80
   2   3  10   58.69    4.70
   2   3  10   62.79    3.80
  -3  -3 -10   71.39    4.40
  -3  -3 -10   82.49    4.30
   3   3  10   79.99    3.80
   3   3  10   83.29    4.50
   3   3  10   67.29    5.20
  -4  -3 -10  150.48    8.00
  -4  -3 -10  143.49    6.90
  -4  -3 -10  159.88    6.60
   4   3  10  159.88    6.40
   4   3  10  160.68    6.90
   4   3  10  131.59    7.30
  -5  -3 -10  139.29    7.50
  -5  -3 -10  135.69    6.80
  -5  -3 -10  146.99    6.30
   5   3  10  131.49    6.50
   5   3  10  130.29    7.30
   5   3  10  137.19    6.20
  -6  -3 -10   93.39    5.00
  -6  -3 -10   96.99    5.50
  -6  -3 -10   98.19    5.10
  -6  -3 -10  103.59    6.00
   6   3  10   84.19    5.90
   6   3  10   91.69    5.00
   6   3  10   83.19    5.20
  -7  -3 -10   32.70    3.70
  -7  -3 -10   32.30    3.50
  -7  -3 -10   40.60    3.70
   7   3  10   37.20    4.40
   7   3  10   35.30    3.20
   7   3  10   33.80    3.60
  -8  -3 -10    0.30    2.20
  -8  -3 -10    7.80    2.50
  -8  -3 -10    4.50    2.10
   8   3  10    7.50    2.90
   8   3  10    4.80    2.00
  -9  -3 -10    4.90    2.50
  -9  -3 -10   -2.20    2.20
   9   3  10   -0.90    1.70
   9   3  10   -0.70    2.50
 -10  -3 -10   37.90    4.00
 -10  -3 -10   38.50    4.20
  10   3  10   34.30    4.40
  10   3  10   37.20    3.90
   5  -4 -10   10.50    3.10
   5  -4 -10   10.50    2.60
   4  -4 -10    0.30    1.90
  -4   4  10    0.80    2.20
  -4   4  10   -0.80    2.40
   3  -4 -10   23.70    3.00
  -3   4  10   26.30    3.60
  -3   4  10   31.30    4.00
   2  -4 -10  114.59    5.90
  -2   4  10  110.29    7.00
  -2   4  10  116.29    5.70
  -2   4  10  123.49    6.70
   1  -4 -10   35.50    3.20
  -1   4  10   37.60    3.10
  -1   4  10   38.80    4.30
  -1   4  10   37.00    3.90
   0  -4 -10   14.60    2.10
   0   4  10   18.90    3.20
   0   4  10   17.10    2.80
   0   4  10   16.10    2.10
  -1  -4 -10  171.48    7.10
   1   4  10  159.38    8.20
   1   4  10  172.58    7.00
   1   4  10  169.88    7.80
  -2  -4 -10   11.20    1.90
  -2  -4 -10   10.60    1.90
   2   4  10   12.00    1.10
   2   4  10    9.50    1.70
   2   4  10    8.80    2.30
   2   4  10   10.30    2.70
  -3  -4 -10   11.50    2.00
  -3  -4 -10   15.30    2.20
   3   4  10   14.90    2.70
   3   4  10   15.70    2.70
   3   4  10   17.00    2.00
   3   4  10   14.60    1.60
  -4  -4 -10  150.78    6.70
  -4  -4 -10  148.19    6.90
   4   4  10  138.59    7.60
   4   4  10  159.38    7.10
   4   4  10  154.68    6.50
   4   4  10  154.08    6.30
  -5  -4 -10    2.20    1.60
  -5  -4 -10    2.50    2.00
   5   4  10    4.50    1.80
   5   4  10    0.50    1.30
   5   4  10    7.20    2.50
   5   4  10    1.50    1.40
  -6  -4 -10   18.60    2.90
  -6  -4 -10   11.10    2.20
   6   4  10   18.20    2.40
   6   4  10   16.70    2.50
   6   4  10   11.00    2.80
  -7  -4 -10   85.19    5.10
  -7  -4 -10   82.19    4.90
  -7  -4 -10   81.19    5.40
  -7  -4 -10   83.09    5.40
   7   4  10   80.69    5.80
   7   4  10   79.49    5.00
   7   4  10   86.29    4.80
  -8  -4 -10   75.69    5.40
  -8  -4 -10   75.89    5.00
  -8  -4 -10   66.09    4.70
   8   4  10   76.69    5.90
   8   4  10   69.99    4.80
  -9  -4 -10   54.09    4.70
  -9  -4 -10   50.89    4.20
   9   4  10   49.50    4.40
   9   4  10   52.39    5.50
 -10  -4 -10   11.90    3.10
 -10  -4 -10   17.60    3.20
  10   4  10   16.70    3.60
  10   4  10   13.10    2.80
   5  -5 -10   28.90    3.90
  -5   5  10   34.00    4.30
   4  -5 -10   55.29    4.90
  -4   5  10   59.19    5.30
  -4   5  10   52.39    4.90
   3  -5 -10   -1.10    1.90
  -3   5  10    3.10    2.50
  -3   5  10    0.80    2.10
   2  -5 -10   31.50    3.40
  -2   5  10   35.20    4.10
  -2   5  10   29.90    4.00
   1  -5 -10    6.40    2.00
  -1   5  10    9.60    2.70
  -1   5  10   11.00    2.80
   0  -5 -10   82.29    4.10
   0  -5 -10   86.79    4.80
   0   5  10   76.09    4.00
   0   5  10   82.99    5.40
   0   5  10   80.49    5.50
  -1  -5 -10    3.00    1.70
  -1  -5 -10    6.70    1.50
   1   5  10    5.10    2.30
   1   5  10    3.70    1.30
   1   5  10    4.80    2.30
  -2  -5 -10  225.08    8.80
  -2  -5 -10  229.58    9.20
   2   5  10  230.18    9.80
   2   5  10  214.08    9.90
   2   5  10  234.98    7.80
   2   5  10  226.98    8.50
  -3  -5 -10    4.10    1.70
   3   5  10    4.60    1.10
   3   5  10    7.20    2.10
   3   5  10    8.80    2.50
   3   5  10    6.40    1.30
  -4  -5 -10   16.10    2.40
  -4  -5 -10   15.20    2.20
   4   5  10   15.50    1.90
   4   5  10   16.10    2.60
   4   5  10   13.20    2.90
   4   5  10   14.80    1.80
  -5  -5 -10   61.49    4.10
  -5  -5 -10   60.79    4.30
   5   5  10   51.29    4.70
   5   5  10   59.89    4.10
   5   5  10   60.49    3.60
   5   5  10   53.79    3.30
  -6  -5 -10    0.90    1.90
  -6  -5 -10   -0.20    1.60
   6   5  10   -0.90    2.20
   6   5  10   -2.40    1.30
   6   5  10    0.40    1.30
   6   5  10    0.90    1.40
  -7  -5 -10   76.09    4.90
  -7  -5 -10   72.19    5.10
   7   5  10   87.89    4.80
   7   5  10   69.99    5.60
   7   5  10   73.69    4.60
   7   5  10   77.49    4.30
  -8  -5 -10   16.50    2.90
  -8  -5 -10   11.80    2.60
  -8  -5 -10   15.50    2.80
   8   5  10   15.30    3.50
   8   5  10   17.70    2.70
  -9  -5 -10   28.20    3.70
  -9  -5 -10   20.20    3.20
   9   5  10   19.80    2.80
   9   5  10   24.70    3.90
 -10  -5 -10   22.90    3.40
 -10  -5 -10   21.40    3.30
  10   5  10   26.70    3.40
  10   5  10   20.20    3.80
 -11  -5 -10    9.20    2.90
 -11  -5 -10   16.00    3.30
  11   5  10   10.00    3.40
  11   5  10   10.30    2.60
   4  -6 -10   61.49    5.30
  -4   6  10   60.39    5.30
  -3   6  10   52.49    4.90
  -3   6  10   52.59    4.80
   2  -6 -10   99.19    5.90
  -2   6  10   91.29    6.10
  -2   6  10   92.49    5.90
   1  -6 -10   45.70    4.20
  -1   6  10   55.49    4.70
  -1   6  10   57.89    4.80
   0  -6 -10   54.19    4.10
   0   6  10   47.80    4.20
   0   6  10   42.80    4.30
  -1  -6 -10   36.10    3.40
  -1  -6 -10   33.70    2.80
   1   6  10   35.70    3.80
   1   6  10   31.60    3.60
   1   6  10   32.10    2.10
  -2  -6 -10    9.40    1.80
  -2  -6 -10    6.50    1.90
   2   6  10    8.60    2.40
   2   6  10    8.60    1.20
   2   6  10    8.50    0.90
   2   6  10    9.10    2.60
  -3  -6 -10   90.59    4.70
  -3  -6 -10   84.19    4.80
   3   6  10   87.99    5.70
   3   6  10   88.99    3.90
   3   6  10   89.59    3.80
   3   6  10   88.59    5.40
  -4  -6 -10  123.79    6.10
  -4  -6 -10  134.09    6.20
   4   6  10  131.59    5.50
   4   6  10  120.79    5.00
   4   6  10  137.59    6.40
   4   6  10  112.09    6.70
  -5  -6 -10    0.50    1.80
   5   6  10    4.00    2.00
   5   6  10    2.40    1.00
   5   6  10    3.50    2.20
   5   6  10    1.70    1.40
  -6  -6 -10    2.30    1.80
  -6  -6 -10   -2.60    1.60
   6   6  10    1.10    1.60
   6   6  10    2.30    2.20
   6   6  10   -1.00    1.40
   6   6  10    0.90    1.10
  -7  -6 -10  170.18    7.90
  -7  -6 -10  164.38    7.50
   7   6  10  158.28    8.50
   7   6  10  164.18    7.10
   7   6  10  171.68    7.30
   7   6  10  166.08    7.40
  -8  -6 -10   -1.00    2.00
  -8  -6 -10    2.10    2.30
  -8  -6 -10    0.40    2.10
   8   6  10    0.40    1.70
   8   6  10    0.60    2.50
  -9  -6 -10   52.59    4.40
  -9  -6 -10   51.19    4.60
  -9  -6 -10   50.59    4.40
   9   6  10   52.69    4.30
   9   6  10   51.99    5.30
 -10  -6 -10  118.59    7.00
 -10  -6 -10  129.09    7.30
  10   6  10  135.19    7.00
  10   6  10  116.49    7.80
 -11  -6 -10    6.00    2.70
 -11  -6 -10    2.80    2.80
  11   6  10    0.90    3.00
  11   6  10    2.40    2.10
   4  -7 -10   41.20    4.50
  -4   7  10   49.30    4.90
   3  -7 -10    2.90    2.50
  -3   7  10    2.50    2.40
   2  -7 -10  107.59    6.00
   2  -7 -10  107.19    6.50
  -2   7  10   98.19    6.20
  -2   7  10  103.09    6.30
   1  -7 -10  117.59    6.30
   1  -7 -10  108.49    5.90
  -1   7  10  109.69    6.70
  -1   7  10  121.09    6.60
   0  -7 -10   28.50    2.70
   0  -7 -10   29.10    3.40
   0   7  10   27.30    3.60
   0   7  10   22.60    3.20
  -1  -7 -10   48.00    4.00
  -1  -7 -10   45.10    3.20
  -1  -7 -10   46.40    4.30
   1   7  10   42.20    4.00
   1   7  10   47.40    4.30
  -2  -7 -10   40.10    3.30
  -2  -7 -10   40.30    3.70
   2   7  10   47.20    2.60
   2   7  10   46.30    4.00
   2   7  10   41.10    4.10
  -3  -7 -10   -0.90    1.50
  -3  -7 -10    0.00    1.50
   3   7  10    0.10    0.90
   3   7  10    1.80    2.00
   3   7  10    0.00    2.00
  -4  -7 -10   18.90    2.60
  -4  -7 -10   23.70    2.80
   4   7  10   17.80    3.20
   4   7  10   24.40    3.20
   4   7  10   19.30    2.00
  -5  -7 -10   76.19    4.80
  -5  -7 -10   69.39    4.50
   5   7  10   71.39    5.50
   5   7  10   77.49    4.20
   5   7  10   82.49    4.90
  -6  -7 -10    4.30    1.90
   6   7  10    5.40    2.00
   6   7  10    6.60    1.30
   6   7  10    6.10    1.80
   6   7  10    8.90    2.80
  -7  -7 -10  123.19    6.70
  -7  -7 -10  120.89    6.40
   7   7  10  127.79    6.10
   7   7  10  129.59    5.40
   7   7  10  123.49    6.00
   7   7  10  114.99    7.20
  -8  -7 -10   15.40    2.70
  -8  -7 -10   17.90    3.10
   8   7  10   13.50    2.40
   8   7  10   18.00    2.40
   8   7  10   10.10    3.10
  -9  -7 -10   37.00    4.10
  -9  -7 -10   33.50    3.80
  -9  -7 -10   30.70    3.70
   9   7  10   33.20    3.40
   9   7  10   32.00    4.40
 -10  -7 -10    7.50    2.90
 -10  -7 -10    6.60    2.60
 -10  -7 -10    4.50    2.50
  10   7  10    4.70    2.20
  10   7  10    6.70    3.10
 -11  -7 -10   22.60    3.50
 -11  -7 -10   28.10    3.80
  11   7  10   28.40    3.60
  11   7  10   32.50    4.80
   3  -8 -10   99.59    6.40
   3  -8 -10   84.69    8.30
  -3   8  10   96.39    6.50
   2  -8 -10   89.69    6.20
   2  -8 -10   87.59    5.70
  -2   8  10  100.09    6.50
   1  -8 -10    5.90    1.90
   1  -8 -10    7.30    2.40
  -1   8  10   11.30    2.80
  -1   8  10    5.70    2.20
   0  -8 -10    1.00    1.50
   0  -8 -10    2.50    1.90
   0   8  10    0.80    2.00
   0   8  10    1.30    2.20
  -1  -8 -10    5.20    1.80
  -1  -8 -10    6.60    1.60
  -1  -8 -10    6.30    2.30
   1   8  10    2.50    2.10
   1   8  10    5.10    2.30
  -2  -8 -10   48.90    3.60
  -2  -8 -10   50.79    3.70
  -2  -8 -10   52.89    4.00
   2   8  10   46.80    4.40
   2   8  10   52.59    4.50
  -3  -8 -10   21.50    2.60
  -3  -8 -10   19.10    2.80
   3   8  10   18.40    3.00
   3   8  10   19.00    3.10
   3   8  10   20.50    1.90
  -4  -8 -10   41.60    4.00
  -4  -8 -10   43.70    3.60
  -4  -8 -10   31.10    3.40
   4   8  10   34.30    3.90
   4   8  10   44.30    4.10
   4   8  10   39.80    2.90
  -5  -8 -10   11.10    2.40
  -5  -8 -10   13.10    2.50
   5   8  10   15.60    3.00
   5   8  10   19.50    3.00
   5   8  10   14.90    2.10
  -6  -8 -10   69.79    4.70
  -6  -8 -10   54.29    4.60
   6   8  10   58.29    5.10
   6   8  10   67.99    4.50
   6   8  10   64.19    4.10
  -7  -8 -10   33.70    3.50
  -7  -8 -10   39.60    3.80
   7   8  10   37.80    3.50
   7   8  10   39.00    4.60
   7   8  10   36.40    3.40
  -8  -8 -10   90.39    5.70
  -8  -8 -10   75.09    5.30
   8   8  10   80.39    6.10
   8   8  10   80.49    4.90
   8   8  10   80.79    4.80
   8   8  10   80.19    6.10
  -9  -8 -10   64.49    5.00
  -9  -8 -10   62.99    4.80
  -9  -8 -10   75.49    5.40
   9   8  10   67.59    4.60
   9   8  10   64.69    5.70
   9   8  10   57.39    5.50
 -10  -8 -10   57.29    4.90
 -10  -8 -10   67.99    5.50
 -10  -8 -10   57.89    4.80
  10   8  10   62.59    5.90
  10   8  10   57.89    4.90
  10   8  10   60.49    6.20
 -11  -8 -10    5.10    2.90
 -11  -8 -10    2.90    2.80
  11   8  10   -0.60    3.10
  11   8  10    6.00    3.30
  11   8  10    1.00    2.20
   2  -9 -10    4.70    2.60
   2  -9 -10    2.80    2.30
  -2   9  10    6.00    2.50
  -2   9  10    4.00    2.80
   1  -9 -10    7.40    2.70
   1  -9 -10    4.50    2.00
  -1   9  10    6.00    2.60
   0  -9 -10   78.49    4.90
   0  -9 -10   71.99    5.20
   0   9  10   82.19    5.80
   0   9  10   78.59    5.20
  -1  -9 -10  537.45   19.10
  -1  -9 -10  556.64   19.20
  -1  -9 -10  521.75   19.90
   1   9  10  526.45   19.80
   1   9  10  550.74   20.30
  -2  -9 -10   92.59    4.70
  -2  -9 -10   79.89    5.30
  -2  -9 -10   85.79    5.00
   2   9  10   88.09    5.60
   2   9  10   83.39    5.70
  -3  -9 -10   15.10    1.90
  -3  -9 -10   11.60    2.50
  -3  -9 -10   14.70    2.40
   3   9  10   11.60    1.70
   3   9  10   12.80    2.70
   3   9  10   14.60    3.10
  -4  -9 -10  241.78   10.40
  -4  -9 -10  252.37   10.10
  -4  -9 -10  248.48   11.10
   4   9  10  242.98   10.50
   4   9  10  260.57    9.50
   4   9  10  241.58   10.90
  -5  -9 -10   19.90    2.70
  -5  -9 -10   18.70    2.90
   5   9  10   17.10    3.20
   5   9  10   16.50    2.30
   5   9  10   19.20    3.10
  -6  -9 -10   28.80    3.30
  -6  -9 -10   34.20    3.40
   6   9  10   28.00    4.00
   6   9  10   25.80    3.30
   6   9  10   24.20    2.80
  -7  -9 -10   43.60    4.00
  -7  -9 -10   45.30    4.10
   7   9  10   35.40    4.30
   7   9  10   46.60    4.00
   7   9  10   43.30    4.80
   7   9  10   47.30    3.90
  -8  -9 -10   56.29    4.70
  -8  -9 -10   58.39    4.80
   8   9  10   56.19    5.70
   8   9  10   61.29    4.40
   8   9  10   60.59    4.50
   8   9  10   52.29    5.30
  -9  -9 -10   10.30    2.80
  -9  -9 -10   11.90    2.70
   9   9  10   11.50    3.70
   9   9  10    8.70    3.30
   9   9  10    6.20    2.30
 -10  -9 -10   15.10    3.10
 -10  -9 -10   19.90    3.30
 -10  -9 -10   13.50    3.20
  10   9  10   18.70    4.00
  10   9  10   24.30    4.10
  10   9  10   18.40    2.90
 -11  -9 -10    3.10    2.60
 -11  -9 -10   -0.60    2.50
 -11  -9 -10    4.30    2.60
  11   9  10    2.20    2.10
  11   9  10   -3.20    2.70
  11   9  10   -0.80    3.10
   1 -10 -10    6.00    2.40
   1 -10 -10   10.90    2.80
  -1  10  10    9.30    3.00
  -1  10  10   11.30    3.10
   0 -10 -10    4.20    2.50
   0 -10 -10    3.40    2.00
   0  10  10    5.30    2.70
  -1 -10 -10   -2.10    1.50
  -1 -10 -10    0.80    1.60
  -1 -10 -10   -0.70    1.90
   1  10  10    0.80    1.70
   1  10  10    0.80    2.50
  -2 -10 -10    1.40    1.70
  -2 -10 -10    4.00    2.20
  -2 -10 -10    5.50    1.80
   2  10  10    3.80    2.00
   2  10  10    3.90    2.50
  -3 -10 -10   88.99    4.80
  -3 -10 -10   86.49    5.30
  -3 -10 -10   91.29    5.70
   3  10  10   88.39    6.00
   3  10  10   79.89    5.60
   3  10  10   87.69    4.30
  -4 -10 -10    0.60    1.30
  -4 -10 -10    1.00    1.70
  -4 -10 -10    0.50    1.90
   4  10  10    2.20    2.30
   4  10  10    0.70    1.50
   4  10  10    2.30    2.50
  -5 -10 -10    1.50    1.90
  -5 -10 -10    0.30    1.50
  -5 -10 -10    1.10    1.90
   5  10  10    7.70    2.50
   5  10  10    1.20    2.40
   5  10  10   -0.30    1.60
  -6 -10 -10   79.79    5.20
  -6 -10 -10   80.79    5.10
   6  10  10   67.29    5.80
   6  10  10   82.89    5.40
   6  10  10   78.89    4.70
  -7 -10 -10    4.00    2.30
  -7 -10 -10    5.00    2.20
   7  10  10    4.00    2.20
   7  10  10    3.60    2.10
   7  10  10    8.60    2.90
   7  10  10    6.50    3.10
  -8 -10 -10    8.70    2.50
  -8 -10 -10    7.90    2.40
   8  10  10    9.60    2.50
   8  10  10    5.00    3.00
   8  10  10   10.90    2.30
   8  10  10    8.40    3.40
  -9 -10 -10    9.30    2.60
   9  10  10   14.40    3.60
   9  10  10   11.00    2.60
   9  10  10    9.80    3.40
   9  10  10    8.10    3.60
 -10 -10 -10   -1.10    2.60
 -10 -10 -10    1.80    2.40
 -10 -10 -10    1.90    2.50
  10  10  10    3.00    3.00
  10  10  10   -1.60    1.90
  10  10  10   -0.30    3.10
 -11 -10 -10   -1.60    2.10
 -11 -10 -10   -2.20    2.30
  11  10  10    2.50    3.10
  11  10  10   -1.00    2.00
  11  10  10    0.70    3.40
   0 -11 -10   55.69    5.30
   0 -11 -10   65.09    5.10
   0  11  10   61.79    5.70
  -1 -11 -10   -0.60    1.70
  -1 -11 -10    0.00    2.00
   1  11  10   -1.10    2.50
  -2 -11 -10    7.50    2.50
  -2 -11 -10    7.70    2.30
  -2 -11 -10    7.80    2.10
   2  11  10    6.60    3.00
  -3 -11 -10   34.40    3.70
  -3 -11 -10   34.90    3.50
  -3 -11 -10   33.10    3.90
   3  11  10   35.00    3.90
   3  11  10   34.20    4.10
  -4 -11 -10   -0.10    2.00
  -4 -11 -10    5.20    1.80
  -4 -11 -10    4.50    2.10
   4  11  10    2.40    1.70
   4  11  10    3.10    2.30
   4  11  10    6.30    2.70
  -5 -11 -10   10.80    2.20
  -5 -11 -10    9.30    2.50
  -5 -11 -10   13.10    2.80
   5  11  10    5.70    2.70
   5  11  10   10.10    2.20
   5  11  10   11.60    2.80
  -6 -11 -10   -2.80    2.10
  -6 -11 -10    2.80    2.30
   6  11  10    3.40    2.40
   6  11  10    0.30    2.50
   6  11  10    0.50    1.90
  -7 -11 -10   62.39    5.20
  -7 -11 -10   63.39    4.80
   7  11  10   48.90    5.30
   7  11  10   77.79    5.30
   7  11  10   63.29    4.70
   7  11  10   64.79    5.60
  -8 -11 -10   15.30    3.10
  -8 -11 -10   18.70    3.10
   8  11  10   14.70    3.80
   8  11  10   19.90    3.10
   8  11  10   14.40    3.70
   8  11  10   17.20    3.00
  -9 -11 -10    8.10    2.70
  -9 -11 -10    2.70    2.30
   9  11  10    6.70    2.50
   9  11  10    3.00    3.00
   9  11  10    0.80    3.30
   9  11  10    7.90    2.40
 -10 -11 -10  189.78    9.50
 -10 -11 -10  204.48    9.60
  10  11  10  211.28   11.20
  10  11  10  162.78   10.40
  10  11  10  215.38    9.50
  -2 -12 -10   38.40    4.10
  -2 -12 -10   40.80    4.00
  -2 -12 -10   41.60    4.60
   2  12  10   37.50    4.60
  -3 -12 -10   10.80    2.30
  -3 -12 -10    5.70    2.40
  -3 -12 -10    9.50    2.60
   3  12  10    9.40    3.20
  -4 -12 -10    2.20    1.80
  -4 -12 -10    3.10    2.40
  -4 -12 -10   -5.10    1.90
   4  12  10    0.50    2.50
   4  12  10    2.70    1.80
   4  12  10    4.60    2.20
  -5 -12 -10   27.80    3.20
  -5 -12 -10   31.20    4.40
  -5 -12 -10   28.60    3.60
  -5 -12 -10   26.70    3.80
   5  12  10   22.30    2.80
   5  12  10   22.70    3.70
   5  12  10   28.60    3.90
  -6 -12 -10    5.20    2.60
  -6 -12 -10    1.70    2.20
   6  12  10    1.80    2.60
   6  12  10    4.30    2.10
   6  12  10    2.80    2.60
  -7 -12 -10   19.30    3.40
  -7 -12 -10   16.70    3.00
   7  12  10   11.60    3.50
   7  12  10   18.20    3.40
   7  12  10   17.90    2.90
   7  12  10   19.50    3.40
  -8 -12 -10    9.70    2.80
  -8 -12 -10   14.90    3.10
   8  12  10   14.60    3.60
   8  12  10   11.70    3.70
   8  12  10   17.70    3.10
   8  12  10   14.90    2.90
  -9 -12 -10   70.69    5.40
  -9 -12 -10   65.39    5.20
   9  12  10   52.79    6.10
   9  12  10   59.29    6.20
   9  12  10   70.59    5.40
   9  12  10   75.69    5.30
  -5 -13 -10    8.40    2.90
  -5 -13 -10    4.80    2.70
  -5 -13 -10    8.40    2.50
   5  13  10    6.50    3.20
   5  13  10    7.20    2.30
  -6 -13 -10    5.30    2.70
  -6 -13 -10    3.80    2.50
   6  13  10    0.80    2.60
   6  13  10    2.50    2.70
   6  13  10    1.50    2.20
  -7 -13 -10   -0.40    2.10
  -7 -13 -10    1.70    2.30
   7  13  10    3.00    2.40
   7  13  10    3.60    2.70
   7  13  10    1.40    2.70
   7  13  10    0.10    2.70
   1   3 -11   15.10    4.50
  -1  -3  11   12.30    3.60
  -1  -3  11   12.50    3.30
   0   3 -11    8.00    4.00
   0   3 -11    8.30    4.30
   0  -3  11    2.50    2.30
   0  -3  11    7.20    2.90
  -1   3 -11   64.79    5.40
  -1   3 -11   62.99    6.60
   1  -3  11   59.99    5.30
   1  -3  11   69.99    5.90
  -2   3 -11    8.70    3.80
   2  -3  11    9.20    2.80
   2  -3  11    9.90    2.90
   3   2 -11    7.50    3.70
  -3  -2  11    8.80    2.90
   2   2 -11   10.00    3.80
  -2  -2  11    8.20    3.40
  -2  -2  11    7.10    2.80
   1   2 -11    1.20    3.10
  -1  -2  11    2.60    2.70
  -1  -2  11    3.20    2.40
   0   2 -11  114.79    8.10
   0  -2  11  112.69    7.50
   0  -2  11  119.19    7.20
  -1   2 -11  106.09    6.20
  -1   2 -11   97.29    7.50
   1  -2  11  102.39    6.60
   1  -2  11  108.79    7.20
  -2   2 -11   48.70    5.60
  -2   2 -11   68.19    5.20
   2  -2  11   65.99    5.40
   2  -2  11   58.99    5.60
  -3   2 -11  281.07   13.40
  -3   2 -11  289.37   12.10
   3  -2  11  286.37   11.10
   3  -2  11  275.67   12.50
   3  -2  11  287.37   12.90
  -4   2 -11    1.10    2.70
  -4   2 -11   -4.80    3.10
   4  -2  11    0.80    2.30
   4  -2  11    2.80    2.60
   4  -2  11    0.00    1.70
   4   1 -11    5.80    3.50
   4   1 -11   13.10    4.00
  -4  -1  11   10.00    2.90
   3   1 -11   13.40    3.90
  -3  -1  11   13.80    3.20
  -3  -1  11   16.60    3.70
   2   1 -11    2.70    3.40
  -2  -1  11    2.10    2.70
  -2  -1  11    1.20    2.20
   1   1 -11    5.60    3.40
  -1  -1  11   10.90    3.00
  -1  -1  11    8.90    2.50
   0   1 -11   -0.90    2.70
   0  -1  11    0.70    2.10
   0  -1  11    0.10    2.50
  -1   1 -11    3.80    3.10
  -1   1 -11    1.20    2.00
   1  -1  11    2.80    2.80
   1  -1  11    1.20    2.10
  -2   1 -11   75.29    5.40
  -2   1 -11   80.09    7.00
   2  -1  11   83.89    6.50
   2  -1  11   84.39    5.80
  -3   1 -11   25.80    4.30
  -3   1 -11   37.90    4.10
   3  -1  11   39.30    3.30
   3  -1  11   44.00    4.70
   3  -1  11   49.80    5.10
  -4   1 -11    9.30    3.20
  -4   1 -11   15.00    3.20
   4  -1  11   15.00    2.40
   4  -1  11   14.70    3.20
   4  -1  11   21.20    3.50
  -5   1 -11   28.80    4.10
  -5   1 -11   27.30    4.40
   5  -1  11   29.10    4.10
   5  -1  11   30.60    4.20
   5  -1  11   39.10    3.80
  -6   1 -11   12.20    3.20
  -6   1 -11   10.30    3.40
   6  -1  11   17.70    3.40
   6  -1  11   11.80    2.60
   6  -1  11   13.10    3.20
   4   0 -11   -0.90    2.90
  -4   0  11    0.40    2.00
   3   0 -11   26.30    4.50
  -3   0  11   16.90    3.80
  -3   0  11   18.20    3.30
   2   0 -11   19.60    4.10
  -2   0  11   27.10    4.20
  -2   0  11   24.20    3.30
   1   0 -11    3.10    3.10
  -1   0  11    0.10    2.30
  -1   0  11    0.40    1.90
   0   0 -11   16.50    3.60
   0   0  11   15.20    3.00
   0   0  11   19.60    3.70
  -1   0 -11   16.40    2.60
  -1   0 -11   12.50    3.30
   1   0  11   11.10    2.50
   1   0  11   10.30    3.00
  -2   0 -11   33.60    3.40
  -2   0 -11   30.50    4.30
   2   0  11   37.80    4.60
   2   0  11   42.90    4.20
  -3   0 -11   10.60    2.70
  -3   0 -11   12.50    3.30
   3   0  11    9.00    1.80
   3   0  11   14.30    3.00
   3   0  11    8.50    2.80
  -4   0 -11    3.20    2.70
  -4   0 -11    7.40    2.80
   4   0  11    7.30    2.80
   4   0  11    8.40    2.50
   4   0  11    8.30    2.00
  -5   0 -11  107.59    6.40
  -5   0 -11   98.79    7.10
   5   0  11  108.39    6.90
   5   0  11  106.19    5.60
   5   0  11  104.09    6.60
  -6   0 -11   14.10    3.20
  -6   0 -11    9.00    2.90
   6   0  11   10.30    3.00
   6   0  11   15.40    3.10
   6   0  11   15.50    2.70
  -7   0 -11    9.10    3.10
   7   0  11   15.20    3.40
   7   0  11    9.40    2.50
   7   0  11   15.00    3.30
   4  -1 -11   -0.20    2.60
  -4   1  11   -1.10    3.00
  -4   1  11    1.30    2.10
   3  -1 -11   67.69    6.70
  -3   1  11   73.49    5.20
   2  -1 -11   18.40    4.00
  -2   1  11   17.20    3.50
  -2   1  11   19.70    3.10
   1  -1 -11   49.00    5.40
  -1   1  11   54.19    4.40
  -1   1  11   52.29    5.40
   0  -1 -11  207.58   10.40
   0   1  11  207.38    9.00
   0   1  11  180.38    9.70
  -1  -1 -11   11.40    3.40
  -1  -1 -11   14.80    2.30
   1   1  11   11.50    2.40
   1   1  11   19.70    3.70
  -2  -1 -11   34.80    3.40
  -2  -1 -11   29.40    4.30
   2   1  11   33.30    4.40
   2   1  11   31.00    3.40
  -3  -1 -11   66.79    4.80
  -3  -1 -11   68.49    5.90
   3   1  11   69.09    3.80
   3   1  11   62.09    5.40
   3   1  11   67.29    4.90
  -4  -1 -11    2.00    2.30
  -4  -1 -11    0.60    2.40
   4   1  11    0.60    2.30
   4   1  11    0.80    1.30
   4   1  11   -0.70    1.80
  -5  -1 -11   28.50    4.00
  -5  -1 -11   36.20    4.00
   5   1  11   32.80    4.30
   5   1  11   38.60    3.40
   5   1  11   36.00    3.90
  -6  -1 -11   38.70    4.40
  -6  -1 -11   41.70    4.30
   6   1  11   46.50    4.80
   6   1  11   31.00    3.80
   6   1  11   35.40    3.30
  -7  -1 -11    1.10    2.50
  -7  -1 -11   -3.10    2.40
   7   1  11    3.80    2.00
   7   1  11   -0.90    2.00
   7   1  11    3.00    2.50
  -8  -1 -11   24.50    4.00
   8   1  11   22.10    3.30
   8   1  11   16.90    3.40
   8   1  11   25.80    4.00
   4  -2 -11    4.80    3.00
  -4   2  11    4.50    3.20
  -4   2  11    8.20    2.50
   3  -2 -11   64.19    6.10
  -3   2  11   67.99    4.90
  -3   2  11   68.59    6.20
   2  -2 -11   14.30    3.50
  -2   2  11   18.50    3.70
  -2   2  11   18.20    2.90
   1  -2 -11   -3.10    2.40
  -1   2  11    1.60    2.60
  -1   2  11    0.90    1.70
   0  -2 -11  242.88   11.60
   0   2  11  243.78   10.00
   0   2  11  230.98   11.20
  -1  -2 -11    9.60    1.70
  -1  -2 -11    5.60    1.90
  -1  -2 -11    8.30    3.00
   1   2  11    8.80    2.20
   1   2  11   10.80    3.00
  -2  -2 -11   91.89    4.70
  -2  -2 -11  111.19    5.50
  -2  -2 -11  107.09    6.90
   2   2  11  108.39    5.60
   2   2  11   87.59    6.30
  -3  -2 -11    0.30    2.50
  -3  -2 -11    1.70    2.00
  -3  -2 -11   -0.90    1.30
   3   2  11    0.30    1.10
   3   2  11    1.10    1.70
   3   2  11    2.10    2.20
  -4  -2 -11   49.30    3.40
  -4  -2 -11   47.40    5.20
  -4  -2 -11   45.80    4.00
   4   2  11   44.00    4.80
   4   2  11   51.49    4.10
   4   2  11   49.50    3.40
  -5  -2 -11   30.70    3.40
  -5  -2 -11   26.10    3.80
  -5  -2 -11   30.90    3.00
   5   2  11   34.60    3.20
   5   2  11   34.40    4.20
   5   2  11   27.60    3.30
  -6  -2 -11   13.30    3.10
  -6  -2 -11   17.00    3.30
  -6  -2 -11   12.30    2.40
   6   2  11   17.00    3.00
   6   2  11   16.30    2.50
   6   2  11   18.10    3.50
  -7  -2 -11    2.80    2.70
  -7  -2 -11    4.60    2.60
  -7  -2 -11    7.80    2.30
   7   2  11   10.90    3.00
   7   2  11    9.90    2.30
   7   2  11    6.90    2.40
  -8  -2 -11    3.10    2.20
  -8  -2 -11    1.80    2.80
   8   2  11    0.00    2.30
   8   2  11   -1.10    1.70
   8   2  11    2.90    2.50
   9   2  11    0.20    2.10
   9   2  11    8.60    2.90
   9   2  11    0.40    2.40
   4  -3 -11    1.40    2.90
  -4   3  11    2.00    2.90
   3  -3 -11   13.60    2.40
   3  -3 -11   15.40    3.70
  -3   3  11    9.50    3.10
  -3   3  11   12.40    2.70
   2  -3 -11   34.60    4.90
   2  -3 -11   33.60    3.10
  -2   3  11   28.70    4.20
  -2   3  11   31.10    3.30
   1  -3 -11   79.09    6.60
   1  -3 -11   66.79    4.10
  -1   3  11   66.09    5.90
  -1   3  11   74.39    4.80
   0  -3 -11  193.88    7.90
   0  -3 -11  189.98    9.90
   0   3  11  192.68    8.30
   0   3  11  185.48    9.50
  -1  -3 -11   21.50    3.60
  -1  -3 -11   18.10    2.20
  -1  -3 -11   21.40    2.40
   1   3  11   15.40    2.30
   1   3  11   20.00    3.40
  -2  -3 -11    0.70    1.60
  -2  -3 -11   -0.50    1.30
  -2  -3 -11    1.80    2.50
   2   3  11    1.50    2.10
   2   3  11   -0.80    1.30
  -3  -3 -11  115.59    7.40
  -3  -3 -11  106.79    5.70
  -3  -3 -11  111.09    5.30
   3   3  11  110.89    4.70
   3   3  11  113.49    5.60
   3   3  11  103.39    6.70
  -4  -3 -11   16.70    2.20
  -4  -3 -11   16.60    3.40
  -4  -3 -11   17.80    2.70
   4   3  11   18.10    2.50
   4   3  11   18.40    2.10
   4   3  11   19.40    3.50
  -5  -3 -11    0.30    1.60
  -5  -3 -11    0.10    2.20
  -5  -3 -11    0.90    2.00
   5   3  11    4.40    2.00
   5   3  11   -0.10    2.10
   5   3  11    0.10    1.30
  -6  -3 -11  149.69    7.00
  -6  -3 -11  150.08    8.10
  -6  -3 -11  166.78    7.80
  -6  -3 -11  157.78    7.00
   6   3  11  156.68    7.00
   6   3  11  147.29    7.40
   6   3  11  139.09    8.10
  -7  -3 -11    7.70    2.60
  -7  -3 -11    7.70    2.60
  -7  -3 -11   10.50    2.50
   7   3  11    8.20    3.00
   7   3  11    7.40    2.20
   7   3  11    4.50    2.30
  -8  -3 -11    4.60    2.40
  -8  -3 -11   12.40    3.00
   8   3  11    7.70    3.00
   8   3  11   11.30    2.90
   8   3  11   14.40    2.70
  -9  -3 -11   13.20    3.40
  -9  -3 -11   16.60    3.00
   9   3  11   14.60    3.30
   9   3  11   11.00    2.50
   9   3  11    5.40    2.70
   4  -4 -11   25.40    3.30
   4  -4 -11   21.90    3.90
  -4   4  11   20.90    3.90
   3  -4 -11   73.99    4.90
  -3   4  11   73.89    6.10
   2  -4 -11   41.10    3.60
  -2   4  11   36.20    3.60
  -2   4  11   47.90    4.80
  -2   4  11   48.40    5.10
   1  -4 -11   31.20    3.10
  -1   4  11   32.10    4.00
  -1   4  11   26.70    4.00
  -1   4  11   24.50    2.80
   0  -4 -11   -1.00    1.30
   0   4  11    1.80    2.40
   0   4  11    0.10    1.40
   0   4  11   -0.30    2.10
  -1  -4 -11   11.20    2.10
  -1  -4 -11    6.70    1.80
   1   4  11   10.50    2.70
   1   4  11    9.00    1.80
   1   4  11   10.00    2.90
  -2  -4 -11   62.29    3.90
  -2  -4 -11   63.29    4.00
   2   4  11   56.39    3.70
   2   4  11   64.49    4.60
   2   4  11   55.79    5.10
  -3  -4 -11  110.89    5.30
  -3  -4 -11  101.99    5.40
   3   4  11   90.09    5.60
   3   4  11   99.79    5.00
   3   4  11   91.39    6.20
   3   4  11  100.89    4.30
  -4  -4 -11    8.10    2.20
  -4  -4 -11   10.40    2.10
   4   4  11   12.10    2.90
   4   4  11   10.40    2.00
   4   4  11   11.70    1.70
  -5  -4 -11  256.27   10.30
  -5  -4 -11  278.17   10.90
   5   4  11  259.27   10.00
   5   4  11  266.57   10.40
   5   4  11  250.17   11.50
  -6  -4 -11   16.00    2.60
  -6  -4 -11   11.00    2.80
  -6  -4 -11   11.90    3.00
   6   4  11   11.00    2.00
   6   4  11   13.00    2.20
   6   4  11   11.40    3.10
  -7  -4 -11    5.30    2.20
  -7  -4 -11    4.30    2.10
  -7  -4 -11    7.10    2.60
  -7  -4 -11    4.30    2.30
   7   4  11    7.40    1.90
   7   4  11   10.70    2.90
   7   4  11    5.40    2.00
  -8  -4 -11  261.47   11.00
  -8  -4 -11  254.47   10.60
  -8  -4 -11  271.27   11.10
   8   4  11  258.87   10.60
   8   4  11  242.98   11.60
   8   4  11  233.68   10.70
  -9  -4 -11   45.00    4.20
  -9  -4 -11   44.20    4.70
   9   4  11   40.90    4.50
   9   4  11   55.19    4.60
   9   4  11   57.19    5.50
 -10  -4 -11    7.70    3.10
 -10  -4 -11    6.90    2.80
  10   4  11    2.10    1.90
  10   4  11    3.10    2.80
   4  -5 -11   10.10    2.80
  -4   5  11   11.20    3.00
  -4   5  11    7.30    3.00
   3  -5 -11   84.69    5.60
  -3   5  11   79.69    6.30
  -3   5  11   83.69    6.00
   2  -5 -11   13.30    2.50
  -2   5  11   18.00    3.20
  -2   5  11    8.30    3.00
   1  -5 -11   68.09    4.60
  -1   5  11   65.79    5.70
  -1   5  11   73.59    5.40
   0  -5 -11    5.80    1.80
   0   5  11    6.70    2.60
   0   5  11    8.10    2.50
   0   5  11    3.50    1.50
  -1  -5 -11   43.00    3.50
   1   5  11   46.40    3.10
   1   5  11   39.50    4.20
   1   5  11   48.90    4.70
  -2  -5 -11   18.10    2.50
   2   5  11   28.80    3.90
   2   5  11   22.50    3.40
   2   5  11   22.10    2.20
  -3  -5 -11    8.70    2.20
  -3  -5 -11    8.00    1.80
   3   5  11   14.50    1.80
   3   5  11   10.00    2.60
   3   5  11    7.80    1.20
   3   5  11   10.20    2.80
  -4  -5 -11    0.70    1.80
  -4  -5 -11    0.80    1.70
   4   5  11    3.50    2.30
   4   5  11    1.20    1.10
   4   5  11    0.60    2.00
   4   5  11    0.70    1.10
  -5  -5 -11    2.50    1.90
  -5  -5 -11    1.00    1.90
   5   5  11    3.80    1.40
   5   5  11    2.00    1.40
   5   5  11    3.40    2.50
   5   5  11    7.90    2.20
  -6  -5 -11   10.90    2.50
  -6  -5 -11   12.30    2.30
   6   5  11    9.60    1.90
   6   5  11   12.50    2.10
   6   5  11   11.80    3.00
   6   5  11   11.20    2.30
  -7  -5 -11    1.20    1.90
  -7  -5 -11   -0.20    2.30
   7   5  11    0.40    1.60
   7   5  11    5.70    2.70
   7   5  11    2.80    1.70
  -8  -5 -11    4.10    2.30
  -8  -5 -11    5.50    2.50
  -8  -5 -11    6.20    2.90
  -8  -5 -11    6.30    2.60
   8   5  11   10.40    3.20
   8   5  11    6.30    2.20
   8   5  11    3.50    2.10
  -9  -5 -11   84.49    6.10
  -9  -5 -11   79.29    5.50
   9   5  11   72.39    5.20
   9   5  11   74.99    6.40
 -10  -5 -11   -0.50    2.50
 -10  -5 -11   -5.70    2.20
  10   5  11   -1.80    2.00
  10   5  11    1.40    2.90
   3  -6 -11   31.20    3.90
  -3   6  11   33.10    4.20
  -3   6  11   32.10    4.10
   2  -6 -11    5.00    2.30
  -2   6  11    5.90    2.80
  -2   6  11    5.80    2.80
   1  -6 -11   25.70    3.30
  -1   6  11   32.00    4.10
  -1   6  11   26.60    3.80
   0  -6 -11  247.08   10.10
   0   6  11  224.38   10.80
   0   6  11  238.68   10.60
  -1  -6 -11  109.39    5.90
  -1  -6 -11  131.19    6.60
   1   6  11  120.09    7.10
   1   6  11  115.99    6.80
  -2  -6 -11   10.60    2.10
  -2  -6 -11   16.60    2.40
   2   6  11   14.00    2.80
   2   6  11   15.90    3.10
  -3  -6 -11  151.08    6.80
  -3  -6 -11  137.69    6.40
   3   6  11  134.59    7.50
   3   6  11  134.69    7.10
   3   6  11  139.99    5.40
  -4  -6 -11   32.80    3.30
   4   6  11   26.30    2.40
   4   6  11   34.40    4.20
   4   6  11   33.10    2.70
   4   6  11   33.20    3.70
  -5  -6 -11    0.70    1.90
  -5  -6 -11    1.10    2.00
   5   6  11   -0.40    1.30
   5   6  11   -0.50    2.00
   5   6  11    1.60    1.00
   5   6  11   -2.20    1.80
  -6  -6 -11    2.40    2.10
  -6  -6 -11    0.50    1.90
   6   6  11    1.40    1.80
   6   6  11    3.10    2.50
   6   6  11    3.40    1.50
   6   6  11    2.50    1.30
  -7  -6 -11    6.30    2.10
  -7  -6 -11    8.20    2.50
   7   6  11   10.20    2.20
   7   6  11   13.40    2.30
   7   6  11    7.70    3.00
   7   6  11   11.20    2.00
  -8  -6 -11    9.90    2.90
  -8  -6 -11    6.40    2.60
  -8  -6 -11    8.10    2.50
   8   6  11    9.50    3.20
   8   6  11    6.90    2.10
   8   6  11    5.00    1.90
  -9  -6 -11   12.60    3.00
  -9  -6 -11   11.90    2.80
  -9  -6 -11   10.90    2.90
   9   6  11   12.00    3.50
   9   6  11    8.20    2.30
 -10  -6 -11    3.80    2.60
 -10  -6 -11   -0.70    2.40
  10   6  11    1.80    2.20
  10   6  11    7.10    3.30
   3  -7 -11    7.20    2.80
  -3   7  11   12.70    3.40
   2  -7 -11    3.30    2.10
  -2   7  11    4.80    2.50
  -2   7  11    4.50    2.70
   1  -7 -11   35.00    4.00
  -1   7  11   44.40    4.60
  -1   7  11   45.70    4.90
   0  -7 -11   96.09    6.00
   0   7  11   97.79    6.20
   0   7  11  105.19    6.50
  -1  -7 -11    7.10    2.40
   1   7  11   10.90    2.70
   1   7  11   13.70    3.10
  -2  -7 -11  202.98    9.00
  -2  -7 -11  216.18    8.60
   2   7  11  205.08    9.80
   2   7  11  209.68    9.60
  -3  -7 -11   20.20    2.60
  -3  -7 -11   20.30    2.90
   3   7  11   19.80    3.40
   3   7  11   25.60    3.50
   3   7  11   18.90    1.70
  -4  -7 -11  103.99    5.60
  -4  -7 -11   97.89    5.80
   4   7  11  110.49    4.80
   4   7  11  107.79    6.20
   4   7  11  104.59    6.60
  -5  -7 -11    2.70    1.70
  -5  -7 -11    3.50    2.00
   5   7  11    0.70    1.40
   5   7  11    4.80    2.20
   5   7  11    2.20    2.30
  -6  -7 -11   89.39    5.60
  -6  -7 -11   89.39    5.30
   6   7  11   76.79    6.10
   6   7  11   82.59    4.60
   6   7  11   88.19    5.30
  -7  -7 -11   10.20    2.60
  -7  -7 -11   12.40    2.70
   7   7  11   12.90    3.10
   7   7  11   12.80    2.50
   7   7  11    8.20    1.90
  -8  -7 -11    5.50    2.30
  -8  -7 -11    6.60    2.80
   8   7  11    9.20    2.30
   8   7  11    9.60    3.30
   8   7  11   11.50    3.20
  -9  -7 -11    0.60    2.30
  -9  -7 -11    0.40    2.10
  -9  -7 -11   -0.90    2.40
   9   7  11    0.30    1.90
   9   7  11    4.00    2.90
 -10  -7 -11   15.90    3.00
 -10  -7 -11   11.50    3.10
 -10  -7 -11   14.40    3.40
  10   7  11   11.00    2.70
  10   7  11    7.60    3.40
   2  -8 -11    5.80    2.50
  -2   8  11    8.10    3.00
   1  -8 -11   10.80    2.70
  -1   8  11   16.60    3.30
  -1   8  11   10.80    2.90
   0  -8 -11   -0.20    2.00
   0   8  11    1.30    2.10
   0   8  11    1.10    2.30
  -1  -8 -11    0.00    2.00
   1   8  11   -1.50    2.20
   1   8  11   -1.30    1.90
  -2  -8 -11   48.80    4.30
  -2  -8 -11   38.90    3.60
   2   8  11   52.09    4.50
   2   8  11   44.30    4.50
  -3  -8 -11   11.90    2.50
  -3  -8 -11   15.90    2.40
   3   8  11   16.90    3.30
   3   8  11    9.70    2.80
  -4  -8 -11   -0.90    1.60
  -4  -8 -11   -0.60    1.80
   4   8  11   -0.20    1.10
   4   8  11    1.50    2.30
   4   8  11    0.80    2.30
  -5  -8 -11    5.30    2.00
  -5  -8 -11    8.90    2.40
   5   8  11    4.30    1.60
   5   8  11    9.20    3.00
   5   8  11    7.10    2.30
  -6  -8 -11  409.46   15.60
  -6  -8 -11  411.96   15.50
   6   8  11  396.86   14.80
   6   8  11  389.36   16.40
   6   8  11  425.46   15.60
  -7  -8 -11  184.38    8.50
   7   8  11  174.78    9.40
   7   8  11  191.18    8.10
   7   8  11  176.78    8.20
  -8  -8 -11   -0.40    1.90
  -8  -8 -11    1.00    2.20
   8   8  11    1.20    2.60
   8   8  11   -1.70    1.80
   8   8  11    2.60    1.90
  -9  -8 -11   13.20    2.90
  -9  -8 -11   11.70    3.00
  -9  -8 -11   19.10    3.50
   9   8  11   12.30    2.50
   9   8  11   21.40    4.10
 -10  -8 -11    0.30    2.50
 -10  -8 -11   -2.10    2.10
 -10  -8 -11    1.30    2.70
  10   8  11   -1.50    2.70
  10   8  11   -1.50    1.80
   1  -9 -11    1.40    2.30
  -1   9  11    4.80    2.70
   0  -9 -11  145.59    8.10
   0   9  11  166.08    8.60
   0   9  11  161.38    8.10
  -1  -9 -11    7.90    2.70
   1   9  11    9.60    2.60
   1   9  11    9.90    2.80
  -2  -9 -11    7.40    2.00
  -2  -9 -11    4.30    2.10
   2   9  11    4.90    2.30
   2   9  11    7.60    2.80
  -3  -9 -11   26.90    3.00
  -3  -9 -11   23.20    3.20
   3   9  11   26.30    3.80
   3   9  11   26.50    3.70
  -4  -9 -11    3.10    2.00
  -4  -9 -11   -0.50    1.70
   4   9  11    2.30    1.40
   4   9  11    2.80    2.40
   4   9  11    0.70    2.10
  -5  -9 -11   79.79    5.50
  -5  -9 -11   87.09    5.40
   5   9  11   83.99    4.60
   5   9  11   85.09    6.20
   5   9  11   86.79    5.50
  -6  -9 -11  104.39    5.90
  -6  -9 -11   88.79    5.80
   6   9  11   83.69    6.60
   6   9  11   90.69    5.00
   6   9  11   93.29    5.80
  -7  -9 -11   28.90    3.50
  -7  -9 -11   27.00    3.40
   7   9  11   23.30    4.00
   7   9  11   24.60    3.00
   7   9  11   34.70    3.60
  -8  -9 -11   35.70    3.90
   8   9  11   46.10    4.10
   8   9  11   42.50    3.90
   8   9  11   35.10    4.60
  -9  -9 -11   23.60    3.40
  -9  -9 -11   25.70    3.90
   9   9  11   27.10    4.50
   9   9  11   23.00    3.30
 -10  -9 -11    4.60    2.50
 -10  -9 -11    3.30    2.80
 -10  -9 -11    2.20    2.70
  10   9  11    3.60    2.40
  10   9  11    4.90    3.40
   0 -10 -11    6.80    2.60
   0  10  11    8.00    3.00
  -1 -10 -11  110.89    7.00
   1  10  11  114.49    7.10
   1  10  11  138.29   10.00
  -2 -10 -11   -0.50    2.20
  -2 -10 -11    0.00    1.80
   2  10  11    2.70    2.60
   2  10  11    3.90    2.20
  -3 -10 -11    2.60    2.00
  -3 -10 -11   -1.30    2.00
   3  10  11    2.30    2.50
   3  10  11    1.20    2.00
  -4 -10 -11    1.20    1.80
  -4 -10 -11    1.30    2.20
   4  10  11    2.80    2.30
   4  10  11    3.20    1.50
   4  10  11    0.90    2.50
  -5 -10 -11    2.50    2.10
  -5 -10 -11    4.40    2.20
   5  10  11    1.50    2.50
   5  10  11    2.90    2.40
   5  10  11   -0.40    1.50
  -6 -10 -11    8.50    2.60
  -6 -10 -11    6.60    2.30
   6  10  11    9.00    2.10
   6  10  11    9.00    2.80
   6  10  11   10.80    3.40
  -7 -10 -11    7.30    2.50
  -7 -10 -11    7.80    2.60
   7  10  11    2.30    2.70
   7  10  11    8.30    2.20
   7  10  11    5.50    2.50
  -8 -10 -11    8.70    2.80
  -8 -10 -11   13.60    3.00
   8  10  11   11.60    3.40
   8  10  11   10.10    2.60
   8  10  11   15.40    2.70
  -9 -10 -11    9.80    2.70
   9  10  11    9.20    2.50
   9  10  11   10.70    4.00
   9  10  11    9.10    3.40
 -10 -10 -11    1.80    2.50
 -10 -10 -11    3.20    2.50
 -10 -10 -11    1.40    2.60
  10  10  11   -1.30    2.80
  10  10  11    0.40    2.30
  10  10  11   -0.60    2.80
  -1 -11 -11    9.80    2.80
   1  11  11   12.60    3.20
  -2 -11 -11   10.80    2.90
   2  11  11    9.10    3.10
  -3 -11 -11   68.79    5.30
  -3 -11 -11   73.89    5.20
   3  11  11   79.19    6.10
   3  11  11   80.39    5.60
  -4 -11 -11   23.70    3.30
  -4 -11 -11   20.40    3.60
   4  11  11   23.90    3.60
   4  11  11   24.10    4.00
  -5 -11 -11   41.90    4.10
  -5 -11 -11   37.60    4.10
   5  11  11   46.00    4.60
   5  11  11   34.10    3.20
   5  11  11   42.80    4.80
  -6 -11 -11    2.00    2.20
  -6 -11 -11   -0.50    1.90
   6  11  11    0.80    2.30
   6  11  11    1.80    2.80
   6  11  11   -2.10    1.70
  -7 -11 -11   -1.10    2.40
  -7 -11 -11   -2.50    2.00
   7  11  11    1.40    2.80
   7  11  11   -1.50    1.80
   7  11  11   -0.70    2.40
  -8 -11 -11    1.60    2.60
  -8 -11 -11    4.10    2.60
   8  11  11    4.50    3.30
   8  11  11    3.70    2.10
   8  11  11    4.30    2.40
  -9 -11 -11   -0.30    2.10
  -9 -11 -11    0.20    2.10
   9  11  11   -0.90    2.70
   9  11  11    0.60    3.00
   9  11  11   -1.60    2.10
  -3 -12 -11  108.09    6.80
  -3 -12 -11  123.79    6.90
   3  12  11  112.59    7.50
  -4 -12 -11   17.60    3.10
  -4 -12 -11   14.10    3.30
   4  12  11   19.80    3.30
   4  12  11   13.50    3.40
  -5 -12 -11   71.39    5.30
  -5 -12 -11   63.69    5.30
   5  12  11   71.59    4.60
   5  12  11   77.89    6.10
   5  12  11   77.69    5.90
  -6 -12 -11   52.09    5.00
  -6 -12 -11   57.09    4.90
   6  12  11   66.29    5.80
   6  12  11   60.09    4.30
   6  12  11   60.89    5.40
  -7 -12 -11   -2.70    2.30
  -7 -12 -11    1.60    2.40
   7  12  11    1.30    2.50
   7  12  11    2.60    2.80
   7  12  11   -0.40    1.90
  -8 -12 -11   30.50    3.90
  -8 -12 -11   25.70    3.80
   8  12  11   28.70    3.50
   8  12  11   35.70    4.00
   8  12  11   28.50    4.60
   1   1 -12   67.09    7.30
  -1  -1  12   61.39    5.60
  -1  -1  12   60.89    6.00
   0   1 -12    5.70    3.70
   0  -1  12    2.80    2.40
   0  -1  12    7.50    3.10
  -1   1 -12  106.19    8.10
   1  -1  12  117.49    7.10
   1  -1  12  117.69    7.90
  -2   1 -12   -0.50    2.40
  -2   1 -12    0.00    3.50
   2  -1  12   -1.70    2.60
   2  -1  12    0.70    2.20
  -3   1 -12    0.70    2.50
  -3   1 -12   -6.50    3.00
   3  -1  12    3.40    2.50
   3  -1  12    1.90    2.70
   2   0 -12   -3.80    3.20
  -2   0  12    1.00    2.20
  -2   0  12    2.70    2.90
   1   0 -12    8.50    3.60
  -1   0  12   17.80    3.70
  -1   0  12   17.50    3.20
   0   0 -12    0.10    3.30
   0   0  12    3.00    2.40
   0   0  12   -1.70    2.80
  -1   0 -12    1.60    3.10
   1   0  12    4.80    2.40
   1   0  12    0.80    2.80
  -2   0 -12   85.19    5.60
  -2   0 -12   74.69    7.00
   2   0  12   83.09    5.80
   2   0  12   68.09    6.30
  -3   0 -12   62.69    5.30
  -3   0 -12   66.39    6.60
   3   0  12   74.69    5.50
   3   0  12   61.99    5.90
  -4   0 -12   13.70    3.20
  -4   0 -12   12.70    3.60
   4   0  12   20.00    3.40
   4   0  12   13.00    2.30
   4   0  12   17.70    3.60
  -5   0 -12   72.99    6.00
  -5   0 -12   70.69    6.50
   5   0  12   76.79    5.80
   5   0  12   76.69    6.30
   5   0  12   67.49    4.80
   3  -1 -12    4.50    3.40
  -3   1  12    3.50    2.20
  -3   1  12    1.00    3.00
   2  -1 -12   21.90    4.40
  -2   1  12   19.30    3.80
  -2   1  12   25.00    3.60
   1  -1 -12   32.10    4.70
  -1   1  12   32.00    4.70
  -1   1  12   30.60    3.80
   0  -1 -12   23.10    4.30
   0   1  12   17.90    3.00
   0   1  12   26.80    4.40
  -1  -1 -12   98.39    7.30
   1   1  12   94.09    7.20
   1   1  12  111.89    6.30
  -2  -1 -12   73.39    6.50
  -2  -1 -12   85.29    5.40
   2   1  12   81.89    6.40
   2   1  12   91.09    5.60
  -3  -1 -12    4.40    3.00
  -3  -1 -12    3.30    2.50
   3   1  12    8.40    3.10
   3   1  12    6.00    2.30
  -4  -1 -12  144.59    7.60
  -4  -1 -12  139.69    8.60
   4   1  12  145.39    6.60
   4   1  12  145.29    8.50
   4   1  12  144.79    7.70
  -5  -1 -12   71.39    5.30
  -5  -1 -12   80.29    6.50
   5   1  12   64.89    6.00
   5   1  12   82.89    4.70
  -6  -1 -12    0.70    2.80
  -6  -1 -12    7.00    2.90
   6   1  12    9.30    2.30
   6   1  12    2.10    2.60
   6   1  12    9.30    2.80
   3  -2 -12   41.10    5.50
  -3   2  12   33.40    3.90
  -3   2  12   35.90    5.20
   2  -2 -12    0.40    3.00
  -2   2  12    2.70    2.80
  -2   2  12    1.10    1.90
   1  -2 -12   -1.80    3.00
  -1   2  12    2.10    2.00
  -1   2  12    2.10    3.00
   0  -2 -12   -1.20    2.80
   0   2  12    4.30    2.00
   0   2  12    4.80    2.80
  -1  -2 -12    6.30    3.00
   1   2  12    9.50    2.30
   1   2  12   13.20    3.40
  -2  -2 -12   19.40    3.80
  -2  -2 -12   18.20    2.80
   2   2  12   19.30    2.80
   2   2  12   27.70    4.20
  -3  -2 -12   35.30    4.80
  -3  -2 -12   36.60    3.70
   3   2  12   32.10    4.30
   3   2  12   40.70    3.90
  -4  -2 -12   19.30    3.90
  -4  -2 -12   26.10    3.50
   4   2  12   24.50    4.20
   4   2  12   20.30    3.00
   4   2  12   25.60    2.50
  -5  -2 -12    2.60    2.50
  -5  -2 -12    1.80    2.80
   5   2  12    0.10    1.50
   5   2  12    2.10    2.70
   5   2  12    1.40    1.90
  -6  -2 -12   26.00    3.80
  -6  -2 -12   29.00    4.00
   6   2  12   31.10    3.20
   6   2  12   27.70    3.60
   6   2  12   27.80    4.20
  -7  -2 -12   54.19    5.10
  -7  -2 -12   49.50    5.20
   7   2  12   49.10    4.20
   7   2  12   45.90    4.70
   7   2  12   48.30    5.30
   3  -3 -12   33.30    4.90
  -3   3  12   35.90    3.90
  -3   3  12   44.20    5.60
   2  -3 -12   55.49    6.00
  -2   3  12   43.80    4.20
  -2   3  12   37.70    4.80
   1  -3 -12   64.69    6.30
  -1   3  12   73.19    5.00
  -1   3  12   69.69    6.30
   0  -3 -12   11.60    3.70
   0   3  12   11.40    2.30
   0   3  12   14.40    3.40
  -1  -3 -12   38.80    4.90
   1   3  12   36.40    3.60
   1   3  12   35.40    4.60
  -2  -3 -12   19.70    3.90
  -2  -3 -12   26.70    3.00
  -2  -3 -12   25.10    3.00
   2   3  12   26.40    4.10
   2   3  12   30.20    3.20
  -3  -3 -12    2.20    1.60
  -3  -3 -12   -0.50    2.60
  -3  -3 -12    2.70    2.20
   3   3  12    2.50    1.70
   3   3  12    2.70    2.60
  -4  -3 -12   55.29    4.60
  -4  -3 -12   51.39    3.80
  -4  -3 -12   49.40    5.30
   4   3  12   48.20    5.10
   4   3  12   54.99    4.20
   4   3  12   53.19    3.30
  -5  -3 -12   24.60    3.40
  -5  -3 -12   26.30    2.80
  -5  -3 -12   22.70    3.90
   5   3  12   24.60    2.60
   5   3  12   25.80    3.90
   5   3  12   16.60    2.70
  -6  -3 -12    6.90    2.80
  -6  -3 -12   13.10    2.50
  -6  -3 -12   11.00    3.10
   6   3  12    7.60    3.00
   6   3  12    6.10    1.90
   6   3  12    8.80    2.50
  -7  -3 -12   54.79    5.20
  -7  -3 -12   55.69    4.40
  -7  -3 -12   59.29    5.40
   7   3  12   58.29    4.30
   7   3  12   59.59    4.80
   7   3  12   58.79    5.50
  -8  -3 -12   31.70    3.70
  -8  -3 -12   36.10    4.40
   8   3  12   34.40    4.60
   8   3  12   30.80    3.80
   8   3  12   31.20    3.50
   3  -4 -12   12.20    3.70
  -3   4  12    6.20    3.00
   2  -4 -12   65.19    4.70
   2  -4 -12   74.69    6.90
  -2   4  12   58.89    6.00
   1  -4 -12   97.09    5.50
   1  -4 -12  118.59    7.80
  -1   4  12  114.79    6.00
  -1   4  12  105.79    7.50
   0  -4 -12   20.50    2.60
   0   4  12   16.50    2.60
   0   4  12   22.80    4.00
  -1  -4 -12  231.38    9.20
   1   4  12  218.08   10.90
   1   4  12  222.48    9.20
  -2  -4 -12   22.30    2.60
  -2  -4 -12   26.20    2.90
   2   4  12   25.40    2.80
   2   4  12   25.70    3.90
  -3  -4 -12   27.50    3.10
  -3  -4 -12   24.70    2.80
  -3  -4 -12   21.30    3.90
   3   4  12   25.60    3.80
   3   4  12   21.60    2.60
  -4  -4 -12   87.69    5.20
  -4  -4 -12  112.59    7.40
  -4  -4 -12  104.09    5.80
   4   4  12  101.59    5.40
   4   4  12  103.09    4.70
   4   4  12   96.49    6.40
  -5  -4 -12   47.00    5.10
  -5  -4 -12   40.50    4.10
  -5  -4 -12   40.20    3.70
   5   4  12   44.90    5.10
   5   4  12   46.00    3.30
   5   4  12   44.20    3.80
  -6  -4 -12   52.49    4.10
  -6  -4 -12   47.80    4.50
  -6  -4 -12   64.89    5.60
   6   4  12   48.90    4.10
   6   4  12   50.79    5.30
   6   4  12   46.30    3.80
  -7  -4 -12    3.70    2.20
  -7  -4 -12    7.70    2.80
  -7  -4 -12    7.00    2.30
  -7  -4 -12    5.30    2.70
   7   4  12    3.80    1.90
   7   4  12    6.00    2.20
   7   4  12    8.50    3.10
  -8  -4 -12    1.90    2.40
  -8  -4 -12   -0.20    2.60
   8   4  12    1.80    2.80
   8   4  12    0.70    1.90
   8   4  12    1.80    2.00
  -9  -4 -12    4.10    2.70
   9   4  12    1.20    2.00
   9   4  12    0.70    2.20
   9   4  12    6.90    3.00
   2  -5 -12   13.80    2.60
  -2   5  12   19.30    3.80
  -2   5  12   20.50    3.50
   1  -5 -12   10.10    2.20
  -1   5  12   10.00    3.20
  -1   5  12    6.70    2.80
   0  -5 -12   14.40    2.50
   0   5  12   10.90    3.10
   0   5  12   12.90    3.20
  -1  -5 -12  119.99    6.10
   1   5  12  118.09    7.60
   1   5  12  122.59    7.10
  -2  -5 -12   12.10    2.30
  -2  -5 -12    5.00    2.00
   2   5  12    5.80    2.80
   2   5  12    9.10    2.90
  -3  -5 -12   12.40    2.40
  -3  -5 -12   11.10    2.20
   3   5  12   11.20    2.70
   3   5  12    9.40    3.00
   3   5  12   12.00    1.90
  -4  -5 -12    0.20    1.70
  -4  -5 -12    0.20    2.00
   4   5  12    2.40    2.30
   4   5  12   -2.70    2.00
   4   5  12    0.20    1.10
   4   5  12    0.80    1.20
  -5  -5 -12   17.10    2.70
  -5  -5 -12   15.60    2.80
   5   5  12   15.90    2.20
   5   5  12   13.60    3.30
   5   5  12   16.70    2.10
  -6  -5 -12   18.30    3.20
  -6  -5 -12   11.80    2.50
   6   5  12   16.70    3.70
   6   5  12   13.00    2.20
   6   5  12   15.20    2.30
  -7  -5 -12    2.20    2.50
  -7  -5 -12    0.70    2.30
  -7  -5 -12    3.20    2.20
   7   5  12    0.50    1.70
   7   5  12    2.60    1.70
   7   5  12    2.90    2.60
  -8  -5 -12   17.80    3.10
  -8  -5 -12   22.80    3.30
  -8  -5 -12   15.30    3.10
  -8  -5 -12   18.70    3.50
   8   5  12   24.70    4.10
   8   5  12   18.30    2.70
   8   5  12   12.60    2.60
  -9  -5 -12    6.60    2.90
  -9  -5 -12    6.60    2.70
   9   5  12    4.80    2.30
   9   5  12    7.50    3.10
   9   5  12    7.20    2.40
   2  -6 -12   12.20    2.70
  -2   6  12   16.90    3.40
  -2   6  12   13.50    3.30
   1  -6 -12    1.50    1.90
  -1   6  12    5.20    2.60
  -1   6  12   -2.00    2.50
   0  -6 -12   15.90    2.70
   0   6  12   16.20    3.50
   0   6  12   15.70    3.30
  -1  -6 -12    5.20    2.10
   1   6  12    6.30    2.60
   1   6  12    4.80    2.70
  -2  -6 -12   42.80    3.90
   2   6  12   49.10    4.50
   2   6  12   44.20    5.00
  -3  -6 -12   -0.30    1.80
  -3  -6 -12    2.90    1.90
   3   6  12   -0.10    2.30
   3   6  12    1.10    2.50
  -4  -6 -12   68.09    4.40
  -4  -6 -12   59.39    4.40
   4   6  12   58.99    5.40
   4   6  12   64.39    3.40
   4   6  12   70.39    5.10
  -5  -6 -12   61.29    4.70
  -5  -6 -12   61.99    4.60
   5   6  12   64.29    3.70
   5   6  12   63.59    4.80
   5   6  12   62.79    5.50
  -6  -6 -12    0.70    1.80
  -6  -6 -12    0.30    2.00
   6   6  12    0.20    1.50
   6   6  12    0.40    2.40
   6   6  12   -0.40    2.00
  -7  -6 -12   68.39    5.00
  -7  -6 -12   72.19    5.50
   7   6  12   70.29    4.50
   7   6  12   71.39    5.80
  -8  -6 -12    4.50    2.40
  -8  -6 -12    2.20    2.50
  -8  -6 -12    1.00    2.60
   8   6  12    3.30    1.90
   8   6  12    1.00    2.80
  -9  -6 -12   12.40    3.30
  -9  -6 -12   22.90    3.80
  -9  -6 -12   14.80    2.90
   9   6  12   21.10    4.00
   9   6  12   21.00    3.10
  -2   7  12    3.10    2.70
   1  -7 -12   11.60    2.90
  -1   7  12    9.70    3.10
  -1   7  12   12.90    3.40
   0  -7 -12    6.60    2.50
   0   7  12    5.80    2.90
   0   7  12    5.50    2.70
  -1  -7 -12    2.50    1.90
   1   7  12    1.10    2.50
   1   7  12    1.40    2.60
  -2  -7 -12   15.90    2.80
   2   7  12   19.20    3.70
   2   7  12   16.30    3.30
  -3  -7 -12  354.36   13.40
  -3  -7 -12  349.57   13.60
   3   7  12  338.87   14.20
   3   7  12  369.46   15.00
  -4  -7 -12  205.38    9.10
   4   7  12  223.48    9.90
   4   7  12  205.08   10.30
  -5  -7 -12   40.90    4.00
  -5  -7 -12   51.89    4.40
   5   7  12   50.99    3.30
   5   7  12   38.20    4.70
   5   7  12   58.59    4.80
  -6  -7 -12   45.40    4.30
  -6  -7 -12   46.60    4.40
   6   7  12   44.20    5.20
   6   7  12   44.70    4.30
   6   7  12   41.90    3.30
  -7  -7 -12   75.79    5.40
  -7  -7 -12   90.09    5.90
   7   7  12   82.59    5.20
   7   7  12   76.99    6.40
   7   7  12   83.09    4.90
  -8  -7 -12   -3.30    2.00
  -8  -7 -12    3.40    2.70
   8   7  12    2.90    2.60
   8   7  12    2.50    1.70
  -9  -7 -12   38.10    4.30
  -9  -7 -12   32.30    4.00
  -9  -7 -12   31.00    3.90
   9   7  12   29.80    4.50
   9   7  12   26.40    3.30
   1  -8 -12   -1.20    2.30
  -1   8  12   -2.30    2.20
  -1   8  12    2.20    2.50
   0  -8 -12   -2.40    1.80
   0   8  12    4.60    2.60
   0   8  12   -0.40    2.30
  -1  -8 -12    3.80    2.20
   1   8  12    4.50    2.60
   1   8  12    1.70    2.60
  -2  -8 -12   27.20    3.40
   2   8  12   27.20    4.10
   2   8  12   26.00    3.80
  -3  -8 -12    3.80    2.20
  -3  -8 -12    4.70    2.10
   3   8  12    6.80    2.60
   3   8  12    6.50    2.90
  -4  -8 -12   32.50    3.60
  -4  -8 -12   36.00    3.60
   4   8  12   35.60    4.10
   4   8  12   37.80    4.50
  -5  -8 -12   17.50    2.90
  -5  -8 -12   15.60    2.60
   5   8  12   19.50    3.70
   5   8  12   12.60    1.90
   5   8  12   15.20    3.00
  -6  -8 -12    9.20    2.40
   6   8  12    9.60    2.70
   6   8  12    7.60    3.00
   6   8  12    5.50    1.80
  -7  -8 -12    8.70    2.50
  -7  -8 -12    8.80    2.70
   7   8  12   14.10    2.80
   7   8  12   10.00    3.40
   7   8  12    8.80    2.10
  -8  -8 -12   21.70    3.20
  -8  -8 -12   24.90    3.60
   8   8  12   21.50    2.80
   8   8  12   18.50    3.90
  -9  -8 -12   -1.30    2.30
  -9  -8 -12   -1.20    2.60
  -9  -8 -12    0.60    2.50
   9   8  12    2.70    2.90
   9   8  12    0.20    1.70
   0  -9 -12    3.80    2.50
   0   9  12    4.50    2.70
   0   9  12    6.00    2.50
  -1  -9 -12    8.30    2.70
   1   9  12    7.20    2.90
   1   9  12    6.50    2.50
  -2  -9 -12   57.69    5.10
   2   9  12   66.79    5.50
   2   9  12   64.89    5.30
  -3  -9 -12   -2.10    1.70
  -3  -9 -12    0.90    2.20
   3   9  12    0.50    2.30
   3   9  12    2.00    2.40
  -4  -9 -12   20.00    3.00
  -4  -9 -12   28.30    3.50
   4   9  12   27.50    4.20
   4   9  12   14.50    3.30
  -5  -9 -12    4.40    2.20
  -5  -9 -12    3.60    2.20
   5   9  12    0.10    1.40
   5   9  12    2.10    2.20
   5   9  12    3.10    2.70
  -6  -9 -12    7.60    2.50
  -6  -9 -12    7.10    2.60
   6   9  12   11.20    2.80
   6   9  12    7.90    1.90
   6   9  12   10.00    3.30
  -7  -9 -12   27.70    3.60
   7   9  12   23.40    4.10
   7   9  12   27.70    3.00
   7   9  12   31.50    3.80
  -8  -9 -12   24.70    3.60
  -8  -9 -12   24.40    3.60
   8   9  12   20.70    4.10
   8   9  12   24.00    3.30
   8   9  12   21.90    2.90
  -9  -9 -12    2.30    2.90
  -9  -9 -12    2.10    2.60
   9   9  12    2.40    3.00
   9   9  12    5.60    2.20
  -1 -10 -12  135.29    7.60
   1  10  12  140.89    8.20
  -2 -10 -12   22.40    3.50
   2  10  12   27.30    3.80
   2  10  12   27.00    4.10
  -3 -10 -12   21.70    3.40
  -3 -10 -12   22.20    3.30
   3  10  12   23.60    4.00
   3  10  12   18.20    3.40
  -4 -10 -12   56.99    4.60
  -4 -10 -12   54.79    4.90
   4  10  12   54.59    5.30
   4  10  12   75.09    5.40
  -5 -10 -12    4.50    2.20
  -5 -10 -12    6.90    2.70
   5  10  12    4.40    1.60
   5  10  12    2.60    2.50
   5  10  12    9.70    3.10
  -6 -10 -12    4.10    2.10
  -6 -10 -12   -0.10    2.00
   6  10  12   -1.50    1.60
   6  10  12    1.20    2.40
   6  10  12    3.70    2.70
  -7 -10 -12    2.70    2.40
  -7 -10 -12    0.90    2.30
   7  10  12   -0.60    2.10
   7  10  12    2.80    1.80
   7  10  12    1.80    2.90
  -8 -10 -12   19.30    3.30
   8  10  12   26.70    3.50
   8  10  12   21.40    4.30
   8  10  12   28.50    3.30
  -9 -10 -12    2.40    2.50
  -9 -10 -12   -4.70    2.30
   9  10  12    0.20    2.10
   9  10  12    5.00    3.40
  -3 -11 -12  112.69    7.00
  -3 -11 -12  135.19    8.80
   3  11  12  103.79    7.00
   3  11  12  111.89    7.10
  -4 -11 -12   10.40    2.80
  -4 -11 -12   14.00    3.10
   4  11  12    6.80    2.70
   4  11  12   10.60    2.90
  -5 -11 -12   47.60    4.50
  -5 -11 -12   47.80    4.70
   5  11  12   48.20    5.10
   5  11  12   43.50    5.10
  -6 -11 -12    4.60    2.50
  -6 -11 -12   12.40    3.00
   6  11  12    7.30    2.10
   6  11  12    8.30    2.80
   6  11  12    9.30    3.20
  -7 -11 -12   47.70    4.60
  -7 -11 -12   54.49    5.20
   7  11  12   49.50    4.10
   7  11  12   52.79    4.90
   7  11  12   40.70    5.20
  -8 -11 -12   13.50    3.10
  -8 -11 -12    8.50    2.80
   8  11  12   13.80    2.70
   8  11  12   12.00    3.90
   8  11  12   16.80    3.00
   0  -1 -13   22.50    4.70
   0   1  13   21.30    4.40
   0   1  13   21.00    3.40
  -1  -1 -13    3.00    3.30
   1   1  13    7.10    2.60
   1   1  13    7.70    3.50
  -2  -1 -13  129.49    8.60
   2   1  13  133.29    7.30
   2   1  13  116.79    8.20
  -3  -1 -13    1.10    2.40
  -3  -1 -13   -0.60    3.20
   3   1  13    2.50    2.60
   3   1  13    0.50    2.10
  -4  -1 -13    9.80    3.70
   4   1  13   10.20    3.40
   4   1  13    5.70    2.60
   1  -2 -13    0.00    2.90
  -1   2  13   -1.60    2.60
  -1   2  13    2.00    2.20
   0  -2 -13    6.80    3.90
   0   2  13   12.00    2.70
   0   2  13   11.40    3.60
  -1  -2 -13   16.60    4.30
   1   2  13   19.10    3.00
   1   2  13   13.50    3.70
  -2  -2 -13   -1.70    3.10
   2   2  13    4.70    2.20
   2   2  13    3.00    2.70
  -3  -2 -13    0.70    3.10
  -3  -2 -13    3.20    2.40
   3   2  13    4.40    3.10
   3   2  13    3.20    2.10
  -4  -2 -13  120.99    7.10
  -4  -2 -13  121.89    8.40
   4   2  13  123.09    8.10
   4   2  13  139.99    7.30
  -5  -2 -13    0.20    2.80
  -5  -2 -13    3.00    2.80
   5   2  13    2.90    2.10
   5   2  13    4.70    2.80
   1  -3 -13    6.20    3.50
  -1   3  13   10.30    3.20
  -1   3  13    4.30    3.30
   0  -3 -13   63.79    6.50
   0   3  13   71.79    6.70
   0   3  13   67.79    4.90
  -1  -3 -13   -2.60    2.70
   1   3  13    4.10    2.90
   1   3  13   -1.10    1.80
  -2  -3 -13   -0.70    3.00
   2   3  13    1.40    1.80
   2   3  13    1.90    2.80
  -3  -3 -13   23.50    4.50
  -3  -3 -13   30.50    3.50
   3   3  13   25.80    3.20
   3   3  13   34.60    4.90
  -4  -3 -13   16.70    3.20
  -4  -3 -13   14.70    3.90
   4   3  13   16.20    3.70
   4   3  13   16.80    2.80
  -5  -3 -13    6.60    3.30
  -5  -3 -13    9.20    2.80
   5   3  13   11.20    3.40
   5   3  13    8.20    2.40
   5   3  13    8.50    2.60
  -6  -3 -13   34.60    4.00
  -6  -3 -13   33.70    4.50
   6   3  13   22.40    4.10
   6   3  13   29.60    3.60
   6   3  13   26.20    3.00
   1  -4 -13   37.90    5.20
  -1   4  13   28.90    4.60
   0  -4 -13    2.90    3.30
   0   4  13    1.30    2.80
  -1  -4 -13  162.38    9.60
   1   4  13  150.38    9.10
  -2  -4 -13   -2.80    2.80
   2   4  13   -0.50    2.20
   2   4  13    4.10    2.70
  -3  -4 -13   63.49    6.30
  -3  -4 -13   65.39    4.80
   3   4  13   57.69    5.50
   3   4  13   56.19    4.20
  -4  -4 -13    2.40    2.50
  -4  -4 -13    4.30    3.00
   4   4  13    5.20    1.90
   4   4  13    2.10    2.80
  -5  -4 -13   25.30    4.20
  -5  -4 -13   26.60    3.70
  -5  -4 -13   32.50    5.30
   5   4  13   42.20    3.80
   5   4  13   39.20    3.50
   5   4  13   31.40    4.30
  -6  -4 -13   66.79    5.40
  -6  -4 -13   66.49    6.20
  -6  -4 -13   61.49    5.60
  -6  -4 -13   57.99    4.60
   6   4  13   60.49    4.10
   6   4  13   55.19    5.80
  -7  -4 -13   43.80    4.10
  -7  -4 -13   36.20    4.20
  -7  -4 -13   36.40    4.70
   7   4  13   35.40    4.60
   7   4  13   38.50    3.70
   7   4  13   40.40    4.10
  -1   5  13   11.40    3.70
   0  -5 -13    2.50    1.90
   0   5  13    5.00    2.90
  -1  -5 -13   49.80    4.10
   1   5  13   63.89    6.00
  -2  -5 -13   95.59    5.20
   2   5  13   74.89    6.50
  -3  -5 -13   21.20    3.00
  -3  -5 -13   19.90    2.90
   3   5  13   24.40    4.20
  -4  -5 -13    6.90    2.50
  -4  -5 -13    5.00    2.00
   4   5  13    5.10    2.90
  -5  -5 -13    5.80    2.60
  -5  -5 -13    7.40    2.20
  -5  -5 -13    5.80    3.00
   5   5  13    4.30    2.80
  -6  -5 -13    4.00    2.20
  -6  -5 -13   -2.90    2.40
  -6  -5 -13   -1.70    2.70
   6   5  13    0.90    1.50
   6   5  13    4.00    2.80
  -7  -5 -13    2.80    2.30
  -7  -5 -13    3.40    2.60
  -7  -5 -13    3.80    2.90
  -7  -5 -13    5.00    2.30
   7   5  13   -0.20    1.60
   7   5  13    3.10    2.70
  -8  -5 -13   23.80    3.50
  -8  -5 -13   23.50    6.10
   8   5  13   18.40    4.10
   8   5  13   26.40    3.20
   0  -6 -13    4.30    2.10
   0   6  13    4.50    2.70
   0   6  13    5.30    3.00
  -1  -6 -13    1.50    2.00
   1   6  13    4.40    2.90
   1   6  13    2.40    2.50
  -2  -6 -13    5.20    2.10
   2   6  13   10.00    3.10
   2   6  13    3.80    2.90
  -3  -6 -13    0.30    3.00
  -3  -6 -13    0.70    1.90
   3   6  13    3.10    2.60
   3   6  13    1.00    2.30
  -4  -6 -13    4.20    2.30
  -4  -6 -13    0.00    2.00
   4   6  13    1.60    2.20
   4   6  13    0.50    2.50
  -5  -6 -13   18.00    3.10
  -5  -6 -13   19.90    2.90
   5   6  13   25.90    3.70
   5   6  13   22.90    3.90
  -6  -6 -13    6.10    2.20
  -6  -6 -13    4.90    2.50
   6   6  13   12.20    2.10
   6   6  13   10.80    3.40
  -7  -6 -13    3.50    2.20
  -7  -6 -13    5.40    2.80
   7   6  13    4.40    1.80
   7   6  13    3.50    2.80
  -8  -6 -13   51.59    5.40
  -8  -6 -13   34.70    3.90
  -8  -6 -13   45.40    4.50
  -8  -6 -13   43.20    4.70
   8   6  13   39.00    5.10
   8   6  13   44.90    3.90
   0  -7 -13   60.69    4.90
   0   7  13   70.29    6.00
   0   7  13   64.89    6.10
  -1  -7 -13    7.80    2.50
   1   7  13    5.50    2.80
   1   7  13    9.90    3.30
  -2  -7 -13   17.20    3.00
   2   7  13   22.90    4.10
   2   7  13   15.90    3.40
  -3  -7 -13   64.69    4.50
   3   7  13   59.69    5.20
   3   7  13   55.69    5.70
  -4  -7 -13   13.00    2.80
  -4  -7 -13    7.20    2.50
   4   7  13    9.80    3.10
   4   7  13    4.60    2.80
  -5  -7 -13    9.10    2.70
  -5  -7 -13    9.10    2.60
   5   7  13   10.90    2.80
   5   7  13    6.00    2.80
  -6  -7 -13   13.90    2.90
  -6  -7 -13   21.90    3.20
   6   7  13   16.00    3.80
   6   7  13   17.00    3.20
   6   7  13   11.10    2.00
  -7  -7 -13   50.99    4.80
  -7  -7 -13   42.10    4.20
   7   7  13   51.59    5.80
   7   7  13   49.00    4.40
   7   7  13   49.60    3.80
  -8  -7 -13   20.60    3.50
  -8  -7 -13   18.10    3.10
   8   7  13   17.30    3.80
   8   7  13   20.20    2.80
  -1  -8 -13    6.70    2.60
   1   8  13   11.20    3.50
   1   8  13    9.20    3.10
  -2  -8 -13   19.60    3.10
   2   8  13   24.40    3.80
   2   8  13   30.80    4.30
  -3  -8 -13   10.30    2.60
   3   8  13   15.00    3.50
   3   8  13   15.40    3.60
  -4  -8 -13   28.70    3.60
   4   8  13   34.60    4.40
   4   8  13   27.80    4.30
  -5  -8 -13   25.00    3.40
   5   8  13   34.10    4.10
   5   8  13   25.40    4.30
  -6  -8 -13   32.80    3.90
   6   8  13   33.70    4.70
   6   8  13   42.20    4.40
   6   8  13   27.70    2.80
  -7  -8 -13   16.60    3.10
  -7  -8 -13   26.70    3.80
   7   8  13   23.70    4.40
   7   8  13   21.00    3.30
   7   8  13   20.30    2.60
  -8  -8 -13   -0.60    2.10
  -8  -8 -13   -1.60    2.60
   8   8  13    3.60    2.90
   8   8  13    0.70    1.80
  -2  -9 -13    6.20    2.60
   2   9  13    6.40    2.80
   2   9  13   10.00    3.10
  -3  -9 -13   21.70    3.30
   3   9  13   18.80    3.60
   3   9  13   32.40    4.40
  -4  -9 -13    0.80    2.00
  -4  -9 -13    0.90    2.10
   4   9  13    2.30    2.50
   4   9  13    5.70    2.80
  -5  -9 -13   61.69    5.00
  -5  -9 -13   60.79    5.20
   5   9  13   64.09    5.50
   5   9  13   60.49    6.00
  -6  -9 -13   93.49    6.40
   6   9  13  113.39    6.70
   6   9  13   92.69    5.10
   6   9  13   94.89    7.20
  -7  -9 -13    5.40    2.70
  -7  -9 -13    4.30    2.50
   7   9  13    2.70    3.10
   7   9  13    3.10    1.80
   7   9  13    6.20    2.60
  -8  -9 -13   23.90    3.60
  -8  -9 -13   35.90    4.40
   8   9  13   20.60    3.00
   8   9  13   26.90    4.70
  -3 -10 -13   31.60    4.20
   3  10  13   27.10    4.10
   3  10  13   30.00    4.40
  -4 -10 -13   28.50    3.80
  -4 -10 -13   30.80    3.80
   4  10  13   30.50    4.20
   4  10  13   33.50    4.60
  -5 -10 -13   54.29    4.60
  -5 -10 -13   56.99    4.90
   5  10  13   57.09    5.50
   5  10  13   56.49    5.70
  -6 -10 -13   42.80    4.50
  -6 -10 -13   42.60    4.40
   6  10  13   36.20    4.30
   6  10  13   38.10    5.00
  -7 -10 -13    4.40    2.70
   7  10  13    7.70    3.30
   7  10  13    2.50    2.60
   7  10  13    1.40    1.80
  -2  -4 -14    1.80    3.30
   2   4  14    8.30    3.40
  -3  -4 -14   94.39    7.90
   3   4  14   98.99    7.50
  -4  -4 -14    3.30    3.20
   4   4  14   18.40    4.00
  -2  -5 -14   65.39    6.80
   2   5  14   65.79    6.50
  -3  -5 -14  101.19    8.20
   3   5  14   87.99    7.20
  -4  -5 -14    6.80    3.60
  -4  -5 -14    9.00    3.20
   4   5  14    3.50    2.90
  -5  -5 -14   48.10    5.60
  -5  -5 -14   45.00    4.50
   5   5  14   39.80    5.40
  -2  -6 -14    9.10    2.40
   2   6  14    5.50    3.10
  -3  -6 -14    1.40    2.00
   3   6  14    3.80    2.90
  -4  -6 -14    2.90    2.00
   4   6  14    0.50    2.60
  -5  -6 -14   48.40    4.60
  -5  -6 -14   37.60    3.90
   5   6  14   45.30    5.50
  -6  -6 -14   66.09    6.50
  -6  -6 -14   60.99    4.80
   6   6  14   54.19    6.00
  -3  -7 -14    2.70    2.20
   3   7  14    3.10    2.90
   3   7  14    1.60    2.60
  -4  -7 -14   18.50    3.30
   4   7  14   19.40    4.00
   4   7  14   15.10    3.50
  -5  -7 -14   -2.70    2.30
  -5  -7 -14    0.30    2.10
   5   7  14    0.30    2.90
   5   7  14   -2.30    2.30
  -6  -7 -14    1.00    2.10
   6   7  14    5.70    3.00
   6   7  14    3.30    2.50
  -4  -8 -14    0.90    2.10
   4   8  14    1.90    2.60
   4   8  14    1.50    2.70
  -5  -8 -14    0.20    2.30
   5   8  14    4.70    2.60
   5   8  14    1.30    2.60
_computing_structure_solution     'SHELXT 2014/4 (Sheldrick, 2014)'
;
_shelx_hkl_checksum              81083
_shelx_res_file
;
    sad_a.res created by SHELXL-2014/7
TITL siebert1 in P-1
CELL  0.71073   9.2595   9.9204  10.1731   64.259   72.322   64.093
ZERR    2.000   0.0014   0.0015   0.0015    0.004    0.005    0.004
LATT 1
SFAC C  H  N  Cl
UNIT 32  16  4  8
L.S. 10
ACTA
BOND $H
FMAP 2
PLAN 20
size 0.30 0.20 0.05
TEMP -173
WGHT    0.035700    0.233800
FVAR       0.58787
CL2   4    0.473181    0.782912    0.062118    11.00000    0.01386    0.01335 =
         0.02513   -0.00410    0.00064   -0.00307
CL3   4    0.449181    0.431767    0.183023    11.00000    0.02500    0.01218 =
         0.01400   -0.00510   -0.00392   -0.00016
CL4   4    0.829476   -0.210421    0.695886    11.00000    0.02391    0.01314 =
         0.02437   -0.00309   -0.01131    0.00239
CL1   4    0.107374    1.412886   -0.178571    11.00000    0.03162    0.01036 =
         0.03095    0.00125   -0.01023   -0.00513
N2    3    0.364069    0.446594    0.453700    11.00000    0.01730    0.01088 =
         0.01459   -0.00313   -0.00331   -0.00146
N1    3   -0.039554    0.866312    0.307082    11.00000    0.01556    0.01631 =
         0.01820   -0.00505   -0.00276   -0.00274
C8    1    0.236265    0.687795    0.265506    11.00000    0.01529    0.01072 =
         0.01318   -0.00380   -0.00367   -0.00186
C5    1    0.158421    0.968881    0.110599    11.00000    0.01604    0.01039 =
         0.01389   -0.00425   -0.00606   -0.00162
C10   1    0.349793    0.520504    0.319459    11.00000    0.01371    0.01135 =
         0.01427   -0.00472   -0.00131   -0.00249
C4    1    0.000701    0.988880    0.192425    11.00000    0.01507    0.01380 =
         0.01610   -0.00562   -0.00591   -0.00127
C11   1    0.475788    0.287732    0.507426    11.00000    0.01813    0.01067 =
         0.01087   -0.00335   -0.00425   -0.00095
C9    1    0.074333    0.723944    0.340521    11.00000    0.01636    0.01521 =
         0.01527   -0.00306   -0.00158   -0.00419
AFIX  43
H9    2    0.046931    0.638922    0.420391    11.00000   -1.20000
AFIX   0
C12   1    0.641513    0.258676    0.474031    11.00000    0.01985    0.01310 =
         0.01831   -0.00339   -0.00417   -0.00518
AFIX  43
H12   2    0.679972    0.343693    0.411247    11.00000   -1.20000
AFIX   0
C7    1    0.277083    0.811864    0.152232    11.00000    0.01232    0.01168 =
         0.01388   -0.00476   -0.00331   -0.00159
C13   1    0.750570    0.105209    0.532631    11.00000    0.01590    0.01672 =
         0.02125   -0.00607   -0.00586   -0.00261
AFIX  43
H13   2    0.863885    0.084595    0.510908    11.00000   -1.20000
AFIX   0
C1    1    0.068081    1.248741   -0.036274    11.00000    0.02536    0.01055 =
         0.01927   -0.00246   -0.01046   -0.00377
C2    1   -0.088896    1.271586    0.044040    11.00000    0.02064    0.01233 =
         0.02385   -0.00723   -0.01166    0.00210
AFIX  43
H2    2   -0.171121    1.374861    0.020888    11.00000   -1.20000
AFIX   0
C14   1    0.692389   -0.017641    0.623175    11.00000    0.02066    0.01129 =
         0.01432   -0.00357   -0.00811    0.00018
C3    1   -0.121760    1.143557    0.155719    11.00000    0.01535    0.01626 =
         0.02183   -0.00866   -0.00652    0.00094
AFIX  43
H3    2   -0.227822    1.158242    0.209430    11.00000   -1.20000
AFIX   0
C6    1    0.190624    1.102289   -0.005976    11.00000    0.01787    0.01171 =
         0.01681   -0.00405   -0.00496   -0.00347
AFIX  43
H6    2    0.295386    1.090235   -0.062050    11.00000   -1.20000
AFIX   0
C15   1    0.527562    0.009977    0.656889    11.00000    0.02277    0.01282 =
         0.01604   -0.00124   -0.00329   -0.00498
AFIX  43
H15   2    0.489704   -0.075731    0.718410    11.00000   -1.20000
AFIX   0
C16   1    0.417862    0.164207    0.599961    11.00000    0.01715    0.01421 =
         0.01603   -0.00271   -0.00237   -0.00281
AFIX  43
H16   2    0.304515    0.185051    0.623990    11.00000   -1.20000
AFIX   0
HKLF 4
REM  sad_a.res in P-1
REM R1 =  0.0247 for    3750 Fo > 4sig(Fo)  and  0.0315 for all    4335 data
REM    199 parameters refined using      0 restraints
END
WGHT      0.0357      0.2338
REM Highest difference peak  0.457,  deepest hole -0.204,  1-sigma level  0.058
Q1    1   0.1582  0.7096  0.3016  11.00000  0.05    0.46
Q2    1   0.2136  0.8912  0.1303  11.00000  0.05    0.44
Q3    1   0.7214  0.0438  0.5759  11.00000  0.05    0.42
Q4    1   0.4562  0.2210  0.5530  11.00000  0.05    0.42
Q5    1   0.6892  0.1818  0.5164  11.00000  0.05    0.42
Q6    1  -0.0618  1.0719  0.1700  11.00000  0.05    0.40
Q7    1   0.2974  0.6043  0.2923  11.00000  0.05    0.39
Q8    1   0.0828  0.9784  0.1512  11.00000  0.05    0.39
Q9    1   0.2584  0.7568  0.2214  11.00000  0.05    0.37
Q10   1   0.4752  0.0902  0.6347  11.00000  0.05    0.37
Q11   1   0.1271  1.1808 -0.0232  11.00000  0.05    0.36
Q12   1   0.1716  1.0398  0.0603  11.00000  0.05    0.35
Q13   1  -0.0120  1.2487  0.0025  11.00000  0.05    0.34
Q14   1   0.5633  0.2661  0.5107  11.00000  0.05    0.34
Q15   1   0.0216  0.8005  0.3154  11.00000  0.05    0.33
Q16   1  -0.0077  0.9267  0.2466  11.00000  0.05    0.32
Q17   1  -0.0998  1.2045  0.0834  11.00000  0.05    0.32
Q18   1   0.3939  0.4813  0.2597  11.00000  0.05    0.28
Q19   1   0.4216  0.3580  0.4751  11.00000  0.05    0.28
Q20   1   0.6150  0.0007  0.6539  11.00000  0.05    0.27
;
_shelx_res_checksum              60948
loop_
_space_group_symop_operation_xyz
'x, y, z'
'-x, -y, -z'
loop_
_atom_site_type_symbol
_atom_site_label
_atom_site_fract_x
_atom_site_fract_y
_atom_site_fract_z
_atom_site_U_iso_or_equiv
_atom_site_adp_type
_atom_site_calc_flag
_atom_site_occupancy
Cl Cl2 0.47318(3) 0.78291(3) 0.06212(3) 0.02002(7) Uani d 1
Cl Cl3 0.44918(4) 0.43177(3) 0.18302(3) 0.01907(7) Uani d 1
Cl Cl4 0.82948(4) -0.21042(3) 0.69589(3) 0.02329(8) Uani d 1
Cl Cl1 0.10737(4) 1.41289(3) -0.17857(4) 0.02702(8) Uani d 1
N N2 0.36407(12) 0.44659(11) 0.45370(11) 0.01588(19) Uani d 1
N N1 -0.03955(12) 0.86631(12) 0.30708(11) 0.0181(2) Uani d 1
C C8 0.23627(14) 0.68779(13) 0.26551(12) 0.0139(2) Uani d 1
C C5 0.15842(13) 0.96888(12) 0.11060(12) 0.0136(2) Uani d 1
C C10 0.34979(13) 0.52050(13) 0.31946(12) 0.0140(2) Uani d 1
C C4 0.00070(14) 0.98888(13) 0.19243(13) 0.0154(2) Uani d 1
C C11 0.47579(14) 0.28773(13) 0.50743(12) 0.0144(2) Uani d 1
C C9 0.07433(14) 0.72394(14) 0.34052(13) 0.0172(2) Uani d 1
H H9 0.0469 0.6389 0.4204 0.021 Uiso calc 1
C C12 0.64151(15) 0.25868(14) 0.47403(13) 0.0178(2) Uani d 1
H H12 0.6800 0.3437 0.4112 0.021 Uiso calc 1
C C7 0.27708(13) 0.81186(13) 0.15223(12) 0.0132(2) Uani d 1
C C13 0.75057(15) 0.10521(14) 0.53263(14) 0.0186(2) Uani d 1
H H13 0.8639 0.0846 0.5109 0.022 Uiso calc 1
C C1 0.06808(15) 1.24874(13) -0.03627(13) 0.0186(2) Uani d 1
C C2 -0.08890(15) 1.27159(14) 0.04404(14) 0.0195(2) Uani d 1
H H2 -0.1711 1.3749 0.0209 0.023 Uiso calc 1
C C14 0.69239(14) -0.01764(13) 0.62317(13) 0.0166(2) Uani d 1
C C3 -0.12176(14) 1.14356(14) 0.15572(14) 0.0186(2) Uani d 1
H H3 -0.2278 1.1582 0.2094 0.022 Uiso calc 1
C C6 0.19062(14) 1.10229(13) -0.00598(13) 0.0159(2) Uani d 1
H H6 0.2954 1.0902 -0.0621 0.019 Uiso calc 1
C C15 0.52756(15) 0.00998(14) 0.65689(13) 0.0191(2) Uani d 1
H H15 0.4897 -0.0757 0.7184 0.023 Uiso calc 1
C C16 0.41786(15) 0.16421(13) 0.59996(13) 0.0179(2) Uani d 1
H H16 0.3045 0.1851 0.6240 0.021 Uiso calc 1
loop_
_atom_site_aniso_label
_atom_site_aniso_U_11
_atom_site_aniso_U_22
_atom_site_aniso_U_33
_atom_site_aniso_U_12
_atom_site_aniso_U_13
_atom_site_aniso_U_23
Cl2 0.01386(13) 0.01335(12) 0.02513(15) -0.00307(10) 0.00064(10) -0.00410(10)
Cl3 0.02500(15) 0.01218(12) 0.01400(13) -0.00016(10) -0.00392(10) -0.00510(10)
Cl4 0.02391(15) 0.01314(13) 0.02437(15) 0.00239(10) -0.01131(12) -0.00309(11)
Cl1 0.03162(17) 0.01036(12) 0.03095(17) -0.00513(11) -0.01023(13) 0.00125(11)
N2 0.0173(5) 0.0109(4) 0.0146(5) -0.0015(3) -0.0033(4) -0.0031(3)
N1 0.0156(5) 0.0163(5) 0.0182(5) -0.0027(4) -0.0028(4) -0.0051(4)
C8 0.0153(5) 0.0107(4) 0.0132(5) -0.0019(4) -0.0037(4) -0.0038(4)
C5 0.0160(5) 0.0104(4) 0.0139(5) -0.0016(4) -0.0061(4) -0.0042(4)
C10 0.0137(5) 0.0113(4) 0.0143(5) -0.0025(4) -0.0013(4) -0.0047(4)
C4 0.0151(5) 0.0138(5) 0.0161(5) -0.0013(4) -0.0059(4) -0.0056(4)
C11 0.0181(5) 0.0107(5) 0.0109(5) -0.0010(4) -0.0043(4) -0.0033(4)
C9 0.0164(5) 0.0152(5) 0.0153(5) -0.0042(4) -0.0016(4) -0.0031(4)
C12 0.0198(6) 0.0131(5) 0.0183(5) -0.0052(4) -0.0042(4) -0.0034(4)
C7 0.0123(5) 0.0117(5) 0.0139(5) -0.0016(4) -0.0033(4) -0.0048(4)
C13 0.0159(5) 0.0167(5) 0.0212(6) -0.0026(4) -0.0059(4) -0.0061(4)
C1 0.0254(6) 0.0106(5) 0.0193(6) -0.0038(4) -0.0105(5) -0.0025(4)
C2 0.0206(6) 0.0123(5) 0.0239(6) 0.0021(4) -0.0117(5) -0.0072(4)
C14 0.0207(6) 0.0113(5) 0.0143(5) 0.0002(4) -0.0081(4) -0.0036(4)
C3 0.0154(5) 0.0163(5) 0.0218(6) 0.0009(4) -0.0065(4) -0.0087(4)
C6 0.0179(5) 0.0117(5) 0.0168(5) -0.0035(4) -0.0050(4) -0.0040(4)
C15 0.0228(6) 0.0128(5) 0.0160(5) -0.0050(4) -0.0033(4) -0.0012(4)
C16 0.0172(5) 0.0142(5) 0.0160(5) -0.0028(4) -0.0024(4) -0.0027(4)
loop_
_atom_type_symbol
_atom_type_description
_atom_type_scat_dispersion_real
_atom_type_scat_dispersion_imag
_atom_type_scat_source
C C 0.0033 0.0016 'International Tables Vol C Tables 4.2.6.8 and 6.1.1.4'
H H 0.0000 0.0000 'International Tables Vol C Tables 4.2.6.8 and 6.1.1.4'
N N 0.0061 0.0033 'International Tables Vol C Tables 4.2.6.8 and 6.1.1.4'
Cl Cl 0.1484 0.1585 'International Tables Vol C Tables 4.2.6.8 and 6.1.1.4'
loop_
_geom_angle_atom_site_label_1
_geom_angle_atom_site_label_2
_geom_angle_atom_site_label_3
_geom_angle
C10 N2 C11 122.47(10)
C9 N1 C4 117.52(10)
C7 C8 C9 117.66(10)
C7 C8 C10 124.91(10)
C9 C8 C10 117.38(10)
C6 C5 C4 119.79(10)
C6 C5 C7 123.51(10)
C4 C5 C7 116.71(10)
N2 C10 C8 121.50(10)
N2 C10 Cl3 123.61(9)
C8 C10 Cl3 114.73(8)
N1 C4 C5 123.25(10)
N1 C4 C3 117.90(11)
C5 C4 C3 118.85(10)
C12 C11 C16 120.60(10)
C12 C11 N2 119.73(10)
C16 C11 N2 119.57(10)
N1 C9 C8 124.64(11)
N1 C9 H9 117.7
C8 C9 H9 117.7
C13 C12 C11 119.87(11)
C13 C12 H12 120.1
C11 C12 H12 120.1
C8 C7 C5 120.21(10)
C8 C7 Cl2 121.19(8)
C5 C7 Cl2 118.57(8)
C14 C13 C12 119.30(11)
C14 C13 H13 120.4
C12 C13 H13 120.4
C6 C1 C2 122.32(11)
C6 C1 Cl1 119.01(10)
C2 C1 Cl1 118.67(9)
C3 C2 C1 119.32(10)
C3 C2 H2 120.3
C1 C2 H2 120.3
C15 C14 C13 121.29(10)
C15 C14 Cl4 119.47(9)
C13 C14 Cl4 119.25(9)
C2 C3 C4 120.85(11)
C2 C3 H3 119.6
C4 C3 H3 119.6
C1 C6 C5 118.87(11)
C1 C6 H6 120.6
C5 C6 H6 120.6
C14 C15 C16 119.52(11)
C14 C15 H15 120.2
C16 C15 H15 120.2
C15 C16 C11 119.41(11)
C15 C16 H16 120.3
C11 C16 H16 120.3
loop_
_geom_bond_atom_site_label_1
_geom_bond_atom_site_label_2
_geom_bond_distance
Cl2 C7 1.7268(12)
Cl3 C10 1.7680(11)
Cl4 C14 1.7424(11)
Cl1 C1 1.7407(12)
N2 C10 1.2551(15)
N2 C11 1.4224(13)
N1 C9 1.3121(14)
N1 C4 1.3704(15)
C8 C7 1.3768(15)
C8 C9 1.4255(16)
C8 C10 1.4817(14)
C5 C6 1.4190(15)
C5 C4 1.4202(16)
C5 C7 1.4237(14)
C4 C3 1.4209(15)
C11 C12 1.3911(17)
C11 C16 1.3933(16)
C9 H9 0.9500
C12 C13 1.3881(15)
C12 H12 0.9500
C13 C14 1.3861(17)
C13 H13 0.9500
C1 C6 1.3698(15)
C1 C2 1.4083(18)
C2 C3 1.3678(17)
C2 H2 0.9500
C14 C15 1.3858(17)
C3 H3 0.9500
C6 H6 0.9500
C15 C16 1.3920(15)
C15 H15 0.9500
C16 H16 0.9500
loop_
_geom_hbond_atom_site_label_D
_geom_hbond_atom_site_label_H
_geom_hbond_atom_site_label_A
_geom_hbond_site_symmetry_A
_geom_hbond_distance_DH
_geom_hbond_distance_HA
_geom_hbond_distance_DA
_geom_hbond_angle_DHA
C16 H16 N1 2_566 0.95 2.55 3.453(2) 159

_cod_database_fobs_code 1545305
