#------------------------------------------------------------------------------
#$Date: 2017-03-15 09:29:35 +0200 (Wed, 15 Mar 2017) $
#$Revision: 194258 $
#$URL: file:///home/coder/svn-repositories/cod/cif/1/54/55/1545566.cif $
#------------------------------------------------------------------------------
#
# This file is available in the Crystallography Open Database (COD),
# http://www.crystallography.net/. The original data for this entry
# were provided by IUCr Journals, http://journals.iucr.org/.
#
# The file may be used within the scientific community so long as
# proper attribution is given to the journal article from which the
# data were obtained.
#
data_1545566
loop_
_publ_author_name
'Matsushita, Nobuyuki'
'Noguchi, Wataru'
'Tanaka, Rikako'
_publ_section_title
;
 Potassium tetracyanidoaurate(III) monohydrate: a redetermination
;
_journal_coeditor_code           WM4042
_journal_issue                   3
_journal_name_full               IUCrData
_journal_paper_doi               10.1107/S2414314617003820
_journal_volume                  2
_journal_year                    2017
_chemical_formula_iupac          'K [Au (C N)4], H2 O'
_chemical_formula_moiety         'K +, C4 Au N4 -, H2 O'
_chemical_formula_sum            'C4 H2 Au K N4 O'
_chemical_formula_weight         358.16
_chemical_name_systematic
;
Potassium tetracyanidoaurate(III) monohydrate
;
_space_group_crystal_system      orthorhombic
_space_group_IT_number           19
_space_group_name_Hall           'P 2ac 2ab'
_space_group_name_H-M_alt        'P 21 21 21'
_symmetry_space_group_name_Hall  'P 2ac 2ab'
_symmetry_space_group_name_H-M   'P 21 21 21'
_atom_sites_solution_hydrogens   geom
_atom_sites_solution_primary     direct
_atom_sites_solution_secondary   difmap
_audit_creation_method           SHELXL-2014/7
_cell_angle_alpha                90
_cell_angle_beta                 90
_cell_angle_gamma                90
_cell_formula_units_Z            4
_cell_length_a                   6.6460(7)
_cell_length_b                   7.0733(8)
_cell_length_c                   17.4356(19)
_cell_measurement_reflns_used    8740
_cell_measurement_temperature    173(2)
_cell_measurement_theta_max      31.93
_cell_measurement_theta_min      3.07
_cell_volume                     819.63(15)
_computing_cell_refinement
;
<i>RAPID-AUTO</i> (Rigaku, 2006)
;
_computing_data_collection
;
<i>RAPID-AUTO</i> (Rigaku, 2006)
;
_computing_data_reduction
;
<i>RAPID-AUTO</i> (Rigaku, 2006)
;
_computing_molecular_graphics
;
<i>DIAMOND</i> (Brandenburg, 2017)
;
_computing_publication_material
;
SHELXL2014 (Sheldrick, 2015<i>b</i>) and publCIF (Westrip, 2010)
;
_computing_structure_refinement
;
SHELXL2014 (Sheldrick, 2015<i>b</i>)
;
_computing_structure_solution
;
SHELXT (Sheldrick, 2015<i>a</i>)
;
_diffrn_ambient_temperature      173(2)
_diffrn_detector_area_resol_mean 10.00
_diffrn_measured_fraction_theta_full 0.999
_diffrn_measured_fraction_theta_max 0.996
_diffrn_measurement_device_type  'Rigaku R-AXIS RAPID imaging-plate'
_diffrn_measurement_method       \w
_diffrn_radiation_monochromator  graphite
_diffrn_radiation_source         'X-ray sealed tube'
_diffrn_radiation_type           MoK\a
_diffrn_radiation_wavelength     0.71075
_diffrn_reflns_av_R_equivalents  0.0452
_diffrn_reflns_limit_h_max       9
_diffrn_reflns_limit_h_min       -9
_diffrn_reflns_limit_k_max       10
_diffrn_reflns_limit_k_min       -10
_diffrn_reflns_limit_l_max       23
_diffrn_reflns_limit_l_min       -25
_diffrn_reflns_number            17391
_diffrn_reflns_theta_full        25.242
_diffrn_reflns_theta_max         31.981
_diffrn_reflns_theta_min         3.108
_exptl_absorpt_coefficient_mu    18.402
_exptl_absorpt_correction_T_max  1.0000
_exptl_absorpt_correction_T_min  0.4367
_exptl_absorpt_correction_type   multi-scan
_exptl_absorpt_process_details
;
(<i>ABSCOR</i>; Higashi, 1995)
;
_exptl_crystal_colour            colorless
_exptl_crystal_density_diffrn    2.902
_exptl_crystal_density_method    'not measured'
_exptl_crystal_description       platelet
_exptl_crystal_F_000             640
_exptl_crystal_size_max          0.300
_exptl_crystal_size_mid          0.300
_exptl_crystal_size_min          0.200
_refine_diff_density_max         1.439
_refine_diff_density_min         -1.085
_refine_ls_abs_structure_details
;
Flack <i>x</i> determined using 1076 quotients
[(<i>I</i>^+^)-(<i>I</i>^-^)]/[(<i>I</i>^+^)+(<i>I</i>^-^)]
(Parsons <i>et al.</i>,  2013)
;
_refine_ls_abs_structure_Flack   -0.006(6)
_refine_ls_extinction_coef       0.0093(3)
_refine_ls_extinction_expression Fc^*^=kFc[1+0.001xFc^2^\l^3^/sin(2\q)]^-1/4^
_refine_ls_extinction_method
;
SHELXL2014 (Sheldrick, 2015<i>b</i>)
;
_refine_ls_goodness_of_fit_ref   1.027
_refine_ls_hydrogen_treatment    constr
_refine_ls_matrix_type           full
_refine_ls_number_parameters     101
_refine_ls_number_reflns         2828
_refine_ls_number_restraints     0
_refine_ls_restrained_S_all      1.027
_refine_ls_R_factor_all          0.0180
_refine_ls_R_factor_gt           0.0151
_refine_ls_shift/su_max          0.001
_refine_ls_shift/su_mean         0.000
_refine_ls_structure_factor_coef Fsqd
_refine_ls_weighting_details
'w=1/[\s^2^(Fo^2^)+(0.0069P)^2^] where P=(Fo^2^+2Fc^2^)/3'
_refine_ls_weighting_scheme      calc
_refine_ls_wR_factor_gt          0.0317
_refine_ls_wR_factor_ref         0.0335
_reflns_number_gt                2666
_reflns_number_total             2828
_reflns_threshold_expression     'I > 2\s(I)'
_cod_data_source_file            wm4042sup1.cif
_cod_data_source_block           I
_cod_database_code               1545566
_shelx_space_group_comment
;
The symmetry employed for this shelxl refinement is uniquely defined
by the following loop, which should always be used as a source of
symmetry information in preference to the above space-group names.
They are only intended as comments.
;
_shelx_estimated_absorpt_t_min   0.073
_shelx_estimated_absorpt_t_max   0.120
_shelx_hkl_file
;
   0   0  -3   11.63    4.99
   0   0   3   13.23    2.86
   0   0   3    7.51    1.13
   0   0  -3    9.04    1.26
   0   0   4 8685.90  406.92
   0   0  -4 5594.76  275.05
   0   0  -4 8052.12  387.58
   0   0   5   16.75    3.32
   0   0   5    4.85    3.12
   0   0  -5    4.19    3.86
   0   0  -5    5.38    3.86
   0   0  -6 2662.62  118.98
   0   0   6 2747.63  103.23
   0   0   6 2747.96  103.63
   0   0  -6 2535.06  114.66
   0   0   7   17.68    3.19
   0   0  -7    2.13    3.86
   0   0   7    2.13    1.66
   0   0  -7    7.18    3.86
   0   0   8 6236.46  293.79
   0   0   8 6737.70  315.33
   0   0  -8 6238.98  305.16
   0   0  -8 5474.45  271.46
   0   0  -9    8.57    6.58
   0   0  -9    2.92    6.85
   0   0   9    2.59    2.79
   0   0 -10 2640.75  114.19
   0   0  10 2658.03  102.36
   0   0 -10 2488.93  109.01
   0   0  10 2711.27  104.82
   0   0 -11    3.19    4.65
   0   0  11    2.66    1.86
   0   0 -11    9.57    4.85
   0   0  11   12.23    3.39
   0   0  12 3813.33  166.84
   0   0  12 3923.73  173.22
   0   0 -12 3669.29  186.51
   0   0 -12 4001.43  200.01
   0   0 -13    3.26    5.65
   0   0  13    1.53    3.59
   0   0  13    2.92    3.66
   0   0 -13   23.00    5.92
   0   0 -14 1399.44   63.88
   0   0  14 1442.38   55.30
   0   0 -14 1329.65   61.82
   0   0  14 1386.94   53.77
   0   0 -15    7.05   11.03
   0   0  15    1.60    3.52
   0   0 -15    4.05   10.44
   0   0  15    7.31    3.52
   0   0 -16  445.94   27.12
   0   0  16  456.91   19.34
   0   0 -16  446.34   28.18
   0   0 -17    1.73    6.65
   0   0  17    3.06    3.46
   0   0 -17    3.46    7.18
   0   0  17    5.12    3.52
   0   0  18  530.02   18.41
   0   0 -18  513.14   46.73
   0   0  18  540.26   22.53
   0   0 -18  525.57   50.45
   0   0  19    2.13    2.79
   0   0 -19    2.59    7.38
   0   0 -19    3.79    8.04
   0   0  19    3.32    1.93
   0   0 -20   49.45   15.42
   0   0 -20   58.09   14.09
   0   0 -21    3.39    9.17
   0   0 -21    1.26   13.96
   0   0 -22   70.39   16.09
   0   0 -22   23.26    9.70
   0   0 -23    0.20    3.72
   0   0 -23    5.65   14.16
   0   0 -24   -0.13   10.97
   0   0 -24   63.54   15.95
   0   0 -25   -0.60    9.97
   0   0 -25   -1.00    4.19
   0  -1  -1   11.43    5.65
   0  -1   1   13.96    6.12
   0   1  -1   26.45   10.17
   0  -1   1    6.12    2.92
   0   1   1   22.20    4.72
   0   1  -1   16.95    5.25
   0   1   1   12.70    6.12
   0  -1  -1   10.10    4.52
   0  -1   2  124.50   10.04
   0  -1  -2  132.34   10.64
   0  -1   2  136.53    7.18
   0  -1  -2  126.96    9.17
   0   1  -2  128.88    6.91
   0   1   2  121.04    8.51
   0   1  -2  137.86   15.89
   0   1   2  124.30   10.44
   0  -1  -3  119.44    8.57
   0  -1  -3  125.36    9.84
   0  -1   3  127.82    7.58
   0   1  -3  122.10   11.50
   0   1   3  124.36   17.15
   0  -1   3  118.12    8.71
   0   1  -3  128.62    7.78
   0   1   3  120.57    8.71
   0  -1  -4  596.49   24.00
   0   1   4  563.46   23.13
   0  -1   4  568.97   21.87
   0  -1  -4  531.82   22.07
   0   1   4  572.90   24.33
   0  -1   4  550.23   27.78
   0   1  -4  561.13   22.00
   0   1  -4  592.77   25.13
   0   1   5 1030.20   39.68
   0   1  -5 1070.82   38.88
   0  -1  -5 1058.52   39.15
   0  -1   5  985.07   35.10
   0   1  -5 1010.53   38.68
   0  -1  -5  945.26   45.27
   0   1   5 1024.29   48.85
   0  -1   5 1004.35   38.09
   0   1  -6  127.75    7.64
   0  -1  -6  111.87   14.36
   0  -1   6  121.77    9.57
   0  -1  -6  118.85   12.10
   0   1   6  112.27    9.11
   0   1  -6  110.07   14.82
   0   1   6  110.80    8.11
   0  -1   6  130.08   14.42
   0   1  -7  169.36   10.77
   0  -1   7  171.16   10.77
   0   1  -7  172.22    8.44
   0  -1   7  177.34   17.22
   0  -1  -7  168.30    8.31
   0  -1  -7  164.44   10.70
   0   1   7  173.22   14.29
   0   1   7  164.78   10.30
   0   1  -8 2845.14  123.23
   0  -1  -8 3005.93  129.88
   0   1  -8 3054.25  122.37
   0   1   8 2888.41  124.56
   0  -1   8 2873.39  124.63
   0   1   8 3065.95  135.46
   0  -1  -8 3028.59  123.90
   0  -1   8 2935.47  122.24
   0  -1   9  235.63   14.02
   0  -1  -9  244.27   14.16
   0   1  -9  222.94    9.57
   0   1  -9  213.63   13.29
   0   1   9  209.98   12.96
   0  -1   9  221.28    8.57
   0   1   9  229.78   15.09
   0  -1  -9  220.48   19.87
   0  -1 -10  986.93   42.07
   0   1 -10 1055.13   36.29
   0   1  10  925.98   34.96
   0  -1 -10  941.33   48.66
   0   1  10  992.91   39.55
   0  -1  10  944.92   51.31
   0   1 -10  921.79   39.75
   0  -1  10  931.70   32.17
   0   1 -11  612.45   29.18
   0  -1  11  609.79   24.39
   0  -1  11  637.11   30.38
   0  -1 -11  658.97   30.71
   0   1  11  606.66   26.19
   0   1 -11  631.99   19.74
   0  -1 -11  619.29   37.09
   0   1  11  611.18   23.40
   0  -1  12 4095.16  183.39
   0   1 -12 3941.61  189.10
   0  -1 -12 4124.20  209.58
   0   1  12 4004.09  175.15
   0   1  12 4067.31  191.50
   0  -1 -12 3865.51  185.91
   0  -1  13  495.26   17.48
   0  -1 -13  532.48   38.95
   0   1  13  485.76   17.95
   0   1 -13  517.66   28.78
   0  -1 -13  510.55   37.02
   0  -1  13  511.35   18.88
   0   1  13  523.51   20.80
   0   1 -13  493.86   27.05
   0   1  14 1311.63   48.66
   0   1 -14 1350.12   76.37
   0  -1 -14 1343.60   61.82
   0  -1 -14 1418.45   66.00
   0  -1  14 1350.85   53.51
   0  -1  14 1306.12   47.92
   0   1  14 1346.53   58.76
   0   1 -14 1343.07   78.50
   0   1 -15  397.62   25.46
   0   1  15  400.41   19.41
   0   1  15  417.36   17.55
   0  -1 -15  411.58   24.79
   0  -1  15  405.26   15.55
   0  -1  15  398.55   17.75
   0  -1 -15  433.64   38.42
   0   1 -15  409.45   39.81
   0   1  16 2703.36  122.37
   0  -1 -16 2760.19  134.13
   0   1 -16 2753.81  152.28
   0  -1  16 2427.05   98.44
   0  -1  16 2532.34  102.43
   0  -1 -16 2665.74  128.02
   0   1  16 2605.92  112.33
   0   1 -16 2632.84  129.42
   0   1 -17  557.14   34.43
   0   1  17  572.17   27.98
   0   1 -17  570.64   35.89
   0  -1 -17  624.61   50.58
   0  -1  17  471.93   16.82
   0  -1  17  569.64   20.61
   0  -1 -17  566.58   45.86
   0   1 -18 1360.62   71.59
   0   1  18 1365.34   56.30
   0  -1 -18 1383.62   70.26
   0   1  18 1432.27   63.01
   0  -1  18 1393.32   51.31
   0  -1  18 1222.96   47.86
   0   1 -18 1370.99   89.53
   0  -1 -18 1373.32   86.14
   0  -1 -19  548.90   35.03
   0   1  19  569.77   28.58
   0   1 -19  536.34   37.09
   0   1  19  526.04   19.74
   0   1 -19  560.93   57.83
   0  -1 -19  551.29   52.98
   0   1 -20 2711.27  145.97
   0  -1 -20 2798.28  147.23
   0   1 -20 2590.96  162.65
   0  -1 -20 2643.80  138.06
   0  -1 -21  409.18   46.59
   0   1 -21  407.32   34.36
   0  -1 -21  423.94   34.56
   0   1 -21  418.62   37.42
   0   1 -22 1173.31  100.57
   0  -1 -22 1240.05   73.51
   0   1 -22 1161.28   66.20
   0  -1 -23    0.33    3.39
   0   1 -23    0.27    5.98
   0  -1 -24 1281.79  107.88
   0   1 -24 1262.58   83.35
   0  -1 -25  222.67   31.31
   0   1 -25  224.00   55.44
   0   2   0 5267.87  301.97
   0  -2   0 5147.09  265.74
   0  -2   0 5162.12  243.54
   0   2   0 5938.34  291.53
   0   2   1 5665.75  325.37
   0  -2  -1 5870.94  331.35
   0  -2   1 5545.91  277.77
   0   2   1 6418.05  328.16
   0  -2   1 5599.62  294.06
   0  -2  -1 5751.43  280.23
   0   2  -1 6160.28  304.89
   0   2  -1 5717.07  298.38
   0  -2   2 2334.13  114.46
   0   2   2 2551.15  129.88
   0  -2  -2 2419.07  115.06
   0   2   2 2316.51  133.07
   0  -2  -2 2476.57  109.87
   0   2  -2 2435.96  137.46
   0  -2   2 2596.94  105.89
   0   2  -2 2584.71  104.69
   0   2  -3 4963.31  243.87
   0   2  -3 5191.23  256.24
   0  -2  -3 5378.94  267.07
   0  -2   3 5238.29  265.81
   0   2   3 5148.56  266.08
   0   2   3 4993.09  273.12
   0  -2   3 5249.32  244.54
   0  -2  -3 4952.94  263.62
   0   2   4 4900.69  232.18
   0  -2  -4 5135.73  248.53
   0   2  -4 4665.33  221.28
   0  -2   4 4677.56  232.18
   0   2  -4 4426.10  204.53
   0  -2   4 4836.62  222.34
   0   2   4 4598.99  226.73
   0  -2  -4 4755.06  244.61
   0   2  -5 3239.70  140.52
   0   2   5 3411.06  164.51
   0  -2  -5 3287.42  147.83
   0  -2   5 3181.27  164.11
   0   2  -5 3283.24  152.75
   0  -2  -5 3448.61  171.42
   0  -2   5 3277.19  141.84
   0   2   5 3218.30  164.58
   0   2   6 1456.80   69.93
   0  -2  -6 1354.64   56.37
   0  -2   6 1481.79   58.76
   0   2  -6 1488.24   59.36
   0   2  -6 1526.06   65.34
   0  -2  -6 1412.33   59.96
   0  -2   6 1325.26   57.63
   0   2   6 1369.93   59.96
   0   2   7 2754.14  119.71
   0   2   7 2644.94  117.78
   0   2  -7 2861.89  123.03
   0  -2   7 2504.82  121.24
   0  -2  -7 2661.69  115.72
   0   2  -7 2714.40  116.25
   0  -2  -7 2699.57  117.25
   0  -2   7 2704.36  126.49
   0  -2   8 1883.53   80.16
   0   2  -8 2106.74   88.74
   0  -2  -8 2016.94   84.95
   0   2  -8 2206.17   90.60
   0  -2   8 2062.87   97.31
   0  -2  -8 1982.84   94.39
   0   2   8 2111.79  100.24
   0   2   8 1971.54   85.68
   0  -2  -9 3076.05  134.13
   0   2   9 2991.70  144.97
   0   2  -9 2951.16  132.07
   0  -2  -9 2929.56  130.94
   0   2   9 2984.06  143.57
   0   2  -9 3062.63  129.42
   0  -2   9 2789.11  123.17
   0  -2   9 2884.56  128.75
   0  -2 -10  869.41   47.72
   0   2  10  896.47   46.66
   0   2 -10  917.54   35.16
   0  -2  10  934.16   41.01
   0  -2 -10  869.02   43.47
   0  -2  10  850.80   42.14
   0   2  10  873.20   48.59
   0   2 -10  918.07   41.21
   0   2 -11 1685.12   60.35
   0   2  11 1531.98   78.77
   0   2  11 1576.84   67.60
   0  -2  11 1506.79   69.73
   0  -2 -11 1553.65   72.19
   0   2 -11 1578.04   84.42
   0  -2 -11 1575.05   68.93
   0  -2  11 1630.55   71.92
   0  -2  12  904.31   56.30
   0  -2  12  815.71   33.23
   0   2  12  860.77   37.42
   0   2 -12  857.52   55.30
   0  -2 -12  836.58   39.08
   0   2 -12  904.84   30.18
   0  -2  13 1383.15   65.27
   0   2 -13 1327.92   49.98
   0  -2 -13 1440.12   67.20
   0  -2 -13 1290.76   59.16
   0  -2  13 1197.84   48.66
   0   2  13 1318.61   65.01
   0   2  13 1315.29   60.29
   0   2 -13 1287.04   76.71
   0   2 -14  377.94   15.15
   0  -2 -14  327.43   21.20
   0  -2  14  308.62   19.48
   0   2  14  336.67   22.07
   0  -2 -14  359.33   24.06
   0  -2  14  360.20   25.19
   0   2  14  351.89   25.72
   0   2 -14  339.19   37.42
   0  -2  15  606.93   36.09
   0  -2 -15  581.47   32.10
   0   2  15  575.16   24.06
   0   2 -15  587.45   21.60
   0   2  15  592.90   27.32
   0  -2  15  552.76   23.33
   0  -2 -15  606.20   47.92
   0   2 -15  614.90   51.98
   0   2 -16  299.31   23.80
   0  -2  16  301.70   10.10
   0   2  16  312.40   23.80
   0  -2 -16  327.83   24.13
   0  -2  16  321.24   20.94
   0   2  16  297.12   14.22
   0  -2 -16  306.89   22.27
   0   2 -16  326.03   26.26
   0  -2 -17  297.78   23.93
   0   2  17  267.01   13.16
   0   2  17  282.49   16.22
   0  -2  17  314.33   19.34
   0  -2  17  259.63   10.77
   0   2 -17  271.66   25.66
   0   2 -17  262.69   23.33
   0  -2 -17  275.18   21.74
   0  -2 -18  268.14   37.62
   0   2  18  249.13   17.75
   0  -2 -18  247.46   21.47
   0   2  18  272.19   22.53
   0  -2  18  270.33   15.82
   0   2 -18  241.81   24.13
   0  -2  18  249.13    9.97
   0   2 -18  256.44   26.26
   0  -2 -19   74.64   14.56
   0   2 -19   74.84   28.12
   0   2 -19   84.48   18.61
   0   2  19   85.28   14.36
   0   2  19   74.91   10.83
   0  -2 -19   89.47   16.02
   0   2  20    1.86    4.05
   0  -2 -20    7.38    7.71
   0  -2 -20    0.73   14.96
   0   2  20    4.39    4.92
   0   2 -20    3.19   10.10
   0   2 -20    5.78    9.31
   0  -2 -21   83.68   15.49
   0   2 -21   85.81   28.65
   0   2 -21   79.23   31.44
   0  -2 -21    5.65   13.49
   0  -2 -22    5.45   17.22
   0  -2 -22    0.27    6.31
   0   2 -22    9.84   11.70
   0   2 -22   13.29   10.77
   0   2 -23    0.73    8.91
   0  -2 -23    0.13    3.52
   0   2 -23   -0.13    3.26
   0  -2 -23    4.59    7.58
   0  -2 -24    3.06   14.76
   0   2 -24    0.93    3.46
   0   2 -24    5.92    9.84
   0  -2 -24   -0.33    3.12
   0  -2 -25    0.60    6.45
   0   2 -25   -0.27    4.25
   0   2 -25   11.10   21.67
   0  -2 -25   24.00   10.97
   0  -3   0    4.05    4.12
   0   3   0    3.12    4.19
   0  -3   0    8.18    8.04
   0   3   0    2.53    8.57
   0   3  -1   60.89    7.58
   0  -3  -1   63.01    8.18
   0   3   1   60.55    8.51
   0  -3  -1   58.76   13.89
   0   3   1   67.80   25.59
   0   3  -1   60.02   14.42
   0  -3   1   58.89   12.56
   0  -3   1   56.30   14.02
   0   3   2    6.18    8.31
   0   3  -2    4.12    7.71
   0  -3  -2    4.59    4.99
   0   3   2    5.92    9.04
   0  -3   2    4.99    7.84
   0  -3  -2    5.45    8.04
   0   3  -2    6.38    7.98
   0  -3   2    4.39    4.45
   0   3   3  840.90   46.79
   0   3  -3  856.98   45.46
   0  -3  -3  912.29   41.48
   0  -3   3  846.22   48.06
   0   3   3  876.79   51.85
   0  -3   3  951.84   38.95
   0   3  -3  946.98   38.35
   0  -3  -3  884.57   64.41
   0  -3  -4   24.19   17.48
   0   3  -4   23.53   16.02
   0  -3   4   27.65    6.45
   0  -3   4   24.06   18.81
   0  -3  -4   25.79   13.56
   0   3   4   26.99   10.57
   0   3   4   26.32    7.44
   0   3  -4   28.65    6.31
   0  -3   5  594.37   35.76
   0   3   5  520.72   44.40
   0  -3  -5  570.37   28.71
   0   3   5  485.76   34.83
   0  -3  -5  542.19   43.80
   0  -3   5  515.27   32.44
   0   3  -5  544.25   27.98
   0   3  -5  578.08   25.19
   0   3   6   37.42   13.89
   0   3  -6   52.91    7.98
   0   3   6   45.20   10.37
   0  -3  -6   52.78   15.82
   0   3  -6   43.54    7.71
   0  -3   6   46.73   18.74
   0  -3  -6   47.59   10.10
   0  -3   6   47.33   13.29
   0  -3   7 1672.36   80.63
   0   3   7 1726.73   80.76
   0   3  -7 1788.95   85.41
   0   3   7 1679.14   74.11
   0   3  -7 1742.62   84.55
   0  -3  -7 1795.79   81.89
   0  -3  -7 1559.23   82.55
   0  -3   7 1782.77   75.24
   0  -3   8  144.10   20.14
   0   3  -8  140.58   12.10
   0  -3   8  132.54   14.22
   0   3  -8  137.32    9.64
   0   3   8  138.85   22.53
   0  -3  -8  127.09   19.61
   0   3   8  126.29   19.61
   0  -3  -8  145.83   13.89
   0   3   9 1437.99   81.23
   0   3  -9 1418.98   75.58
   0   3   9 1403.43   63.34
   0   3  -9 1438.66   65.47
   0  -3  -9 1368.53   61.68
   0  -3  -9 1344.14   61.88
   0  -3   9 1326.06   64.41
   0  -3   9 1694.16   82.89
   0   3 -10   75.77   11.57
   0  -3  10   65.80   10.70
   0  -3  10   90.26   10.97
   0   3  10   73.91   18.28
   0   3 -10   73.78    6.45
   0  -3 -10   69.86    9.77
   0  -3 -10   72.19   10.24
   0   3  10   80.96   10.64
   0   3 -11 1920.16   82.69
   0  -3 -11 1893.84   86.68
   0   3  11 1925.34  104.49
   0  -3 -11 1878.61   98.77
   0   3 -11 1965.09   90.53
   0  -3  11 1867.45   87.87
   0   3  11 1983.63   91.66
   0  -3  11 1957.98   89.67
   0  -3 -12  288.74   18.21
   0   3  12  290.14   19.87
   0  -3 -12  285.22   18.54
   0   3 -12  312.47   22.87
   0   3  12  307.29   20.74
   0   3 -12  307.88   16.95
   0  -3  12  295.45   19.48
   0  -3  12  320.25   22.53
   0   3  13 1625.43   77.97
   0  -3  13 1638.13   76.11
   0   3  13 1633.87   77.64
   0  -3  13 1815.73  103.29
   0  -3 -13 1611.34   73.12
   0   3 -13 1660.06   63.01
   0  -3 -13 1547.86   72.78
   0   3 -13 1664.78   99.17
   0  -3 -14   80.10   10.10
   0   3 -14   83.49    8.38
   0  -3  14   83.09   17.68
   0  -3 -14   83.15   11.63
   0   3  14   87.94   12.76
   0  -3  14   78.23   15.02
   0   3  14   70.92   11.23
   0   3 -14   79.03   25.99
   0   3  15 2534.46  116.99
   0  -3  15 2506.28  127.55
   0   3 -15 2383.51  144.37
   0  -3 -15 2722.97  134.80
   0   3  15 2394.61  130.08
   0   3 -15 2431.24  102.96
   0  -3  15 2624.73  135.26
   0  -3 -15 2410.37  134.87
   0  -3  16  217.29   40.61
   0   3  16  223.07   15.15
   0  -3 -16  264.15   36.49
   0   3  16  212.17   17.28
   0   3 -16  217.95   11.57
   0  -3 -16  234.04   30.18
   0   3 -16  206.79   40.28
   0  -3  16  228.59   23.13
   0   3  17 2685.61  124.10
   0   3  17 2605.72  127.22
   0  -3  17 2681.49  122.37
   0  -3 -17 2887.08  148.62
   0   3 -17 2568.63  164.51
   0  -3  17 2656.70  141.71
   0  -3 -17 2510.87  145.23
   0   3 -17 2572.55  108.21
   0  -3 -18   33.10   17.95
   0  -3  18   -0.47   14.76
   0   3  18   27.45   14.09
   0  -3  18   24.79    5.38
   0   3 -18   31.37   26.12
   0  -3 -18   51.78   12.36
   0   3  18   28.18    6.78
   0  -3 -19 1719.49  112.80
   0   3 -19 1499.41   85.41
   0   3  19 1604.96   70.72
   0   3 -19 1594.39   91.99
   0   3  19 1672.16   79.16
   0  -3 -19 1517.09   98.11
   0   3  20  129.28   16.75
   0  -3 -20   89.87   21.40
   0   3  20  136.53   13.49
   0  -3 -20  177.01   21.74
   0   3 -20  121.51   25.79
   0   3 -20  115.79   39.48
   0   3 -21 1709.85  103.16
   0  -3 -21 1857.21  102.96
   0   3 -21 1638.46   98.17
   0   3 -22   50.92   21.20
   0   3 -22   43.34   34.36
   0  -3 -22   58.63   29.31
   0  -3 -23   -0.33    3.39
   0   3 -23   -2.06    4.05
   0   3 -24   67.67   31.24
   0   3 -24   -1.79   10.37
   0  -3 -24   99.11   25.52
   0   4   0  152.81   12.43
   0   4   0  111.87   20.14
   0  -4   0  110.54   19.08
   0  -4   0  117.38   18.35
   0   4  -1 3908.64  196.02
   0  -4   1 3632.93  168.70
   0   4   1 3906.78  198.48
   0   4  -1 3815.19  198.28
   0  -4   1 3584.21  189.50
   0  -4  -1 3597.04  214.89
   0  -4  -1 3825.29  179.07
   0   4   1 3810.67  229.45
   0  -4   2  429.12   22.80
   0   4  -2  485.36   52.11
   0   4  -2  453.45   23.33
   0   4   2  430.45   34.50
   0  -4  -2  464.22   24.79
   0   4   2  425.60   24.46
   0  -4  -2  426.80   33.83
   0  -4   2  422.54   34.10
   0   4   3 5531.75  282.16
   0   4  -3 5507.89  272.72
   0  -4   3 5417.29  296.92
   0  -4   3 5307.35  279.57
   0  -4  -3 5753.36  309.01
   0   4   3 5235.23  314.40
   0   4  -3 5624.74  300.11
   0  -4  -3 5250.12  285.82
   0  -4   4  213.56   24.59
   0   4  -4  229.25   16.09
   0   4   4  219.08   23.80
   0  -4  -4  220.88   38.68
   0   4   4  251.25   27.39
   0  -4   4  207.65   25.13
   0   4  -4  220.88   22.07
   0  -4  -4  229.72   17.48
   0  -4  -5 7047.71  375.55
   0  -4   5 6737.50  352.15
   0  -4   5 6514.30  397.68
   0   4   5 7798.61  409.25
   0   4   5 6559.56  368.84
   0   4  -5 6309.17  348.36
   0  -4  -5 6938.10  384.06
   0   4  -5 6580.57  342.91
   0   4  -6  389.24   25.52
   0  -4  -6  403.27   24.73
   0   4   6  383.86   44.33
   0   4  -6  390.24   23.00
   0  -4  -6  398.75   28.91
   0  -4   6  366.58   29.91
   0  -4   6  406.46   23.26
   0   4   6  387.05   23.20
   0   4   7 2841.15  146.36
   0  -4   7 2923.24  153.48
   0   4  -7 3147.57  161.05
   0  -4   7 3037.77  140.52
   0  -4  -7 3146.84  149.95
   0   4   7 2933.08  140.91
   0   4  -7 2928.23  143.64
   0  -4  -7 3060.63  173.55
   0   4  -8  107.81   18.88
   0   4  -8   70.19   11.63
   0  -4  -8   78.17   11.63
   0  -4   8   66.80   14.82
   0  -4   8   55.90   20.54
   0  -4  -8   85.08   24.33
   0   4   8   66.40   10.77
   0   4   8   76.90   14.36
   0   4   9 3815.92  192.16
   0  -4   9 3864.64  206.59
   0   4   9 3889.37  205.32
   0  -4  -9 4242.92  217.29
   0   4  -9 3885.31  210.18
   0  -4   9 4029.35  216.76
   0  -4  -9 4317.96  217.35
   0   4  -9 4029.09  208.91
   0   4  10  230.98   21.80
   0   4 -10  215.63   19.61
   0   4  10  219.55   18.68
   0  -4  10  211.90   21.27
   0  -4 -10  281.43   31.11
   0   4 -10  225.26   14.56
   0  -4  10  229.38   19.81
   0  -4 -10  232.77   20.74
   0   4 -11  938.28   49.05
   0  -4  11  914.81   50.98
   0   4 -11  943.13   40.35
   0  -4 -11  968.12   49.98
   0  -4 -11  923.19   49.32
   0  -4  11  932.49   48.26
   0   4  11  962.87   63.08
   0   4  11  950.71   52.51
   0   4  12  171.22   27.72
   0  -4 -12  153.08   16.88
   0  -4 -12  168.96   16.82
   0   4 -12  159.19   15.89
   0  -4  12  147.30   18.48
   0   4 -12  151.02   31.31
   0  -4  12  153.34   18.21
   0   4  12  154.27   18.21
   0  -4 -13 1597.05   96.05
   0  -4  13 1675.88   84.88
   0   4  13 1589.07   83.22
   0  -4  13 1628.89  104.42
   0   4  13 1678.48  100.57
   0  -4 -13 1686.52   83.35
   0   4 -13 1592.27   65.47
   0   4 -13 1575.78  101.17
   0   4 -14   99.77   17.81
   0  -4  14   95.05   18.35
   0  -4 -14  114.13   25.46
   0   4  14  126.22   25.59
   0  -4 -14  106.28   24.19
   0  -4  14  117.18   24.46
   0   4  14  127.49   26.59
   0   4 -14  103.96   12.03
   0   4 -15  447.00   18.21
   0  -4  15  460.16   39.02
   0  -4 -15  441.09   41.34
   0  -4 -15  441.69   42.74
   0   4  15  469.47   44.73
   0  -4  15  458.64   35.23
   0   4 -15  441.42   34.56
   0   4  15  442.28   30.78
   0  -4 -16   53.91   12.56
   0  -4  16   48.46    9.77
   0   4 -16   51.25   16.28
   0   4  16   55.50   13.23
   0  -4  16   49.98   16.35
   0   4  16   46.66   12.43
   0   4 -16   47.26    7.84
   0   4  17  756.95   40.75
   0   4 -17  728.77   50.72
   0  -4 -17  828.27   49.92
   0   4 -17  719.46   31.44
   0  -4 -17  750.50   44.40
   0  -4  17  792.98   53.64
   0   4  17  767.78   44.14
   0  -4  17  775.49   47.66
   0   4 -18   15.75   13.76
   0   4  18   17.08   15.22
   0   4  18   15.62    7.78
   0  -4 -18   16.42   11.63
   0  -4 -18   15.75   10.17
   0  -4  18    7.58   24.59
   0   4  19   31.57    8.18
   0  -4 -19   -2.73    7.11
   0   4  19   33.83    9.24
   0   4 -19   26.39   14.76
   0  -4  19   30.84   15.89
   0  -4 -19   25.46   21.54
   0   4  20    1.73    5.25
   0  -4 -20    3.59    8.51
   0  -4 -20    0.00    3.66
   0   4 -20    1.46   10.44
   0  -4  20   -1.20   11.10
   0   4  20   12.36    8.04
   0   4 -21   79.76   41.68
   0  -4 -21  103.03   20.21
   0   4 -21   87.47   22.87
   0  -4 -22    0.27    3.52
   0   4 -22    2.59   18.28
   0  -4 -22    5.65   14.42
   0   4 -22    2.92    9.97
   0  -4 -23    2.33    3.59
   0   4 -23    2.19   19.81
   0   4 -23   -7.58    4.25
   0  -4 -23    8.57    8.57
   0  -4 -24    9.64   10.70
   0  -4 -24    2.73    4.65
   0   5   0    4.39    5.98
   0   5   0    3.46   10.17
   0  -5   0   -1.26   16.68
   0  -5   0    3.99    9.44
   0  -5   1  176.41   24.86
   0  -5  -1  198.34   15.69
   0   5  -1  227.99   45.07
   0   5   1  182.86   16.22
   0  -5  -1  181.19   25.52
   0  -5   1  181.33   23.66
   0   5   1  203.73   27.19
   0   5  -1  203.73   16.88
   0   5   2  116.45   22.93
   0  -5  -2  136.26   37.02
   0   5   2  126.49   23.13
   0   5  -2  139.52   22.53
   0  -5   2  115.99   20.54
   0  -5  -2  132.07   13.49
   0  -5   2  129.28   21.54
   0   5  -2  120.11   22.93
   0  -5  -3  605.80   44.87
   0   5   3  597.76   65.87
   0  -5  -3  598.95   32.17
   0  -5   3  596.29   65.87
   0  -5   3  586.79   41.81
   0   5   3  556.81   32.17
   0   5  -3  629.79   63.41
   0   5  -3  589.65   44.53
   0   5   4   70.86   12.03
   0   5   4   65.80   18.08
   0  -5   4   56.57   18.35
   0   5  -4   69.73   17.41
   0   5  -4   63.68   19.28
   0  -5  -4   65.74   29.91
   0  -5   4   62.55   18.28
   0  -5  -4   68.20   11.43
   0  -5   5   84.75   19.61
   0   5   5   95.12   22.27
   0  -5  -5   95.98   19.08
   0  -5   5   83.42   21.07
   0   5   5   81.62   19.21
   0  -5  -5  109.81   13.03
   0   5  -5   93.19   12.70
   0   5  -5   86.54   16.95
   0  -5  -6  542.32   30.91
   0  -5   6  524.57   30.11
   0   5  -6  516.46   29.65
   0   5   6  572.23   32.24
   0  -5  -6  517.20   38.62
   0   5  -6  474.59   34.10
   0  -5   6  503.30   60.69
   0   5   6  507.29   39.28
   0   5   7  982.74   49.92
   0   5  -7  804.01   58.36
   0   5  -7  860.84   50.52
   0   5   7  919.67   79.56
   0  -5   7  939.41   47.53
   0  -5  -7  945.26   80.16
   0  -5   7  905.77   81.42
   0  -5  -7 1002.09   64.74
   0  -5   8  610.85   64.94
   0   5   8  673.53   51.31
   0   5  -8  592.77   36.23
   0   5  -8  636.11   36.69
   0   5   8  639.96   64.87
   0  -5  -8  651.53   49.45
   0  -5   8  640.10   36.56
   0  -5  -8  656.85   44.73
   0  -5   9  328.09   25.32
   0  -5  -9  335.80   23.93
   0   5  -9  302.10   23.06
   0   5   9  311.01   23.13
   0  -5   9  307.75   30.31
   0   5  -9  317.26   38.62
   0   5   9  313.47   30.24
   0  -5  -9  346.97   30.78
   0  -5  10  606.40   43.60
   0   5 -10  610.32   37.95
   0  -5 -10  642.09   37.22
   0   5  10  630.99   44.07
   0  -5  10  631.99   54.77
   0   5 -10  601.21   33.57
   0  -5 -10  637.50   60.89
   0   5  10  550.10   34.03
   0  -5  11 1095.28   86.21
   0   5 -11 1063.77   52.18
   0   5  11 1077.86   57.43
   0   5  11 1084.51   64.67
   0  -5  11 1112.96   59.62
   0  -5 -11 1100.66   74.98
   0   5 -11 1086.24   59.62
   0  -5 -11 1150.18   65.67
   0  -5  12  303.36   27.32
   0   5  12  293.66   24.53
   0  -5 -12  316.92   29.25
   0  -5 -12  328.49   25.66
   0   5  12  304.83   45.66
   0  -5  12  312.67   44.67
   0   5 -12  311.87   19.81
   0   5 -12  289.54   42.94
   0   5  13  991.39   80.69
   0  -5 -13 1036.19   74.25
   0   5 -13  951.90   56.63
   0  -5  13  988.66   58.83
   0  -5  13 1020.43   79.16
   0  -5 -13 1000.36   58.36
   0   5 -13  957.82   44.40
   0   5  13  965.73   53.91
   0  -5  14  940.14   55.30
   0   5 -14  890.75   49.25
   0   5  14  879.39   74.98
   0  -5 -14 1008.40   57.63
   0  -5 -14  888.69   72.92
   0   5  14  861.37   51.18
   0  -5  14  871.67   56.23
   0   5 -14  859.31   55.37
   0   5  15 1157.29   68.53
   0  -5  15 1187.00   72.65
   0  -5 -15 1173.84   87.61
   0   5  15 1151.64   65.07
   0  -5 -15 1286.64   71.32
   0  -5  15 1218.84   66.00
   0   5 -15 1152.17   69.73
   0   5 -15 1123.66   48.19
   0  -5 -16  656.78   61.42
   0   5  16  595.89   41.48
   0  -5  16  593.63   71.92
   0  -5 -16  598.49   40.21
   0   5 -16  546.77   31.11
   0   5  16  559.14   38.55
   0   5 -16  564.79   45.40
   0  -5  16  589.71   47.46
   0   5 -17 1229.61   77.97
   0   5  17 1277.80   72.12
   0  -5 -17 1217.11   69.46
   0   5  17 1191.59   69.06
   0  -5 -17 1346.26   92.06
   0  -5  17 1315.55   65.74
   0  -5  17 1253.61   80.10
   0  -5  18  715.07   57.56
   0   5  18  657.38   41.81
   0  -5 -18  758.21   49.85
   0   5 -18  649.34   53.77
   0   5  19  586.66   52.11
   0   5 -19  598.22   52.58
   0  -5  19  643.42   55.57
   0  -5 -19  713.68   69.73
   0   5  20  449.40   43.94
   0   5 -20  395.96   45.66
   0  -5  20  437.50   48.66
   0  -5 -20  512.74   40.68
   0  -5 -21  945.46   60.35
   0  -5  21  780.74   67.40
   0   5 -21  737.27   64.47
   0   5  21  830.26   59.69
   0  -5 -22  557.08   63.81
   0   5 -22  415.23   49.72
   0   6   0 2227.58  111.27
   0   6   0 2439.61  172.69
   0  -6   0 2251.31  110.80
   0  -6   0 2334.13  137.79
   0   6   1  680.71   56.76
   0   6  -1  671.47   40.68
   0  -6  -1  707.96   56.57
   0   6   1  628.07   38.82
   0  -6  -1  661.17   54.37
   0  -6   1  657.91   38.49
   0   6  -1  690.55   55.37
   0  -6   1  658.97   54.77
   0   6  -2 2827.06  141.78
   0  -6  -2 2774.08  162.72
   0   6   2 2844.67  146.23
   0   6  -2 3176.02  211.97
   0   6   2 2940.85  170.29
   0  -6   2 2602.39  131.34
   0  -6   2 2788.18  163.91
   0  -6  -2 2923.11  169.96
   0  -6   3  366.84   27.39
   0   6   3  377.21   29.05
   0  -6  -3  427.00   65.34
   0  -6  -3  450.39   45.66
   0   6  -3  433.78   42.34
   0  -6   3  386.52   64.94
   0   6   3  411.64   70.39
   0   6  -3  385.12   28.45
   0   6   4 2604.99  131.21
   0   6   4 2645.87  153.21
   0   6  -4 2673.18  148.69
   0   6  -4 2502.03  125.69
   0  -6  -4 2639.75  132.47
   0  -6   4 2510.14  149.62
   0  -6  -4 2716.06  155.60
   0  -6   4 2438.55  123.70
   0   6  -5  927.97   62.41
   0  -6  -5 1002.09   54.17
   0   6   5  911.49   66.00
   0   6   5  988.19   75.18
   0  -6   5  874.80   70.99
   0   6  -5  867.55   51.05
   0  -6  -5  984.07   93.85
   0  -6   5  904.91   66.40
   0  -6   6 3160.80  165.18
   0  -6  -6 3595.04  183.26
   0   6   6 3601.89  204.13
   0   6   6 3280.71  189.50
   0   6  -6 3180.94  164.98
   0  -6   6 3339.54  195.35
   0  -6  -6 3496.60  198.48
   0   6  -6 3226.07  181.86
   0   6  -7  386.92   31.04
   0  -6  -7  513.61   49.19
   0   6   7  440.82   30.24
   0  -6  -7  387.38   62.68
   0  -6   7  388.25   62.02
   0   6  -7  374.62   35.30
   0  -6   7  383.26   30.44
   0   6   7  396.55   63.21
   0  -6  -8 2001.85  116.59
   0  -6   8 1869.57  142.04
   0   6   8 2123.88  106.28
   0  -6  -8 1966.55   99.64
   0   6   8 1931.59  145.97
   0  -6   8 1770.20   93.65
   0   6  -8 1704.53  120.77
   0   6  -8 1763.82  118.12
   0  -6   9  665.89   76.11
   0   6  -9  611.71   62.55
   0  -6  -9  752.56   43.07
   0  -6  -9  738.34   55.77
   0   6   9  758.81   44.53
   0   6  -9  644.15   43.74
   0   6   9  678.58   78.90
   0  -6   9  687.82   64.08
   0   6  10 1475.15   76.97
   0   6  10 1390.60  115.12
   0  -6 -10 1461.45   95.85
   0   6 -10 1294.48   73.45
   0   6 -10 1265.04   71.52
   0  -6  10 1382.42  112.20
   0  -6 -10 1494.22  121.37
   0  -6  10 1308.97   73.58
   0   6 -11   54.70   17.41
   0  -6 -11   74.38   20.61
   0   6  11   64.01   14.89
   0  -6  11   63.54   32.37
   0   6  11   59.09   34.70
   0  -6 -11   85.68   14.69
   0  -6  11   60.95   17.28
   0   6 -11   64.74   14.16
   0  -6 -12 1068.09   68.53
   0   6  12 1027.88   95.25
   0  -6 -12 1117.41   80.03
   0  -6  12 1122.66   88.07
   0  -6  12 1049.15   67.80
   0   6 -12  976.16   61.75
   0   6 -12  980.28   53.91
   0   6  12 1055.33   78.57
   0   6 -13  386.65   26.06
   0   6 -13  380.60   37.16
   0   6  13  418.36   48.39
   0  -6  13  415.03   37.09
   0  -6 -13  427.06   32.24
   0  -6 -13  422.88   61.02
   0   6  13  406.52   59.89
   0  -6  13  392.37   35.96
   0   6  14  667.81   43.67
   0  -6  14  727.17   50.58
   0  -6  14  646.54   50.38
   0  -6 -14  739.87   63.08
   0  -6 -14  708.83   52.71
   0   6 -14  639.50   75.84
   0   6  14  678.45   72.38
   0   6 -14  651.26   47.19
   0   6 -15    6.58   11.83
   0   6  15   13.49   11.30
   0   6  15   13.23   12.36
   0  -6  15    5.65   26.65
   0  -6 -15   45.53   10.50
   0   6 -15    7.84   26.19
   0  -6 -15    3.59   13.63
   0  -6  15    7.18   20.61
   0   6 -16  341.38   27.45
   0  -6  16  368.37   42.41
   0   6 -16  328.49   37.75
   0  -6  16  344.64   39.75
   0   6  16  328.89   29.65
   0  -6 -16  362.65   53.11
   0   6 -17   77.77   24.46
   0   6  17   83.02   17.08
   0  -6  17   89.47   43.87
   0  -6  17   80.96   14.69
   0  -6 -17   97.64   20.54
   0  -6  18  142.38   30.71
   0   6 -18  138.99   29.84
   0  -6 -18  160.79   23.33
   0   6  18  133.40   20.67
   0  -6 -19    6.38    7.71
   0   6  19    2.66    4.79
   0   6 -19    3.66   13.63
   0  -6 -19    0.47   10.24
   0  -6  19    2.26   14.56
   0   6  19    4.99    8.77
   0  -6 -20   46.73   19.87
   0   6  20   -0.80    5.18
   0   6 -20   28.38   15.69
   0  -6  20   26.52   27.72
   0   6  20   40.81   15.69
   0  -6 -20   -4.59    8.51
   0  -6 -21   80.36   14.96
   0   6  21   -0.86   10.17
   0  -6 -21    1.40   10.97
   0   6  21   49.52   19.21
   0  -7   0   15.55   15.42
   0  -7   0    3.52    8.51
   0   7   0    8.31   15.29
   0   7   0    1.06   16.15
   0   7  -1   37.09   13.23
   0   7   1   33.90   23.80
   0  -7   1   36.43   21.67
   0  -7  -1   27.98   20.94
   0  -7   1   32.37   12.03
   0   7  -1   37.16   22.20
   0   7   1   36.62   21.80
   0  -7  -1   39.22   38.35
   0   7   2   66.47   41.61
   0   7  -2   62.21   24.93
   0   7   2   53.04   26.72
   0  -7   2   73.38   41.01
   0  -7   2   45.80   23.60
   0   7  -2   53.11   15.42
   0  -7  -2   65.74   23.60
   0  -7  -2   68.40   24.33
   0   7  -3   32.04   13.89
   0  -7  -3   42.74   13.03
   0  -7   3   35.89   21.87
   0   7  -3   39.22   35.16
   0  -7   3   40.48   22.13
   0   7   3   46.00   39.48
   0  -7  -3   39.42   22.40
   0   7   3   37.22   24.19
   0   7  -4  241.22   34.76
   0  -7   4  208.58   23.00
   0   7  -4  206.45   38.15
   0   7   4  227.52   36.16
   0  -7  -4  243.61   59.56
   0  -7   4  225.13   36.69
   0  -7  -4  240.75   23.80
   0  -7  -5   21.27   20.01
   0  -7  -5   24.19   19.87
   0  -7   5   24.00   12.43
   0   7  -5   25.79   17.95
   0   7   5   31.37   19.61
   0  -7   5   24.13   19.67
   0   7  -5   21.87   12.96
   0   7   5   20.21   19.74
   0   7   6  496.06   50.18
   0  -7  -6  536.40   82.49
   0  -7   6  484.16   49.85
   0   7  -6  494.86   72.38
   0  -7  -6  521.25   34.83
   0  -7   6  463.55   54.77
   0   7  -6  471.53   37.02
   0   7   6  488.81   49.72
   0  -7  -7   49.72   13.23
   0   7   7   36.23   22.20
   0  -7   7   34.30   14.62
   0  -7  -7   35.10   21.87
   0   7  -7   30.44   18.48
   0   7   7   37.89   36.03
   0  -7   7   32.84   20.94
   0   7  -7   30.64   26.99
   0  -7   8  688.62   58.76
   0  -7   8  640.03   45.27
   0  -7  -8  748.71   95.38
   0   7   8  759.87   45.60
   0   7  -8  632.59   74.51
   0  -7  -8  709.82   59.22
   0   7  -8  653.32   46.93
   0   7   8  723.25   91.39
   0  -7  -9   17.41   11.30
   0  -7  -9   24.93   19.28
   0   7   9   24.99   31.84
   0  -7   9   19.14   30.18
   0   7  -9   17.75   24.79
   0  -7   9   15.09   23.26
   0   7  -9   25.66   24.86
   0   7   9   21.14   11.77
   0   7  10  910.23  102.03
   0   7 -10  827.87   56.90
   0   7  10  958.95   55.17
   0   7 -10  825.01   56.23
   0  -7  10  900.39   67.27
   0  -7  10  809.59   55.24
   0  -7 -10 1011.39  108.21
   0  -7 -10  856.32   68.66
   0   7 -11   -0.86   10.10
   0  -7 -11   17.02    9.04
   0  -7  11    5.58   13.16
   0  -7 -11    2.39   14.09
   0  -7  11   -0.66   11.57
   0   7  11    3.39   24.59
   0   7  11    2.66    9.17
   0   7 -11    3.52   12.03
   0  -7 -12 1375.78   90.80
   0   7  12 1391.53   77.90
   0   7 -12 1152.57  110.14
   0  -7  12 1210.47  106.22
   0  -7 -12 1342.61  124.83
   0  -7  12 1338.09   89.87
   0   7  12 1353.31  125.03
   0   7 -12 1162.68   70.06
   0  -7  13   10.17   13.03
   0  -7  13   -0.07   12.50
   0   7 -13    6.58    8.71
   0   7  13   23.46   21.20
   0   7 -13    5.65   13.09
   0  -7 -13   -1.40    4.59
   0   7  13   31.84    9.90
   0  -7 -13   11.30   14.42
   0  -7 -14 1337.36   89.87
   0   7  14 1244.37   93.19
   0   7 -14 1106.78   61.62
   0  -7  14 1357.83   87.01
   0   7 -14 1126.65   79.63
   0  -7  14 1192.79  112.93
   0  -7 -15    3.99    6.65
   0   7 -15    3.92   13.96
   0   7 -15    4.39    6.85
   0  -7  15   -0.60   18.81
   0  -7 -15    3.06   22.40
   0  -7  15    3.12   13.49
   0   7  15   30.38   16.48
   0   7  15    0.33    7.05
   0   7  16 1053.00   83.35
   0  -7  16  990.79   61.95
   0  -7  16  942.00   74.91
   0   7 -16  925.71   48.59
   0  -7 -16 1058.12   75.44
   0   7 -16  920.26   73.32
   0   7  17    0.60    3.86
   0  -7 -17   -2.19    3.06
   0  -7  17    0.86   17.95
   0   7  17   17.28   11.77
   0   7 -17    2.46   18.21
   0  -7 -17    1.93    8.71
   0  -7 -18  997.37   99.17
   0   7 -18  820.03  113.79
   0   7  18  963.87   61.88
   0  -7  18  885.37   75.18
   0   7  19   17.55   10.97
   0  -7 -19    2.19    8.04
   0   7  19    4.59    9.24
   0  -8   0 2153.00  121.97
   0  -8   0 2214.88  150.69
   0   8   0 1855.35  142.71
   0   8   0 2490.53  165.04
   0   8   1  539.33   62.55
   0  -8  -1  513.01   65.34
   0   8  -1  437.17   41.74
   0  -8   1  442.75   40.01
   0  -8  -1  509.88   59.76
   0  -8   1  468.01   57.50
   0   8  -1  560.47  100.04
   0   8   1  441.29   42.34
   0  -8  -2 1522.47   89.20
   0   8  -2 1385.48   85.35
   0   8  -2 1562.42  111.14
   0  -8  -2 1588.34  160.39
   0   8   2 1585.15  163.25
   0  -8   2 1604.10  163.58
   0   8   2 1346.06   82.29
   0  -8   2 1356.96   82.75
   0  -8  -3  496.32   59.36
   0   8  -3  423.87   41.74
   0  -8   3  428.33   39.55
   0  -8   3  471.20   59.09
   0   8   3  465.35   38.55
   0   8  -3  524.71   57.50
   0   8   3  517.79   60.95
   0  -8  -3  505.30   40.68
   0   8   4 1574.65   90.00
   0  -8   4 1507.45  118.58
   0   8   4 1752.99  124.76
   0   8  -4 1561.36  128.02
   0  -8   4 1733.18  124.76
   0  -8  -4 1759.04  126.49
   0   8  -4 1772.53  120.31
   0  -8  -4 1583.29  118.12
   0  -8   5  230.98   31.37
   0   8   5  288.48   45.60
   0   8  -5  291.07   43.60
   0  -8  -5  336.53   76.24
   0  -8  -5  280.50   29.65
   0  -8   5  291.40   46.66
   0   8  -5  262.82   33.10
   0   8   5  268.67   28.18
   0   8   6 1202.96   69.33
   0  -8   6 1069.22   70.52
   0  -8  -6 1237.45   96.51
   0  -8  -6 1214.06   94.25
   0  -8   6 1211.40   94.78
   0   8  -6 1243.17   92.33
   0   8  -6 1021.63   97.24
   0   8   6 1195.38   93.26
   0  -8  -7  514.00   38.49
   0   8   7  518.72   39.15
   0  -8   7  533.61   57.30
   0  -8   7  433.18   66.07
   0  -8  -7  557.21   96.65
   0   8  -7  447.67   44.00
   0   8   7  549.63   90.93
   0   8  -7  534.08   84.75
   0   8   8 1371.99  143.37
   0  -8   8 1274.54   95.45
   0  -8   8 1174.31   76.51
   0  -8  -8  948.51   70.79
   0  -8  -8 1395.52  102.83
   0   8  -8 1135.96  106.42
   0   8  -8 1200.76   87.27
   0   8   8 1337.62   74.31
   0   8  -9  219.48   53.84
   0   8   9  211.37   43.01
   0  -8   9  184.65   50.45
   0   8  -9  190.57   32.44
   0   8   9  234.30   69.66
   0  -8   9  223.67   39.35
   0  -8  -9  263.02   44.47
   0   8 -10  824.08   65.27
   0   8  10  984.87   79.43
   0  -8  10  836.78   62.88
   0  -8 -10  995.51   80.43
   0   8 -10  853.66   97.04
   0  -8  10  950.91   77.04
   0   8  10  971.25  119.38
   0  -8 -11  295.39   44.67
   0   8  11  272.79   44.53
   0  -8  11  282.29   40.48
   0  -8  11  231.64   34.50
   0   8  11  397.75   67.53
   0   8 -11  226.39   35.49
   0   8 -11  221.14   32.04
   0  -8  12  818.23   67.67
   0   8 -12  703.64   62.02
   0  -8  12  707.83   89.40
   0   8 -12  683.30   53.37
   0  -8 -12  819.43   72.12
   0   8  12  879.58   74.45
   0   8  13    0.33   20.54
   0  -8  13   67.53   21.67
   0  -8  13   38.68   21.27
   0  -8 -13   52.24   43.94
   0   8 -13   62.95   27.12
   0   8  13   57.23   27.32
   0   8 -13   40.41   23.00
   0  -8 -14  407.99   50.78
   0   8  14  428.53   54.84
   0   8 -14  309.35   73.85
   0  -8  14  418.82   68.60
   0  -8  14  401.67   75.24
   0  -8  15  157.80   45.46
   0   8 -15  130.61   32.84
   0  -8 -15  166.97   56.30
   0   8  15  173.28   38.09
   0  -8  15  143.24   32.84
   0   8 -15  125.36   33.23
   0  -8  16  151.28   24.79
   0  -8 -16  194.62   35.43
   0   8  16  171.56   24.26
   0   8 -16  142.51   36.23
   0  -9   0   -0.86   13.63
   0   9   0   -0.40   15.49
   0  -9   0   -0.93    5.12
   0   9   0    3.92   13.76
   0  -9  -1   38.49   23.13
   0   9   1   26.52   14.36
   0  -9   1   -9.64   15.29
   0  -9  -1    0.73   10.83
   0   9  -1   36.16   23.20
   0   9  -1   25.99   15.49
   0   9   1   27.65   40.15
   0  -9   1   20.54   38.75
   0  -9  -2    0.20    4.19
   0   9  -2    2.06   25.92
   0   9  -2    6.31    9.70
   0   9   2   11.77    8.64
   0  -9   2  -19.54    6.91
   0  -9  -2    5.25   15.15
   0  -9   2    7.31   14.96
   0   9   2   12.56   29.78
   0  -9  -3    0.66    7.71
   0  -9  -3   16.75   28.91
   0   9  -3   12.96   16.95
   0   9  -3    7.91   18.68
   0   9   3   -0.40    9.51
   0  -9   3    7.51   16.55
   0   9   3   19.87   18.94
   0  -9   3  -14.69   14.22
   0   9  -4   65.14   19.08
   0  -9  -4   67.27   28.58
   0  -9   4    8.51   12.16
   0   9  -4   65.74   47.92
   0   9   4    0.20   26.72
   0  -9   4   56.30   27.05
   0   9   4   64.67   30.24
   0  -9   5   67.60   19.28
   0   9  -5  166.17   29.11
   0  -9  -5  209.05   42.34
   0  -9   5  180.40   39.88
   0   9   5  178.00   38.42
   0   9  -5  196.75   39.62
   0   9   5  192.56   42.87
   0   9  -6   62.68   21.80
   0   9  -6   73.58   49.32
   0  -9   6   29.38   14.69
   0  -9  -6   68.20   53.91
   0  -9   6    2.06   28.25
   0   9   6   61.28   16.02
   0   9   6   73.98   53.11
   0  -9  -7    0.13   11.17
   0  -9  -7   73.18   29.71
   0  -9   7    1.20   26.06
   0   9   7   74.18   15.22
   0  -9   7   31.97   13.49
   0   9   7   81.49   50.58
   0   9  -7   63.94   21.00
   0   9  -7   74.64   25.13
   0   9   8  327.89   31.04
   0   9   8  370.50   89.00
   0   9  -8  338.46   74.11
   0  -9   8  129.55   41.81
   0  -9   8  324.30   47.79
   0   9  -8  305.49   40.28
   0  -9  -8  367.77   56.23
   0   9   9  382.13   33.97
   0  -9  -9  393.43   57.03
   0   9  -9  313.47   69.53
   0   9   9  406.99   91.66
   0  -9   9  372.03   50.52
   0   9  -9  340.52   47.06
   0  -9  10   37.55   30.84
   0   9  10   -6.71   25.99
   0  -9 -10  172.89   39.48
   0   9 -10  148.16   30.97
   0   9 -10  147.16   49.45
   0   9  10  177.80   22.00
   0  -9  10  144.57   33.23
   0   9 -11  415.63   82.89
   0   9 -11  401.27   46.66
   0  -9  11  479.44   54.24
   0  -9 -11  500.98   99.77
   0   9  11  483.30   57.76
   0  -9  12  295.52   42.87
   0  -9 -12  313.93   52.24
   0   9 -12  272.99   71.65
   0   9 -12  247.20   36.09
   0   9  12  311.41   49.85
   0  -9  13  516.20   52.84
   0   9 -13  447.54   45.00
   0   9  13  591.04   64.28
   0  -9 -13  549.63  101.83
   0  10   0  156.14   46.06
   0 -10   0   83.62   75.11
   0  10   0   87.74   51.45
   0 -10   1 1309.84  174.61
   0 -10  -1 1297.61  116.92
   0  10   1 1328.58  178.34
   0  10  -1 1378.97  122.83
   0  10   1 1144.20   82.55
   0  10  -1 1093.22   84.08
   0  10   2    0.80   12.36
   0  10  -2    8.44   37.16
   0  10  -2   12.23   15.02
   0  10   2   15.02   21.80
   0 -10  -2   12.83   21.20
   0 -10  -2   -0.53    6.38
   0 -10   2   14.22   20.47
   0 -10   2    2.33    7.31
   0  10  -3 1114.22  128.75
   0 -10   3 1274.14  115.19
   0  10   3 1121.40  108.88
   0  10   3 1267.10  119.58
   0  10  -3 1344.60  119.64
   0 -10  -3 1257.00  118.38
   0  10  -4   80.43   30.84
   0 -10  -4   78.50   74.71
   0  10  -4  106.15   41.94
   0  10   4  105.02   24.00
   0 -10   4  119.64   41.48
   0  10   5  742.59   55.17
   0 -10   5  805.47   86.08
   0  10  -5  672.13   98.64
   0 -10  -5  886.56   95.18
   0 -10  -6    0.07    4.39
   0 -10   6    0.20   17.08
   0  10  -6   -1.66   13.56
   0 -10  -6    9.17   19.67
   0  10   6    7.38    9.57
   0  10  -6    7.05   17.22
   0 -10   6    1.33    6.51
   0  10  -7  939.14  133.74
   0  10  -7  755.82  108.94
   0  10   7  851.27   82.22
   0 -10   7  851.20   86.14
   0  10   8   50.12   24.13
   0  10  -8   42.34   23.53
   0  10  -8   37.95   21.47
   0 -10  -8    0.47    9.90
   0 -10   8    2.39   23.60
   1   0   0   29.38    3.06
  -1   0   0   27.32    5.65
  -1   0   0   21.34    5.72
   1   0   0   29.18    3.06
   1   0   1   39.75    7.05
  -1   0  -1   35.23    5.98
  -1   0   1   35.43    4.19
   1   0   1   36.96    2.66
  -1   0  -1   38.09    4.05
   1   0  -1   38.49    4.39
   1   0  -1   40.55    3.99
  -1   0   1   38.68    5.18
   1   0  -2  299.51    8.38
  -1   0   2  282.83   12.50
  -1   0   2  293.79   10.97
   1   0   2  305.96    8.71
   1   0  -2  299.71   13.29
  -1   0  -2  283.89    8.64
   1   0   2  296.58   11.77
  -1   0  -2  305.16   11.83
  -1   0   3   47.92    3.32
  -1   0  -3   47.19    3.32
   1   0  -3   49.19   11.50
  -1   0  -3   49.72    5.05
  -1   0   3   43.01    6.05
   1   0   3   44.20    4.99
   1   0   3   48.59    5.25
   1   0  -3   45.46    3.19
   1   0   4  399.88   15.82
  -1   0   4  377.48   17.68
  -1   0   4  395.62   11.90
  -1   0  -4  428.53   18.61
   1   0  -4  339.06   11.03
  -1   0  -4  480.70   23.33
   1   0  -4  402.74   18.81
   1   0   4  419.02   13.63
  -1   0   5   76.24    2.53
  -1   0  -5   92.59    5.65
   1   0   5   86.08    6.58
  -1   0   5   77.10    8.24
   1   0   5  100.04    5.65
   1   0  -5   85.01   14.89
  -1   0  -5   88.47    6.38
   1   0  -6 2123.22   90.66
   1   0  -6 2312.66   97.38
   1   0   6 2305.94   90.13
  -1   0  -6 2441.61   95.32
   1   0   6 2404.85   94.45
  -1   0  -6 2355.60   99.11
   1   0   7   85.88    6.38
   1   0  -7   81.42    9.17
   1   0   7   79.63    9.84
  -1   0  -7   86.08    6.38
  -1   0  -7   79.43    5.78
   1   0  -7   76.97    8.97
   1   0   8 1480.07   55.90
   1   0   8 1540.49   59.36
   1   0  -8 1441.45   60.89
  -1   0  -8 1554.71   59.56
  -1   0  -8 1504.26   61.35
   1   0  -8 1467.44   61.95
   1   0  -9   10.10    5.72
  -1   0  -9    8.71    4.05
   1   0   9   13.49    4.12
   1   0   9   12.36    5.85
   1   0  -9   10.83    5.72
  -1   0  -9   10.10    3.19
   1   0  10 3172.37  133.14
  -1   0 -10 3269.74  141.91
  -1   0 -10 3229.86  140.98
   1   0 -10 2981.47  137.13
   1   0 -10 3285.16  162.52
   1   0  10 3241.63  136.93
   1   0 -11   61.22    9.97
  -1   0 -11   59.76   11.70
   1   0  11   59.16    8.64
   1   0  11   59.69    9.04
  -1   0 -11   63.15    7.44
   1   0 -11   66.54   16.88
   1   0 -12 1812.34   80.83
  -1   0 -12 1773.39   75.84
  -1   0 -12 1728.59   72.92
   1   0 -12 1742.22   79.30
   1   0  12 1718.09   72.92
   1   0  12 1734.97   68.20
   1   0  13   16.35    3.66
   1   0 -13   24.33    8.51
  -1   0 -13   14.16    6.31
  -1   0 -13   15.35    9.44
   1   0 -13   12.56    7.91
   1   0  13   15.49    6.58
   1   0  14 3410.66  148.49
   1   0 -14 3321.32  161.39
  -1   0 -14 3432.13  176.54
   1   0  14 3384.20  148.16
  -1   0 -14 3307.70  154.94
   1   0 -14 3302.25  181.93
   1   0  15   74.51    9.90
   1   0 -15   66.80   22.20
   1   0 -15   82.49   14.89
   1   0  15   69.86   10.70
  -1   0 -15   78.90   16.42
  -1   0 -15   88.34   18.48
   1   0  16 1789.21   79.70
   1   0 -16 1786.89   88.67
   1   0  16 1723.01   75.04
  -1   0 -16 1762.29   80.76
   1   0 -16 1905.60  115.12
  -1   0 -16 1847.51   86.01
   1   0  17   19.01    4.59
   1   0  17   22.27    6.71
  -1   0 -17   29.31    8.18
  -1   0 -17   21.80    9.17
   1   0 -17   16.88   11.43
   1   0 -17   16.95   11.30
  -1   0 -18 3391.85  190.17
   1   0  18 3173.30  148.82
   1   0 -18 3203.27  167.50
   1   0  18 3214.11  143.84
  -1   0 -18 3179.48  156.87
   1   0 -18 3337.21  172.49
   1   0 -19    5.72   15.82
   1   0  19    6.05    3.59
  -1   0 -19    5.65   13.03
   1   0 -19    2.92    9.64
   1   0  19    1.06    3.06
  -1   0 -19    4.25    6.71
   1   0  20 1908.92   88.20
  -1   0 -20 1952.59  100.90
   1   0 -20 1914.31  104.09
   1   0 -20 1932.65  106.68
  -1   0 -20 1911.91  114.39
   1   0  20 1784.23   74.45
  -1   0 -21    2.53   12.03
  -1   0 -21   46.53    9.84
   1   0 -21    8.18   14.22
   1   0 -21    6.51   26.19
   1   0 -22 1815.34  133.34
   1   0 -22 1816.07  108.01
  -1   0 -22 1870.04  126.22
   1   0 -23    2.66   10.44
  -1   0 -23    5.05    8.44
  -1   0 -23    0.33    3.66
   1   0 -24    0.27    3.26
  -1   0 -24    0.27    3.19
   1   0 -25   23.20   14.09
   1   0 -25    1.06    9.24
  -1   0 -25   19.14   19.08
  -1   0 -25   -0.27    6.31
   1   1   0 4434.15  187.97
  -1   1   0 4970.15  227.06
  -1   1   0 4774.07  225.20
  -1  -1   0 5196.81  240.82
   1   1   0 5180.13  231.84
   1  -1   0 4371.20  208.98
   1  -1   0 5001.73  227.79
  -1  -1   0 5046.73  217.75
  -1   1  -1 1943.75   75.71
   1   1   1 1872.83   71.52
  -1  -1   1 1891.18   69.39
  -1   1  -1 1710.91   77.90
   1   1   1 1643.58   54.64
  -1  -1   1 1729.26   66.07
   1  -1  -1 1806.83   71.19
   1  -1  -1 1727.40   96.71
  -1   1   1 1516.89   84.08
   1  -1   1 1807.16   70.99
  -1   1   1 1775.65   71.52
  -1  -1  -1 1591.27   53.18
   1  -1   1 1715.83   67.33
   1   1  -1 1789.01   61.62
  -1  -1  -1 1846.97   70.39
   1   1  -1 1886.46   70.46
  -1   1  -2 7763.12  391.77
   1  -1  -2 7880.83  397.35
   1   1   2 8120.32  413.84
   1  -1  -2 7582.85  389.84
   1   1   2 6190.46  294.06
  -1  -1   2 8160.13  394.96
  -1  -1   2 6873.56  346.90
  -1   1  -2 7054.82  350.76
  -1   1   2 7318.44  371.10
  -1  -1  -2 6041.90  292.13
  -1   1   2 7812.10  415.83
   1  -1   2 7049.84  359.40
  -1  -1  -2 8300.32  409.58
   1   1  -2 7725.83  386.12
   1   1  -2 7371.81  366.78
   1  -1   2 7758.79  386.25
  -1   1  -3 2309.60   90.73
  -1  -1   3 2277.56   88.34
  -1  -1   3 2109.86   82.95
  -1   1  -3 2154.06   84.55
   1  -1  -3 2336.72  112.86
   1   1   3 2071.11   75.18
   1   1   3 2299.50   91.00
   1  -1  -3 2181.78  107.35
  -1   1   3 2043.66   98.24
   1  -1   3 2202.25   85.35
   1   1  -3 1973.46   77.04
   1   1  -3 2141.17   87.47
  -1   1   3 2159.51   92.39
  -1  -1  -3 1989.55   74.91
  -1  -1  -3 2163.63   86.41
   1  -1   3 2168.22   86.74
   1  -1  -4 3670.15  167.97
  -1   1  -4 3861.05  176.74
  -1  -1   4 3713.49  151.28
  -1  -1   4 3532.03  156.34
   1   1   4 3969.33  172.89
  -1   1  -4 3466.36  151.48
   1  -1  -4 3703.45  169.10
   1  -1   4 4201.37  188.90
  -1   1   4 3756.70  169.70
  -1  -1  -4 3843.24  163.05
   1   1  -4 3602.89  159.26
   1   1  -4 4319.56  193.56
  -1   1   4 4083.79  183.85
   1  -1   4 4127.06  178.40
  -1   1  -5 2010.62   73.85
  -1  -1   5 1984.70   76.17
   1  -1  -5 1939.03   78.70
   1   1   5 1957.91   74.05
  -1  -1   5 1834.88   62.61
   1  -1  -5 1839.20   72.52
   1   1   5 1915.70   72.58
  -1   1  -5 1855.62   69.86
  -1   1   5 1368.73   57.76
   1  -1   5 1563.42   70.19
   1   1  -5 1417.32   57.63
   1   1  -5 1379.50   52.18
  -1   1   5 1477.27   64.34
   1  -1   5 1547.00   68.13
  -1  -1  -5 1532.18   61.35
  -1  -1  -5 1485.98   59.56
   1  -1  -6 7317.91  372.23
   1  -1  -6 7193.14  368.30
  -1  -1   6 6447.56  327.83
  -1  -1   6 7081.68  330.62
   1   1   6 7306.01  362.65
  -1   1  -6 6487.84  336.53
   1   1   6 7418.41  367.91
  -1   1  -6 7327.61  360.00
  -1   1   6 7097.10  370.63
   1  -1   6 7521.23  382.00
  -1   1   6 7895.32  399.21
  -1  -1  -6 6147.92  310.61
  -1  -1  -6 7525.49  366.31
   1   1  -6 6493.89  304.03
   1  -1   6 7054.42  348.83
   1   1  -6 6006.14  303.90
  -1   1  -7 1740.62   69.19
   1  -1  -7 1711.91   69.99
   1   1   7 1750.59   68.00
  -1  -1   7 1751.53   72.19
   1   1   7 1737.90   75.77
   1  -1  -7 1675.42   83.95
  -1   1  -7 1734.64   71.99
   1  -1   7 1688.58   65.27
  -1  -1  -7 1717.96   64.61
  -1   1   7 1707.85   72.92
   1   1  -7 1626.23   77.10
  -1   1   7 1677.94   76.64
   1   1  -7 1565.41   50.05
   1  -1   7 1847.31   78.83
  -1   1  -8 3480.85  154.01
   1   1   8 3625.15  158.06
   1   1   8 3607.54  165.91
  -1   1  -8 3542.40  157.93
   1  -1  -8 3563.80  154.41
   1  -1  -8 3434.59  157.13
  -1   1   8 3309.56  145.97
  -1   1   8 3587.66  163.65
  -1  -1  -8 3502.12  158.00
   1  -1   8 3407.20  149.89
   1   1  -8 3697.34  165.64
   1   1  -8 4062.52  189.70
  -1  -1  -8 3166.72  145.50
   1  -1   8 3593.65  154.81
   1  -1  -9  494.40   16.42
   1   1   9  462.96   19.14
  -1   1  -9  476.12   17.68
  -1   1  -9  503.70   22.40
   1   1   9  487.82   19.48
   1  -1  -9  447.14   23.13
   1  -1   9  478.91   21.20
  -1  -1  -9  433.38   23.40
   1  -1   9  464.55   18.54
   1   1  -9  457.91   23.00
   1   1  -9  429.12   21.40
  -1  -1  -9  476.98   19.41
  -1   1   9  445.67   23.33
  -1   1   9  418.69   22.33
  -1   1 -10 3738.88  169.03
   1   1  10 3597.04  157.33
  -1   1 -10 3672.61  157.07
   1  -1 -10 3860.12  163.78
   1   1  10 3599.10  158.13
   1  -1 -10 3673.68  169.76
   1  -1  10 3587.53  164.38
   1   1 -10 3195.36  148.49
  -1  -1 -10 3435.32  160.52
   1  -1  10 3516.48  170.36
  -1   1  10 3308.10  152.41
  -1  -1 -10 3529.11  166.64
   1   1 -10 3504.51  176.01
  -1   1  10 3506.71  163.58
   1   1  11  722.12   35.56
  -1   1 -11  798.29   45.93
   1  -1 -11  735.15   36.76
   1   1  11  720.86   35.96
   1  -1 -11  710.35   46.46
  -1   1 -11  755.89   27.92
   1   1 -11  734.68   34.83
  -1  -1 -11  757.35   37.82
  -1   1  11  758.28   33.17
   1  -1  11  812.78   44.00
  -1  -1 -11  784.60   32.30
   1  -1  11  790.58   36.89
   1   1 -11  779.62   36.69
  -1   1  11  757.68   24.59
  -1   1 -12 1655.41   85.21
   1  -1 -12 1646.84   77.64
  -1   1 -12 1612.87   62.08
   1   1  12 1524.93   62.48
   1   1  12 1532.64   62.41
   1  -1 -12 1561.82   86.01
   1  -1  12 1717.23   67.86
  -1   1  12 1618.19   67.73
  -1   1  12 1710.85   60.15
   1  -1  12 1755.38   75.44
   1   1 -12 1704.40   76.37
  -1  -1 -12 1693.96   79.96
   1   1 -12 1561.82   70.79
  -1  -1 -12 1722.28   81.76
   1   1  13  240.15   12.83
  -1   1 -13  265.28   27.92
   1  -1 -13  266.47   21.47
  -1   1 -13  250.79   11.43
   1  -1 -13  249.66   30.38
   1   1  13  284.95   20.01
   1   1 -13  306.95   32.64
   1  -1  13  304.89   19.34
  -1   1  13  300.37   12.03
   1   1 -13  316.79   31.84
  -1  -1 -13  287.48   15.89
  -1  -1 -13  293.26   16.15
  -1   1  13  289.27   11.30
   1  -1  13  327.69   19.28
  -1   1 -14 1010.00   37.16
   1   1  14  975.10   38.88
   1   1  14  990.85   39.62
   1  -1 -14 1016.05   67.27
  -1   1 -14 1024.82   61.09
   1  -1 -14  995.97   48.85
  -1   1  14  915.74   37.42
   1  -1  14  976.56   46.00
   1   1 -14  935.22   48.06
  -1   1  14  889.82   31.57
  -1  -1 -14  882.84   40.21
   1   1 -14  859.91   45.07
   1  -1  14  940.74   44.60
  -1  -1 -14  880.38   40.61
   1  -1 -15  411.04   29.05
   1  -1 -15  395.42   26.99
   1   1  15  375.08   24.00
   1   1  15  392.90   18.21
  -1   1 -15  386.25   23.13
  -1   1 -15  410.51   37.95
   1  -1  15  417.76   24.46
   1  -1  15  402.94   15.75
   1   1 -15  403.60   27.72
   1   1 -15  423.54   42.01
  -1   1  15  415.43   14.76
  -1  -1 -15  436.83   33.37
  -1   1  15  462.89   19.61
  -1  -1 -15  392.90   21.87
  -1   1 -16  579.81   43.20
  -1   1 -16  596.16   47.99
   1  -1 -16  623.88   54.97
   1   1  16  566.45   30.44
   1  -1 -16  583.13   34.76
   1   1  16  567.98   30.38
   1  -1  16  539.06   20.47
   1  -1  16  561.73   24.00
   1   1 -16  528.69   34.50
  -1  -1 -16  569.97   40.35
   1   1 -16  555.75   52.31
  -1  -1 -16  543.32   29.51
  -1   1  16  527.56   18.08
  -1   1  16  632.52   24.39
  -1   1 -17   62.48   11.77
   1  -1 -17   42.87   12.03
   1  -1 -17   58.63   13.69
  -1   1 -17   48.99    9.97
   1   1  17   59.02    6.05
   1   1  17   46.13    5.92
   1  -1  17   27.78    4.32
  -1   1  17   31.24    3.92
  -1  -1 -17   28.65    8.91
   1   1 -17   24.86   12.56
  -1  -1 -17   29.11   16.42
   1  -1  17   30.38    9.37
   1   1 -17   31.97   13.43
   1  -1 -18  230.38   23.33
   1  -1 -18  255.11   41.88
  -1   1 -18  250.85   23.13
   1   1  18  249.33   19.54
   1   1  18  238.56   12.76
  -1   1 -18  237.83   32.50
   1   1 -18  252.91   26.45
   1  -1  18  250.79   15.02
  -1  -1 -18  270.00   20.87
   1   1 -18  243.48   39.95
   1  -1  18  269.00   13.89
  -1  -1 -18  247.13   18.74
  -1   1 -19   48.46   14.36
  -1   1 -19   49.32   12.30
   1   1  19   49.72    6.45
   1  -1 -19   53.71   24.53
   1   1  19   46.93   10.70
   1  -1 -19   59.89   16.95
  -1  -1 -19   57.96   12.23
   1  -1  19   56.17    6.78
   1  -1  19   52.51    7.64
  -1  -1 -19   53.31   18.28
   1   1 -19   60.49   15.89
   1   1 -19   58.36   16.95
  -1   1 -20  174.88   32.70
   1  -1 -20  195.88   42.07
   1   1  20  183.19   11.30
  -1   1 -20  183.59   36.82
   1  -1 -20  183.19   23.00
   1   1  20  180.60   17.08
   1  -1  20  188.37   12.56
   1  -1  20  193.36   16.55
  -1  -1 -20  199.74   18.01
   1   1 -20  203.06   43.54
  -1  -1 -20  211.57   31.97
   1   1 -20  198.88   24.93
  -1   1 -21    2.19   15.55
  -1   1 -21    2.26    7.64
   1  -1 -21    4.12    9.24
   1  -1 -21    3.39   10.37
  -1  -1 -21    0.73    4.79
   1   1 -21    8.31   10.77
   1   1 -21   10.97   17.95
  -1  -1 -21    6.25    7.64
  -1   1 -22    0.13    7.11
   1  -1 -22   14.76    7.84
  -1   1 -22    1.99    9.57
   1  -1 -22    3.72   19.41
  -1  -1 -22    0.20    5.18
   1   1 -22    8.04   10.97
  -1  -1 -22    0.66   14.36
   1   1 -22    6.12   11.30
  -1   1 -23    7.31    8.77
   1  -1 -23   -0.93    7.38
  -1   1 -23   -0.40    3.86
  -1  -1 -23   -0.40    2.99
   1   1 -23   20.54    8.57
   1   1 -23   13.29   18.81
  -1   1 -24    2.66    6.45
   1  -1 -24    1.46   18.48
  -1   1 -24    9.37   15.35
   1  -1 -24    0.27    4.59
  -1  -1 -24    0.27    2.92
  -1  -1 -24    3.72    7.98
   1   1 -24    4.05   10.97
   1   1 -24    0.66    3.99
   1  -1 -25    9.84   11.03
   1  -1 -25   -1.26    4.52
  -1   1 -25    5.32    9.11
  -1   1 -25   -0.33    3.92
  -1  -1 -25    5.38   14.16
   1   1 -25    0.60    3.99
  -1  -1 -25    0.80    4.85
   1   1 -25    3.19   11.23
  -1   2   0 1119.21   64.47
   1  -2   0 1099.00   49.32
  -1   2   0 1109.04   52.98
   1   2   0 1196.44   53.18
  -1  -2   0 1095.54   47.99
   1   2   0 1236.99   42.81
  -1  -2   0 1217.25   42.61
   1  -2   0 1094.41   52.11
   1   2   1  599.68   20.27
  -1   2  -1  535.74   25.59
  -1  -2   1  597.42   21.14
  -1   2  -1  601.21   31.24
   1  -2  -1  553.55   45.40
   1  -2  -1  558.27   31.17
   1   2   1  594.50   28.52
  -1  -2   1  509.29   34.76
  -1   2   1  437.76   27.92
   1  -2   1  479.71   23.86
  -1   2   1  452.26   29.18
  -1  -2  -1  548.44   18.61
   1   2  -1  530.76   19.21
  -1  -2  -1  463.42   24.93
   1   2  -1  500.78   27.39
   1  -2   1  469.27   27.52
   1  -2  -2  936.95   48.06
  -1   2  -2  983.34   41.01
   1  -2  -2 1023.09   71.25
   1   2   2 1020.23   45.53
   1   2   2 1000.23   37.02
  -1  -2   2  967.32   35.63
  -1  -2   2  880.18   38.88
  -1   2  -2  973.17   43.74
   1  -2   2 1019.30   41.21
  -1   2   2  963.14   49.05
  -1   2   2 1007.67   48.99
   1   2  -2 1018.50   59.22
   1  -2   2  937.48   42.54
  -1  -2  -2 1073.67   36.76
  -1  -2  -2  990.92   43.47
   1   2  -2 1102.39   39.15
   1  -2  -3  182.59   19.48
  -1   2  -3  176.87   20.47
   1  -2  -3  173.95   31.51
  -1   2  -3  176.54   22.40
  -1  -2   3  184.92   16.15
  -1  -2   3  159.99   12.43
   1   2   3  153.68   14.82
   1   2   3  177.14   14.69
   1  -2   3  244.41   24.19
  -1   2   3  227.06   29.25
  -1  -2  -3  272.26   16.55
  -1   2   3  237.16   19.28
   1  -2   3  268.67   20.41
   1   2  -3  243.48   16.22
  -1  -2  -3  225.60   15.02
   1   2  -3  281.90   12.36
   1  -2  -4  171.02   29.11
  -1   2  -4  188.31   12.36
   1   2   4  174.81   13.63
  -1   2  -4  189.44   12.96
  -1  -2   4  143.84   16.95
  -1  -2   4  178.14   16.48
   1  -2  -4  176.67   16.75
   1   2   4  179.00   13.96
   1  -2   4  237.63   19.21
   1  -2   4  209.84   14.22
  -1   2   4  216.62   16.48
   1   2  -4  239.89   11.70
   1   2  -4  209.18   14.82
  -1  -2  -4  231.51   17.22
  -1  -2  -4  222.01   23.13
   1  -2  -5 1328.45   61.28
   1   2   5 1432.27   72.19
   1   2   5 1349.92   55.83
  -1   2  -5 1320.41   63.74
  -1  -2   5 1258.32   50.52
  -1  -2   5 1342.21   53.31
  -1   2  -5 1362.48   54.77
   1  -2  -5 1225.49   72.05
  -1  -2  -5 1410.27   54.04
   1  -2   5 1485.65   57.96
  -1   2   5 1398.24   61.95
   1  -2   5 1397.51   58.43
  -1  -2  -5 1423.77   59.02
   1   2  -5 1300.73   54.97
   1   2  -5 1459.86   56.37
  -1   2   5 1347.79   62.75
  -1   2  -6  712.75   28.91
  -1   2  -6  702.31   38.49
   1  -2  -6  643.35   42.81
   1  -2  -6  625.94   43.01
   1   2   6  686.49   40.15
   1   2   6  681.77   25.32
  -1  -2   6  631.99   31.57
  -1  -2   6  857.05   41.48
   1   2  -6  816.51   40.55
   1  -2   6  784.67   33.04
   1  -2   6  839.24   41.41
  -1   2   6  784.33   49.52
  -1   2   6  759.08   46.79
  -1  -2  -6  759.14   28.25
  -1  -2  -6  760.21   32.44
   1   2  -6  751.03   35.76
   1  -2  -7  608.39   28.52
  -1   2  -7  653.66   33.37
   1  -2  -7  622.68   40.75
   1   2   7  644.42   29.84
  -1  -2   7  680.18   29.11
   1   2   7  639.76   36.69
  -1  -2   7  576.42   27.72
  -1   2  -7  679.98   37.82
   1  -2   7  690.28   38.55
  -1  -2  -7  626.67   27.78
  -1   2   7  660.37   32.37
  -1  -2  -7  612.84   29.18
   1   2  -7  746.05   26.19
   1   2  -7  676.65   28.52
   1  -2   7  707.10   29.11
  -1   2   7  617.90   30.44
   1  -2  -8   86.54   10.57
  -1   2  -8   87.41    7.11
  -1   2  -8  104.02    9.51
   1   2   8   86.54    6.51
   1   2   8   87.61   14.56
  -1  -2   8   76.77    5.72
  -1  -2   8  101.37   10.17
   1  -2  -8   82.89   13.89
   1  -2   8  132.07   14.62
  -1  -2  -8  103.63   10.83
  -1   2   8  100.50   16.28
   1  -2   8  120.77    9.57
  -1   2   8  117.25   11.90
   1   2  -8  113.13    4.99
  -1  -2  -8  103.43   15.02
   1   2  -8  135.66   10.04
   1  -2  -9 1898.49   98.17
   1   2   9 1908.92   77.17
   1   2   9 2096.63  100.17
  -1  -2   9 1774.06   69.26
  -1  -2   9 2102.88  103.96
  -1   2  -9 2043.66   81.82
   1  -2  -9 1937.24   81.89
  -1   2  -9 1953.99   95.58
  -1   2   9 1931.12   94.72
   1  -2   9 2051.43   84.95
   1  -2   9 2051.23   86.14
  -1   2   9 2111.39   94.65
  -1  -2  -9 2025.31   89.33
   1   2  -9 2174.40   81.03
   1   2  -9 1972.40   84.55
   1  -2 -10 1309.71   60.22
  -1   2 -10 1378.70   60.22
  -1  -2  10 1249.29   49.52
   1  -2 -10 1321.14   53.51
   1   2  10 1326.72   56.43
   1   2  10 1451.35   71.12
  -1  -2  10 1390.07   62.02
  -1   2 -10 1383.82   60.15
  -1   2  10 1485.32   67.40
   1  -2  10 1409.21   59.22
  -1   2  10 1334.10   67.27
   1   2 -10 1371.26   59.96
  -1  -2 -10 1538.43   61.09
   1   2 -10 1460.92   49.79
  -1  -2 -10 1373.78   55.44
   1  -2  10 1390.13   57.03
  -1  -2  11 1424.43   79.63
  -1   2 -11 1430.81   64.21
   1  -2 -11 1329.11   62.08
  -1   2 -11 1419.31   61.35
   1   2  11 1316.49   56.23
   1   2  11 1342.54   58.03
  -1  -2  11 1306.05   48.99
   1  -2 -11 1392.59   62.61
  -1   2  11 1437.19   67.13
  -1   2  11 1313.10   66.73
   1  -2  11 1339.88   64.41
   1  -2  11 1402.83   61.22
  -1  -2 -11 1419.91   58.36
   1   2 -11 1315.95   59.96
  -1  -2 -11 1364.87   56.63
   1   2 -11 1473.68   48.85
  -1   2 -12  581.01   22.00
  -1  -2  12  618.43   32.70
   1  -2 -12  568.58   22.20
  -1   2 -12  619.49   43.34
  -1  -2  12  588.38   19.61
   1   2  12  547.11   25.26
   1   2  12  556.35   33.57
  -1   2  12  453.92   29.11
  -1   2  12  427.53   29.98
   1  -2  12  472.20   26.52
   1   2 -12  445.08   27.32
   1  -2  12  437.70   28.85
  -1  -2 -12  449.00   29.91
   1   2 -12  552.29   15.49
  -1  -2 -12  472.73   31.11
   1  -2 -13 1385.61   60.69
  -1   2 -13 1456.14   83.62
   1  -2 -13 1399.37   82.22
  -1  -2  13 1259.92   41.14
   1   2  13 1569.20   75.44
   1   2  13 1392.53   69.26
  -1   2 -13 1412.20   54.17
  -1   2  13 1409.74   68.99
   1  -2  13 1427.22   69.13
  -1  -2 -13 1401.10   70.19
  -1  -2 -13 1441.38   71.72
   1   2 -13 1349.12   64.94
  -1   2  13 1379.10   67.47
   1  -2  13 1469.36   66.80
  -1   2 -14 1839.46   79.23
   1   2  14 1859.87   91.99
   1  -2 -14 1853.62   90.26
  -1   2 -14 1937.57  109.67
   1   2  14 1817.26   81.09
  -1   2  14 1909.26   82.09
   1  -2  14 1900.42  105.49
   1   2 -14 1833.15   89.53
   1   2 -14 1792.67   88.14
  -1  -2 -14 1924.21   85.55
   1  -2  14 1879.08   80.69
  -1   2  14 1858.21   73.65
  -1  -2 -14 1781.50   90.26
   1  -2 -15 1383.95   70.86
  -1   2 -15 1524.67   64.61
  -1   2 -15 1425.89   89.07
   1   2  15 1377.10   60.69
   1  -2 -15 1559.76   81.16
   1   2  15 1333.97   60.09
  -1   2  15 1642.18   76.44
   1  -2  15 1546.53   74.78
  -1   2  15 1473.55   61.95
  -1  -2 -15 1382.95   73.98
  -1  -2 -15 1483.12   80.16
   1   2 -15 1471.69   94.78
   1   2 -15 1403.76   72.25
   1  -2  15 1456.20   70.99
  -1   2 -16  497.39   24.93
   1  -2 -16  557.21   38.15
   1  -2 -16  493.33   33.77
   1   2  16  491.87   24.13
  -1   2 -16  521.72   49.12
   1   2  16  513.34   35.10
  -1  -2 -16  536.34   29.38
   1  -2  16  593.04   35.16
  -1   2  16  518.13   23.86
  -1  -2 -16  501.91   37.36
   1   2 -16  505.16   34.96
   1   2 -16  505.70   35.23
  -1   2  16  585.13   25.13
   1  -2  16  516.93   32.17
   1  -2 -17 1486.58  102.03
   1  -2 -17 1364.14   73.12
  -1   2 -17 1419.65   94.72
  -1   2 -17 1423.10   55.37
   1   2  17 1381.89   60.35
   1   2  17 1371.99   62.41
   1  -2  17 1569.93   79.50
  -1  -2 -17 1426.03   80.96
  -1   2  17 1709.18   75.18
  -1  -2 -17 1466.84   84.02
   1  -2  17 1408.21   61.02
   1   2 -17 1369.79   97.24
   1   2 -17 1394.59   97.98
  -1   2  17 1458.13   59.89
   1  -2 -18 1332.77   74.78
   1  -2 -18 1220.97   86.08
   1   2  18 1200.63   54.97
   1   2  18 1212.86   62.08
  -1   2 -18 1182.28   62.48
  -1   2 -18 1269.96   90.13
   1  -2  18 1158.75   50.78
  -1  -2 -18 1203.55   60.35
   1  -2  18 1117.01   43.14
   1   2 -18 1129.51   67.53
  -1   2  18 1194.51   44.27
  -1  -2 -18 1120.00   56.37
   1   2 -18 1157.82   68.66
  -1   2  18 1504.13   64.94
  -1   2 -19 1417.05   92.99
  -1   2 -19 1535.77  105.75
   1   2  19 1470.63   72.98
   1   2  19 1466.97   76.64
   1  -2 -19 1647.70   90.66
   1  -2  19 1363.94   58.36
   1  -2  19 1385.68   68.93
  -1  -2 -19 1468.43   90.07
  -1  -2 -19 1366.20   68.73
   1   2 -19 1396.05   82.29
   1   2 -19 1364.08  104.49
  -1   2 -20  490.74   35.56
  -1   2 -20  522.18   39.75
   1  -2 -20  587.32   44.14
   1  -2 -20  510.75   56.83
   1   2  20  487.28   25.52
   1   2  20  498.98   32.17
  -1  -2 -20  526.10   33.63
   1   2 -20  473.53   41.08
  -1  -2 -20  474.52   30.18
   1   2 -20  509.62   43.80
  -1   2 -21  964.33   76.17
   1  -2 -21 1019.77   66.20
   1   2  21  931.56   52.71
   1   2  21  898.40   48.06
  -1   2 -21  959.75   61.28
   1  -2 -21  976.23   57.30
   1   2 -21  869.02   91.39
  -1  -2 -21  930.50   70.46
   1   2 -21  847.48   61.09
   1  -2 -22  911.56   90.46
  -1   2 -22  849.27   58.56
  -1  -2 -22  878.39   52.91
   1   2 -22  831.79   92.46
   1   2 -22  828.34   89.47
   1  -2 -23 1095.68   73.45
  -1   2 -23 1045.82   96.05
   1   2 -23  963.80   70.72
  -1  -2 -23 1099.40   83.55
   1   2 -23 1010.33   75.44
  -1   2 -24  350.16   60.89
   1  -2 -24  400.21   66.27
   1   2 -24  351.36   44.20
   1  -2 -25  587.72   54.64
  -1   2 -25  539.33   49.25
  -1  -2 -25  578.75   63.88
   1   2 -25  508.89   87.34
  -1   3   0  107.41   17.35
   1  -3   0   59.36    9.90
   1  -3   0   64.34   14.42
   1   3   0   40.28    5.58
  -1  -3   0   59.02    9.77
  -1  -3   0   13.43   10.04
   1   3   0   11.96   11.37
  -1   3   0   59.76   12.63
  -1  -3   1 6061.44  316.59
   1  -3  -1 5891.55  308.55
   1  -3  -1 6701.54  388.11
  -1   3  -1 5712.01  305.96
   1   3   1 6642.12  324.57
  -1   3  -1 6608.61  334.80
  -1  -3   1 6201.82  316.59
   1   3   1 6281.65  330.95
  -1   3   1 6753.45  347.43
  -1   3   1 6595.92  353.62
   1  -3   1 6699.81  356.67
   1   3  -1 6435.40  313.80
   1  -3   1 5894.54  301.84
  -1  -3  -1 6265.04  344.58
  -1  -3  -1 6440.18  325.23
   1   3  -1 6293.22  333.74
  -1   3  -2 1332.04   57.76
   1  -3  -2 1362.95   92.39
  -1  -3   2 1326.39   52.44
  -1  -3   2 1156.83   55.63
   1   3   2 1308.24   51.98
   1   3   2 1262.91   61.95
  -1   3  -2 1290.43   84.02
   1  -3  -2 1287.04   62.08
   1  -3   2 1273.28   68.33
  -1  -3  -2 1234.86   58.96
  -1   3   2 1315.75   63.54
  -1   3   2 1357.16   90.93
  -1  -3  -2 1171.72   53.37
   1   3  -2 1427.62   54.31
   1   3  -2 1288.50   81.89
   1  -3   2 1192.45   63.94
   1  -3  -3 7496.11  438.43
  -1   3  -3 7403.39  419.35
  -1   3  -3 7220.86  374.02
   1  -3  -3 7233.22  415.50
   1   3   3 7673.12  394.09
   1   3   3 7309.80  393.03
  -1  -3   3 7166.49  383.06
  -1  -3   3 6968.28  354.08
   1  -3   3 6858.74  374.35
  -1   3   3 7683.82  428.39
  -1  -3  -3 7257.95  380.14
   1   3  -3 6792.34  373.69
  -1  -3  -3 7028.30  376.02
  -1   3   3 7533.73  410.65
   1   3  -3 6760.63  355.48
   1  -3   3 6623.37  344.31
   1  -3  -4   73.65   11.83
  -1   3  -4   87.41   15.35
  -1   3  -4   83.62   17.61
   1  -3  -4   79.70   21.34
   1   3   4   74.31   11.23
  -1  -3   4   74.51   11.50
   1   3   4   85.88   11.50
  -1  -3   4   65.87    9.44
   1  -3   4   59.36   10.83
  -1   3   4   20.21   12.23
  -1   3   4   22.20   10.30
   1  -3   4   25.59    7.64
  -1  -3  -4   25.79   17.81
   1   3  -4   14.36   10.64
   1   3  -4   17.41   10.44
  -1  -3  -4   23.06    5.78
  -1   3  -5 3621.23  186.38
   1  -3  -5 4245.04  234.04
   1   3   5 4582.57  241.02
   1   3   5 3958.16  183.32
  -1  -3   5 4079.34  211.70
  -1  -3   5 4062.65  198.34
   1  -3  -5 4426.37  220.74
  -1   3  -5 4269.57  219.41
  -1   3   5 4032.48  197.81
  -1   3   5 4452.69  221.94
  -1  -3  -5 4282.07  199.01
  -1  -3  -5 4229.82  204.92
   1   3  -5 4048.83  201.20
   1  -3   5 4170.00  194.36
   1  -3   5 4164.22  204.86
   1   3  -5 4165.28  201.14
   1  -3  -6  744.65   52.98
  -1   3  -6  738.60   43.87
  -1   3  -6  775.63   45.46
   1   3   6  711.75   36.29
   1   3   6  757.88   37.89
  -1  -3   6  660.17   31.77
   1  -3  -6  756.22   39.22
  -1  -3   6  748.97   31.77
   1   3  -6  630.59   31.44
  -1  -3  -6  741.66   39.22
  -1  -3  -6  684.50   34.83
   1  -3   6  737.47   33.04
  -1   3   6  690.21   50.98
   1   3  -6  754.76   32.10
  -1   3   6  683.70   36.03
   1  -3   6  666.09   47.59
   1  -3  -7 4770.02  236.76
  -1   3  -7 4559.38  217.15
   1   3   7 4671.51  226.53
   1   3   7 4790.09  235.30
  -1   3  -7 4688.79  235.70
  -1  -3   7 4136.83  202.73
  -1  -3   7 4433.08  209.31
   1  -3  -7 4533.92  246.33
   1  -3   7 4421.65  226.33
  -1   3   7 4386.09  223.00
  -1  -3  -7 4409.55  233.84
   1  -3   7 4299.02  215.09
  -1  -3  -7 4507.80  215.82
  -1   3   7 4223.31  211.44
   1   3  -7 4233.21  201.00
   1   3  -7 4480.01  228.39
   1  -3  -8  126.56   15.29
  -1   3  -8  125.03   12.56
  -1   3  -8  118.51   10.64
   1  -3  -8  121.70   13.49
   1   3   8  122.04    9.57
  -1  -3   8  105.42   10.30
   1   3   8  150.42   14.89
  -1  -3   8  130.28   12.36
   1   3  -8  176.28   10.24
   1  -3   8  195.68   13.76
   1  -3   8  179.93   14.76
  -1   3   8  179.47   15.62
  -1  -3  -8  177.01   17.48
  -1  -3  -8  185.71   23.60
   1   3  -8  196.75   13.76
  -1   3   8  196.28   15.82
  -1  -3   9 2393.88  107.21
  -1   3  -9 2663.88  136.33
   1   3   9 2733.67  127.69
  -1   3  -9 2755.07  119.25
   1   3   9 2667.07  124.76
  -1  -3   9 2693.79  136.86
   1  -3  -9 2678.24  126.56
   1  -3  -9 2728.69  127.29
   1   3  -9 2594.48  108.74
  -1   3   9 2719.05  130.08
   1  -3   9 2638.95  123.17
  -1   3   9 2564.97  123.77
  -1  -3  -9 2566.97  120.18
   1  -3   9 2612.43  118.31
   1   3  -9 2603.66  133.47
   1  -3 -10  409.78   25.86
  -1   3 -10  427.06   25.32
   1   3  10  407.39   24.26
   1   3  10  406.26   19.48
  -1   3 -10  401.67   19.01
  -1  -3  10  423.87   24.79
   1  -3 -10  398.02   22.80
  -1  -3  10  363.59   17.81
  -1   3  10  367.11   23.53
  -1   3  10  411.58   27.32
   1  -3  10  401.14   35.63
   1   3 -10  386.85   19.81
   1  -3  10  387.71   23.06
  -1  -3 -10  390.70   27.19
  -1  -3 -10  382.13   23.13
   1   3 -10  400.01   24.00
  -1  -3  11 2894.86  129.42
  -1   3 -11 3037.24  146.17
   1  -3 -11 3121.72  152.61
   1   3  11 3016.56  136.86
  -1  -3  11 2939.99  142.31
   1   3  11 3064.89  163.25
  -1   3 -11 3088.88  136.66
   1  -3 -11 3270.21  168.10
   1  -3  11 3485.04  176.74
  -1   3  11 3257.91  160.19
   1  -3  11 3163.06  150.69
  -1  -3 -11 3099.98  163.11
  -1  -3 -11 3153.49  143.64
   1   3 -11 3061.96  146.23
  -1   3  11 3093.73  150.88
   1   3 -11 3266.69  140.65
   1  -3 -12   30.18   11.37
  -1   3 -12   23.66   16.95
   1   3  12   27.19    6.25
   1   3  12    0.66    7.84
   1   3  12   25.39   13.56
   1  -3 -12   23.53   15.82
  -1  -3  12   34.23   17.35
  -1   3 -12   31.71    8.77
  -1  -3  12   24.33    7.44
   1  -3  12   18.08    7.51
  -1   3  12   19.21    7.84
  -1   3  12   19.01   10.30
  -1  -3 -12   19.94   10.83
   1   3 -12   28.71    9.57
   1   3 -12   21.40    4.45
   1  -3  12   32.57    9.17
   1  -3 -13  986.13   51.38
   1   3  13 1066.63   51.85
   1  -3 -13 1015.58   45.00
   1   3  13 1027.21   50.05
  -1   3 -13 1019.44   48.66
  -1  -3  13 1013.05   38.55
  -1   3 -13 1005.21   51.78
  -1  -3  13 1043.43   54.64
  -1   3  13 1075.14   51.51
   1   3 -13 1076.07   38.49
  -1  -3 -13  991.78   44.67
  -1  -3 -13 1117.48   49.39
   1   3 -13 1018.11   53.24
  -1   3  13 1066.30   57.16
   1  -3  13 1048.02   52.18
   1  -3  13 1008.87   47.39
  -1   3 -14   25.32   11.63
  -1   3 -14   22.80    5.38
   1  -3 -14   23.53   11.03
   1   3  14   28.18    9.17
   1  -3 -14   23.86    6.91
   1   3  14   66.80    9.37
  -1  -3  14   25.26   21.80
  -1  -3  14   25.52    5.45
  -1   3  14   43.14   12.63
   1  -3  14   37.02    8.18
   1   3 -14   40.01    3.72
  -1  -3 -14   40.21    8.57
  -1  -3 -14   36.09    7.58
  -1   3  14   39.68   14.56
   1  -3  14   39.28   11.37
   1   3 -14   38.82   12.43
  -1   3 -15 1291.49   67.40
   1  -3 -15 1368.46   68.26
   1   3  15 1320.27   64.21
   1   3  15 1328.25   76.11
  -1  -3  15 1255.73   44.27
   1  -3 -15 1265.70   66.34
  -1   3 -15 1301.60   51.98
  -1  -3  15 1357.10   72.38
   1  -3  15 1215.45   67.80
   1  -3  15 1348.52   88.67
  -1   3  15 1282.45   90.20
  -1  -3 -15 1362.42   76.04
  -1  -3 -15 1239.98   57.43
   1   3 -15 1255.00   68.26
   1   3 -15 1396.12   46.40
  -1   3  15 1344.34   72.72
  -1   3 -16   50.12   13.69
   1  -3 -16   52.64   21.14
   1   3  16   53.84   15.69
   1  -3 -16    0.20   14.56
   1   3  16   54.37   16.02
  -1   3 -16   48.06    8.64
  -1  -3  16   -0.80   14.36
  -1   3  16   38.75    8.51
  -1  -3 -16   39.55   16.28
  -1  -3 -16   39.42   14.62
   1   3 -16   43.34   14.49
   1  -3  16   38.02   13.23
   1  -3  16   41.28    8.11
  -1   3 -17  216.22   24.00
   1  -3 -17  244.47   27.39
   1   3  17  212.10   17.15
   1   3  17  233.64   26.06
   1  -3 -17  193.23   35.36
  -1   3 -17  203.59   15.42
  -1   3  17  256.04   24.66
   1   3 -17  208.98   24.59
   1  -3  17  213.76   23.86
  -1  -3 -17  222.94   18.41
  -1  -3 -17  197.41   25.66
   1   3 -17  214.30   25.59
  -1   3  17  220.48   18.54
   1  -3  17  200.94   22.40
   1  -3 -18   22.20   19.67
   1   3  18   21.07   13.29
   1   3  18   23.33    7.44
   1  -3 -18   28.18   13.96
  -1   3 -18   23.66   12.83
  -1   3 -18   21.60    4.05
   1  -3  18   15.29    7.25
  -1   3  18   21.20    6.71
  -1   3  18   18.61    5.12
  -1  -3 -18   16.15   13.43
  -1  -3 -18   19.34   15.29
   1   3 -18   18.88   23.73
   1   3 -18   20.41   24.33
   1  -3  18   17.15   22.67
   1  -3 -19  212.63   40.01
   1  -3 -19  250.06   49.59
   1   3  19  208.45   16.88
   1   3  19  216.49   18.35
  -1   3 -19  212.24   27.12
   1  -3  19  259.16   25.26
   1  -3  19  284.02   29.25
  -1  -3 -19  251.78   29.65
  -1  -3 -19  276.51   22.00
   1   3 -19  242.68   49.65
  -1   3  19  277.71   18.81
  -1   3  19  328.89   24.13
   1   3 -19  252.05   29.58
  -1   3 -20   54.70   17.08
   1  -3 -20   81.09   14.42
   1  -3 -20   58.89   18.54
   1   3  20   54.50    9.31
   1   3  20   50.85   16.02
  -1   3 -20   46.86   15.42
  -1  -3 -20    1.26   11.37
  -1  -3 -20   50.92   11.96
   1   3 -20   42.61   18.41
   1   3 -20   43.67   32.70
   1  -3 -21    8.44   21.74
   1  -3 -21   -0.93    5.58
   1   3  21    7.84    4.99
   1   3  21    7.64    5.78
  -1   3 -21   76.37   16.48
  -1   3 -21    7.91   11.37
   1   3 -21   17.95   12.83
  -1  -3 -21   19.14   13.89
  -1  -3 -21    0.86    3.59
   1   3 -21   20.41   12.76
  -1   3 -22   -0.66    3.92
   1  -3 -22   24.39   12.36
  -1   3 -22   19.61   19.67
   1  -3 -22   -0.40    5.52
  -1  -3 -22   31.91    8.24
  -1  -3 -22    0.33    3.46
   1   3 -22   30.44   21.47
   1   3 -22   24.59   13.23
   1  -3 -23   10.44   11.83
  -1   3 -23   -1.40    7.51
   1  -3 -23   -1.53    5.12
  -1   3 -23   11.23   20.01
  -1  -3 -23   10.90   13.69
  -1  -3 -23    1.99    3.39
   1   3 -23   19.41   12.36
   1   3 -23    6.98   12.83
  -1   3 -24    0.20    4.65
   1  -3 -24   -0.13    5.05
   1  -3 -24   10.17   20.27
  -1   3 -24    6.98   11.37
  -1  -3 -24    0.53    5.52
  -1  -3 -24    9.04    7.91
   1   3 -24   -0.27   22.40
   1   4   0   11.83    9.84
   1  -4   0    7.11   11.90
  -1  -4   0    9.04    7.44
  -1   4   0   11.17   16.62
   1   4   0    9.24    7.71
  -1  -4   0   14.56   15.02
  -1   4   0   10.77    7.25
   1  -4   0   14.69   18.41
   1  -4  -1  297.98   20.61
   1   4   1  287.21   14.96
  -1  -4   1  301.17   14.96
  -1   4  -1  291.47   19.54
  -1   4  -1  279.97   24.93
   1   4   1  280.17   24.73
   1  -4  -1  297.05   27.32
  -1  -4   1  275.25   22.67
   1  -4   1  268.27   26.32
   1   4  -1  258.43   38.62
  -1   4   1  289.41   26.92
   1   4  -1  273.85   14.76
  -1  -4  -1  253.85   22.00
  -1   4   1  264.75   20.21
   1  -4   1  268.07   18.41
  -1  -4  -1  267.07   13.63
   1  -4  -2   36.89   10.30
   1   4   2   41.94   13.16
   1   4   2   39.28    6.85
  -1  -4   2   33.90   18.81
  -1  -4   2   41.74    6.71
  -1   4  -2   31.04   12.43
  -1   4  -2   34.36    9.11
   1  -4  -2   35.63   13.69
   1  -4   2   48.66   23.33
  -1  -4  -2   47.92    9.77
  -1  -4  -2   59.76   20.41
   1   4  -2   44.20   13.16
   1   4  -2   49.92   11.10
   1  -4   2   44.80    9.04
  -1   4   2   49.52   23.53
  -1   4   2   47.13   19.14
   1   4   3  178.27   12.30
   1  -4  -3  178.27   32.90
   1  -4  -3  169.63   15.69
   1   4   3  175.28   18.88
  -1  -4   3  187.71   11.96
  -1  -4   3  175.15   17.02
  -1   4  -3  181.06   14.36
  -1   4  -3  167.63   28.78
  -1  -4  -3  107.95   16.68
   1  -4   3  108.01   12.43
   1   4  -3  116.12   18.01
  -1   4   3  109.34   15.09
   1  -4   3  104.56   18.88
  -1  -4  -3  107.08    8.91
  -1   4   3  115.52   18.74
   1   4  -3  117.12   10.24
  -1   4  -4   28.52    8.38
   1  -4  -4   29.51    9.84
   1   4   4   27.05    6.71
  -1  -4   4   32.50    6.71
   1   4   4   29.65   11.23
  -1  -4   4   25.59   10.17
   1  -4  -4   29.25   12.30
  -1   4  -4   26.12   18.41
  -1   4   4   25.92    9.90
  -1   4   4   35.03   19.48
   1  -4   4   33.17   21.34
   1   4  -4   25.66    6.51
  -1  -4  -4   21.27    9.51
   1   4  -4   25.92   11.10
  -1  -4  -4   23.80   18.54
   1  -4   4   27.25   13.69
   1  -4  -5  995.31   50.58
  -1  -4   5  864.83   61.82
   1   4   5  972.64   52.64
   1   4   5 1007.01   44.20
  -1  -4   5  987.53   43.40
  -1   4  -5  986.80   46.46
  -1   4  -5  930.50   49.05
   1  -4  -5  984.41   55.24
   1  -4   5 1002.49   56.17
   1  -4   5 1036.19   47.39
  -1  -4  -5 1077.60   45.07
   1   4  -5  989.19   52.44
  -1   4   5 1105.38   68.20
   1   4  -5 1090.56   45.46
  -1  -4  -5 1114.42   57.23
  -1   4   5 1122.53   59.29
   1  -4  -6   58.29   15.29
   1  -4  -6   62.55   13.03
  -1  -4   6   66.80    9.51
  -1   4  -6   58.09   11.10
  -1  -4   6   59.62   20.54
   1   4   6   58.03    8.44
  -1   4  -6   55.04   12.30
   1   4   6   69.99   23.00
   1  -4   6   89.73   11.37
  -1   4   6  102.43   13.56
   1  -4   6   90.46   15.55
  -1   4   6  119.25   15.09
  -1  -4  -6   94.39    8.71
   1   4  -6   83.88   12.70
   1   4  -6   96.45   16.62
  -1  -4  -6   86.81   13.96
   1  -4  -7  511.35   32.37
  -1  -4   7  500.64   26.32
  -1  -4   7  431.18   40.75
   1   4   7  493.53   32.57
   1   4   7  435.84   22.73
  -1   4  -7  491.07   29.11
  -1   4  -7  477.91   41.54
   1  -4  -7  510.48   34.23
  -1   4   7  612.05   36.36
  -1   4   7  633.78   34.96
   1   4  -7  642.22   29.91
  -1  -4  -7  648.60   37.95
   1  -4   7  633.12   31.44
   1   4  -7  592.70   31.84
  -1  -4  -7  625.94   50.85
   1  -4   7  617.90   38.09
  -1  -4   8  356.41   30.91
   1   4   8  345.51   25.32
   1  -4  -8  341.05   38.62
  -1   4  -8  355.88   22.80
   1   4   8  318.12   25.06
  -1  -4   8  309.95   21.67
   1  -4  -8  380.20   27.32
  -1   4  -8  341.98   21.54
   1  -4   8  322.11   41.08
  -1   4   8  320.51   38.35
   1  -4   8  313.87   21.60
  -1  -4  -8  329.55   27.19
   1   4  -8  305.36   29.25
  -1   4   8  304.56   37.55
  -1  -4  -8  308.28   24.53
   1   4  -8  302.63   19.94
   1   4   9 1621.71   71.65
   1   4   9 1619.92   81.49
   1  -4  -9 1661.99  100.77
  -1  -4   9 1454.61   71.19
  -1  -4   9 1582.16   72.85
  -1   4  -9 1665.58   76.44
   1  -4  -9 1570.00  100.97
  -1   4  -9 1581.36   91.93
  -1   4   9 1783.23  107.81
  -1  -4  -9 1853.69   92.13
   1  -4   9 1677.01   77.50
  -1  -4  -9 1695.89   83.88
   1   4  -9 1671.10   73.38
   1  -4   9 1592.60  100.43
  -1   4   9 1523.80   94.39
   1   4  -9 1651.36   75.11
  -1   4 -10   32.30   10.50
   1  -4 -10   43.80   18.48
   1  -4 -10   20.34   11.37
  -1  -4  10   23.53    9.64
  -1   4 -10   26.85    7.71
  -1  -4  10   22.80   13.83
   1   4  10   26.99   12.03
   1   4  10   23.73   10.77
  -1   4  10   38.82   19.08
   1  -4  10   45.00   18.81
  -1   4  10   29.31   19.94
   1  -4  10   36.49   10.37
   1   4 -10   39.55   11.10
  -1  -4 -10   44.93   14.36
   1   4 -10   39.08   16.82
  -1  -4 -10   35.49   19.01
   1  -4 -11 1525.13   96.58
  -1  -4  11 1483.92   80.03
   1  -4 -11 1635.87   97.91
  -1   4 -11 1506.39   67.80
  -1   4 -11 1548.73   94.92
   1   4  11 1574.25   70.32
  -1  -4  11 1538.69   74.98
   1   4  11 1578.77   80.16
  -1   4  11 1595.52   99.57
  -1   4  11 1498.48   78.23
   1  -4  11 1487.11   95.05
  -1  -4 -11 1542.88   78.03
   1   4 -11 1522.01   63.15
   1   4 -11 1564.61   93.52
   1  -4  11 1585.02   94.32
  -1  -4 -11 1699.61   90.40
  -1   4 -12  222.01   14.69
  -1  -4  12  208.65   21.74
  -1   4 -12  215.63   21.40
   1  -4 -12  227.26   22.40
   1  -4 -12  250.46   32.17
  -1  -4  12  222.80   21.40
   1   4  12  217.82   32.50
   1   4  12  220.41   15.89
   1   4 -12  214.50   16.09
   1   4 -12  208.91   21.54
  -1  -4 -12  209.64   20.80
  -1   4  12  225.86   33.23
  -1   4  12  252.52   38.49
   1  -4  12  199.67   20.74
   1  -4  12  211.50   31.77
  -1  -4 -12  221.41   16.95
   1  -4 -13 2055.89  126.96
  -1   4 -13 1931.66   85.55
  -1  -4  13 1949.47  100.50
   1   4  13 2033.55  123.17
   1   4  13 1969.28   90.93
  -1  -4  13 1894.43   84.88
  -1   4 -13 1913.71   97.64
   1  -4 -13 2039.47  116.85
  -1   4  13 2130.53  122.77
  -1  -4 -13 2190.35  116.79
  -1   4  13 2150.74  133.20
   1  -4  13 2121.82  124.96
   1   4 -13 2043.32  102.30
  -1  -4 -13 2005.10  119.84
   1   4 -13 2046.58   88.60
   1  -4  13 1999.72   99.44
   1  -4 -14   33.30   21.07
  -1  -4  14   34.70   22.40
   1   4  14   37.49   11.23
   1   4  14   32.90    8.11
  -1  -4  14   17.61    9.24
   1  -4 -14   34.83   15.49
  -1   4 -14   28.78   10.90
  -1   4 -14   32.97   12.89
  -1   4  14   43.87   24.26
   1   4 -14   28.38    6.25
   1   4 -14   26.85   13.09
  -1  -4 -14   25.26    8.71
   1  -4  14   30.24   12.83
  -1   4  14   31.11   10.37
   1  -4  14   27.85   17.75
  -1  -4  15 2042.46  109.14
   1   4  15 2038.94  105.62
   1   4  15 2049.04  104.76
  -1  -4  15 1974.46   91.39
  -1   4 -15 1961.70  103.16
   1  -4 -15 2026.11  106.42
   1  -4 -15 1970.81  109.34
  -1   4 -15 2048.57   98.24
  -1   4  15 2066.65  112.00
  -1   4  15 2186.23  107.95
   1  -4  15 2133.12  135.20
  -1  -4 -15 2179.98  103.96
   1   4 -15 1966.15  105.22
   1   4 -15 1910.52   78.17
  -1  -4 -15 2017.07   97.91
   1  -4  15 1947.14   98.31
  -1   4 -16  225.20   13.43
   1  -4 -16  241.15   26.12
  -1  -4  16  229.19   14.76
  -1  -4  16  233.44   47.26
   1   4  16  225.66   21.74
   1   4  16  224.40   21.60
   1  -4 -16  234.10   27.25
  -1   4 -16  201.87   44.40
   1  -4  16  227.52   30.18
   1  -4  16  230.65   26.79
  -1   4  16  253.11   26.99
  -1  -4 -16  266.47   20.61
   1   4 -16  234.84    8.31
   1   4 -16  232.58   27.65
  -1   4  16  267.07   21.27
  -1  -4 -16  233.51   30.11
   1  -4 -17 1666.64   92.59
  -1  -4  17 1671.43   97.11
  -1   4 -17 1622.97  120.04
   1   4  17 1649.36  104.36
   1   4  17 1732.98  105.02
   1  -4 -17 1635.94   77.70
  -1   4 -17 1578.90   66.54
   1  -4  17 1609.21   91.20
  -1   4  17 1587.41   91.53
   1  -4  17 1568.20   95.18
  -1  -4 -17 1741.09  100.50
  -1  -4 -17 1559.96   92.33
   1   4 -17 1569.67   91.26
  -1   4  17 1844.71  103.16
  -1   4 -18   32.64    9.17
   1  -4 -18   33.70   15.82
  -1   4 -18   27.52   30.58
   1   4  18   22.40   19.41
   1  -4 -18   34.17   18.01
   1   4  18   26.12   11.77
  -1  -4  18    0.00   18.35
  -1  -4 -18   72.32   19.74
   1  -4  18   57.63   10.90
   1  -4  18   56.30   30.84
  -1  -4 -18   44.14   18.01
   1   4 -18   44.47   18.01
  -1   4  18   47.53    8.97
  -1   4  18   59.89   10.50
   1  -4 -19 1072.88   65.14
  -1   4 -19 1524.33  121.70
   1  -4 -19 1800.45  132.81
   1   4  19 1563.28   78.70
  -1   4  19 1947.81  102.43
  -1  -4 -19 1653.35   83.29
   1  -4  19 1543.21   91.53
   1   4 -19 1455.54   90.53
   1   4 -19 1421.97   89.27
  -1   4  19 1528.59   70.26
   1  -4 -20  204.72   28.71
   1   4  20  151.95   16.75
  -1   4 -20  152.15   45.60
   1   4 -20  136.13   48.59
   1  -4  20  139.92   27.58
  -1  -4 -20  146.17   18.48
   1   4 -20  109.34   28.65
  -1   4 -21 1139.81  107.81
   1  -4 -21 1328.32  112.66
   1   4  21 1195.71   61.88
   1   4 -21 1090.29   79.50
  -1  -4 -21 1314.09   88.47
   1   4 -21 1109.04   78.90
   1  -4  21 1222.23   81.09
  -1   4 -22   49.19   17.81
   1  -4 -22   63.34   30.11
   1   4  22   57.36    8.51
   1  -4 -22   -0.40    7.98
  -1  -4 -22   18.94   11.43
  -1  -4 -22   -2.46    8.24
   1   4 -22   25.52   33.77
   1   4 -22   31.44   33.10
  -1   4 -23 1337.95   94.12
   1  -4 -23 1634.94  105.42
   1   4 -23 1315.09  137.72
  -1  -4 -23 1588.34  107.55
   1  -5   0 2202.32  108.61
  -1   5   0 2439.35  159.06
  -1  -5   0 2188.16   99.70
   1   5   0 2229.10  125.23
   1   5   0 2374.61  107.75
   1  -5   0 2369.69  130.74
  -1  -5   0 2289.06  145.57
  -1   5   0 2237.55  110.34
   1   5   1 2695.52  148.29
   1  -5  -1 2675.58  133.34
  -1   5  -1 2883.29  153.68
  -1  -5   1 2682.76  123.70
  -1   5  -1 2854.45  139.12
   1   5   1 2881.70  133.00
   1  -5  -1 2957.14  191.10
  -1  -5   1 2670.26  143.77
  -1   5   1 2638.89  132.21
   1  -5   1 2776.21  183.65
   1   5  -1 2597.14  144.64
   1   5  -1 2674.58  136.93
  -1  -5  -1 2537.45  137.66
   1  -5   1 2618.75  128.95
  -1   5   1 3217.50  170.16
  -1  -5  -1 2669.99  123.30
   1  -5  -2 1651.62   83.62
  -1   5  -2 1696.09   82.95
   1   5   2 1659.47   94.92
  -1  -5   2 1649.03   75.04
  -1  -5   2 1559.83   87.67
   1   5   2 1637.20   89.20
   1  -5  -2 1809.62  101.43
  -1   5  -2 1755.71   95.32
  -1   5   2 1634.47  108.08
  -1   5   2 1929.26  104.82
   1   5  -2 1689.24   96.05
  -1  -5  -2 1684.52  117.72
   1   5  -2 1676.95   74.78
   1  -5   2 1631.75   79.56
  -1  -5  -2 1635.40   84.02
   1  -5   2 1706.66   98.77
  -1  -5   3 2993.70  141.11
  -1   5  -3 2974.62  145.97
   1   5   3 3022.81  166.37
   1  -5  -3 3333.09  210.64
  -1   5  -3 2931.42  158.46
   1   5   3 3011.71  145.37
  -1  -5   3 2885.09  179.20
   1  -5  -3 2980.80  150.69
   1  -5   3 3101.38  202.60
  -1   5   3 3391.38  179.00
   1   5  -3 3020.62  165.37
  -1  -5  -3 3037.10  154.27
   1   5  -3 2992.90  139.52
  -1  -5  -3 2903.70  156.20
  -1   5   3 2959.53  172.29
   1  -5   3 2944.71  144.70
   1  -5  -4 1964.56   99.64
   1  -5  -4 1944.82  109.54
  -1   5  -4 1790.54  100.90
  -1   5  -4 1922.75   95.05
   1   5   4 1952.99  138.99
   1   5   4 1934.45   90.20
  -1  -5   4 1870.17  104.82
  -1  -5   4 1926.14   89.87
   1  -5   4 1906.80   92.52
  -1  -5  -4 2075.76  111.00
  -1   5   4 2089.65  102.89
   1   5  -4 1956.65   89.40
  -1  -5  -4 2203.85  110.54
   1   5  -4 2072.97  112.00
   1  -5   4 2087.13  118.45
  -1   5   4 2232.43  118.85
   1   5   5 2135.18  112.33
   1  -5  -5 2216.87  109.01
   1  -5  -5 2143.43  116.85
  -1  -5   5 2135.25  113.93
  -1  -5   5 1956.91  108.21
   1   5   5 2021.12  136.33
  -1   5  -5 1901.74  126.69
  -1   5  -5 2073.43  121.64
  -1   5   5 2135.52  116.39
   1   5  -5 2062.33  136.99
  -1   5   5 2214.08  108.74
   1  -5   5 1894.23   93.52
   1   5  -5 1940.90  105.75
  -1  -5  -5 2002.71  110.21
  -1  -5  -5 2097.90   96.38
   1  -5   5 2023.72  115.79
   1  -5  -6 1342.01  104.76
   1  -5  -6 1343.54   69.79
   1   5   6 1337.69   61.02
  -1   5  -6 1189.66   89.20
  -1   5  -6 1263.58   65.80
   1   5   6 1247.69   72.58
  -1  -5   6 1125.79   67.27
  -1  -5   6 1253.27   60.15
   1  -5   6 1308.24   79.96
   1  -5   6 1224.63   62.95
  -1  -5  -6 1323.93   74.91
   1   5  -6 1259.32   74.98
  -1  -5  -6 1353.77   61.55
  -1   5   6 1424.56  104.29
   1   5  -6 1291.03   94.65
  -1   5   6 1383.29   70.52
  -1   5  -7 2176.13  113.46
   1   5   7 2323.89  124.63
  -1   5  -7 2243.26  111.14
   1  -5  -7 2520.50  126.09
   1  -5  -7 2547.49  135.66
  -1  -5   7 2335.06  110.54
   1   5   7 2381.32  122.90
  -1  -5   7 2038.54  111.47
   1  -5   7 2318.31  159.92
   1  -5   7 2158.78  129.22
  -1   5   7 2389.43  129.02
   1   5  -7 2111.79  113.00
  -1  -5  -7 2178.12  117.65
  -1   5   7 2511.86  124.10
   1   5  -7 2158.65  103.16
  -1  -5  -7 2392.29  110.01
   1  -5  -8 1241.77   85.94
   1  -5  -8 1215.72   70.32
  -1   5  -8 1125.39   60.89
  -1   5  -8  996.70   74.78
  -1  -5   8 1114.35   56.03
   1   5   8 1126.98   53.37
  -1  -5   8 1010.00   59.22
   1   5   8 1158.36   67.86
   1  -5   8 1286.97  100.63
  -1  -5  -8 1271.22   57.23
   1   5  -8 1068.82   74.51
  -1   5   8 1294.22   73.32
   1   5  -8 1109.57   71.79
   1  -5   8 1120.40   79.70
  -1   5   8 1292.22   88.27
  -1  -5  -8 1255.20   93.46
  -1  -5   9 1131.17   69.53
  -1  -5   9  835.45   49.25
  -1   5  -9  897.80   50.38
  -1   5  -9  895.01   49.25
   1  -5  -9  972.04   78.43
   1   5   9  836.84   52.84
   1  -5  -9  951.04   54.17
   1   5   9  936.35   57.36
  -1   5   9 1010.00   77.77
  -1  -5  -9 1010.26   47.06
  -1  -5  -9  942.73   57.30
   1   5  -9  909.03   47.19
   1   5  -9  899.06   63.01
   1  -5   9  893.48   49.92
   1  -5   9  953.50   83.09
  -1   5   9  995.57   59.76
  -1   5 -10  866.22   45.40
  -1   5 -10  754.89   66.14
   1   5  10  815.44   40.35
  -1  -5  10  788.92   44.87
  -1  -5  10  833.45   45.20
   1   5  10  875.06   53.97
   1  -5 -10  903.51   71.85
   1  -5 -10  946.65   76.04
  -1   5  10  822.29   51.51
  -1  -5 -10  816.57   54.24
   1   5 -10  736.01   42.07
   1   5 -10  751.50   52.31
   1  -5  10  728.23   44.27
  -1  -5 -10  776.56   50.32
   1  -5  10  793.17   75.04
  -1   5  10  803.41   69.59
   1   5  11 1287.64   61.95
  -1   5 -11 1300.60   71.12
  -1  -5  11 1257.06   65.54
   1  -5 -11 1355.83   75.71
   1   5  11 1364.48   77.90
   1  -5 -11 1427.89   78.57
  -1   5 -11 1297.34   79.83
  -1  -5  11 1339.35   70.26
   1  -5  11 1391.66  103.29
  -1   5  11 1335.96   97.44
   1  -5  11 1281.06   69.79
  -1  -5 -11 1452.02   68.00
   1   5 -11 1348.59   90.07
  -1  -5 -11 1432.47   80.56
   1   5 -11 1345.20   62.28
  -1   5  11 1404.76   79.10
   1   5  12  700.85   48.52
   1  -5 -12  733.49   69.99
  -1   5 -12  685.63   45.60
   1   5  12  729.90   47.92
  -1  -5  12  801.48   63.81
   1  -5 -12  766.99   47.92
  -1  -5  12  681.44   37.55
  -1   5 -12  700.65   48.72
  -1  -5 -12  667.55   46.13
  -1   5  12  707.96   46.86
  -1   5  12  631.32   63.81
   1  -5  12  629.40   41.81
  -1  -5 -12  724.78   37.82
   1  -5  12  682.50   67.33
   1   5 -12  655.78   31.91
   1   5 -12  653.19   42.74
  -1   5 -13  446.87   57.10
   1   5  13  473.33   38.95
   1  -5 -13  514.47   39.68
   1  -5 -13  506.36   35.03
  -1  -5  13  477.51   35.89
   1   5  13  450.79   36.23
  -1  -5  13  488.02   39.08
  -1   5 -13  461.29   36.96
  -1  -5 -13  477.18   40.28
   1  -5  13  454.71   54.11
  -1  -5 -13  462.29   55.24
  -1   5  13  496.59   36.23
  -1   5  13  448.87   55.24
   1   5 -13  439.16   35.56
   1  -5  13  423.81   53.44
   1   5 -13  452.79   29.84
  -1  -5  14  379.21   32.97
   1  -5 -14  411.38   35.10
  -1   5 -14  354.48   32.97
   1  -5 -14  401.54   29.65
   1   5  14  362.59   31.37
  -1   5 -14  354.15   21.14
  -1  -5  14  353.08   21.00
   1   5  14  358.20   33.77
  -1   5  14  314.13   49.45
   1  -5  14  339.26   30.04
  -1   5  14  352.29   46.53
  -1  -5 -14  358.14   31.91
   1   5 -14  317.12   16.09
   1   5 -14  327.83   32.10
   1  -5  14  305.16   30.44
  -1  -5 -14  356.21   24.86
   1  -5 -15  734.48   73.25
   1   5  15  695.80   66.07
   1   5  15  688.02   50.12
  -1   5 -15  703.38   34.23
   1  -5 -15  752.16   61.95
  -1   5 -15  718.00   51.18
  -1  -5  15  735.75   51.25
  -1  -5  15  736.74   45.20
   1  -5  15  744.05   50.52
   1   5 -15  751.30   51.71
  -1   5  15  884.24   69.46
   1  -5  15  760.14   47.92
   1   5 -15  731.62   29.31
  -1  -5 -15  762.86   50.18
  -1  -5 -15  821.49   43.94
  -1   5  15  736.41   50.38
  -1  -5  16  164.98   11.90
  -1   5 -16  157.53   12.76
   1  -5 -16  163.98   30.97
  -1   5 -16  155.87   26.99
   1   5  16  168.17   36.62
   1   5  16  158.79   22.33
   1  -5 -16  174.81   25.46
  -1  -5  16  165.91   26.92
   1  -5  16  221.94   44.87
  -1  -5 -16  233.77   31.84
  -1   5  16  234.77   22.00
   1   5 -16  210.71   45.33
   1  -5  16  211.30   21.27
  -1   5  16  205.06   25.79
   1  -5 -17  113.20   20.27
  -1  -5  17   73.71   22.93
   1   5  17   80.10   29.78
   1   5  17   72.05   14.62
  -1   5 -17   77.04    9.17
  -1   5 -17   71.99   22.53
   1  -5 -17   92.26   24.33
   1  -5  17  100.97   22.20
  -1   5  17  100.57   20.47
  -1  -5 -17  113.53   15.89
  -1  -5 -17  121.70   25.32
   1  -5  17  102.03   25.52
   1   5 -17  115.06   39.08
  -1   5  17  119.31   16.28
   1  -5 -18   99.84   24.86
   1   5  18  101.37   18.35
  -1   5 -18   97.11   24.39
  -1  -5  18  109.47   26.39
  -1  -5 -18  120.04   16.22
   1  -5  18  100.63   24.13
   1  -5  18  100.43   16.68
   1   5 -18  104.16   42.34
  -1   5  18  107.61   36.16
   1  -5 -19    2.86   23.33
  -1   5 -19  133.27   26.79
  -1  -5  19  139.92   28.85
   1   5  19  129.75   19.01
  -1  -5 -19  147.16   17.28
   1   5 -19  127.49   45.86
   1  -5  19  139.78   44.20
   1  -5 -20   15.62   13.43
   1  -5 -20   -0.07    7.05
   1   5  20   10.17   15.29
   1   5  20    1.46    5.25
  -1   5 -20   11.70   14.42
   1  -5  20   18.41   14.56
  -1   5  20    4.32   10.70
   1   5 -20   21.60   14.69
   1   5 -20   25.13   14.62
  -1  -5 -20    0.93    4.59
  -1  -5 -20   25.06    8.71
   1  -5 -21    9.37   12.50
   1  -5 -21   -0.73    6.51
   1   5  21    4.65   13.29
  -1   5 -21    3.66   13.49
   1   5  21    2.46    7.58
  -1  -5 -21    0.86    4.32
   1   5 -21   12.50   13.89
   1   5 -21    9.51   23.46
  -1  -5 -21   23.26   13.49
   1  -5  21   13.89   24.00
   1   5  22    1.13    4.39
   1  -5 -22   -0.07    5.32
   1   5  22    7.05   12.16
  -1   5 -22    7.91   13.49
   1  -5 -22    2.13   20.54
   1   5 -22    5.25   14.22
  -1  -5 -22   13.03    7.91
  -1  -5 -22    0.40    4.52
  -1  -6   0   23.40   13.63
   1  -6   0   26.79   11.50
   1   6   0   30.04   30.58
   1  -6   0   27.12   17.28
   1   6   0   25.92    8.84
  -1  -6   0   27.12   15.89
  -1   6   0   24.26   12.10
  -1   6   0   32.04   17.15
   1   6   1   60.42   21.34
  -1  -6   1   52.38   32.44
   1   6   1   43.54   10.83
  -1   6  -1   61.82   20.74
  -1  -6   1   54.44   10.37
  -1   6  -1   55.10   14.69
   1  -6  -1   56.76   14.42
   1  -6  -1   59.56   36.96
   1  -6   1   64.87   21.07
   1   6  -1   67.86   20.87
  -1   6   1   66.80   15.75
   1   6  -1   67.60   11.10
  -1   6   1   80.63   39.35
  -1  -6  -1   65.80   19.61
   1  -6   1   66.07   22.93
  -1  -6  -1   58.69   16.82
   1  -6  -2  106.15   25.72
   1   6   2  102.89   13.49
   1  -6  -2  120.31   17.95
  -1   6  -2  117.65   18.08
  -1  -6   2  117.45   13.49
  -1   6  -2  116.32   24.39
  -1  -6   2  125.56   23.26
   1   6   2  115.32   43.27
  -1   6   2   98.97   18.21
  -1   6   2  135.00   26.72
   1   6  -2  117.85   13.76
   1  -6   2   93.72   27.72
  -1  -6  -2  107.48   38.49
  -1  -6  -2  109.67   20.01
   1  -6   2  110.27   42.61
   1   6  -2  124.10   24.99
   1  -6  -3  106.88   40.35
  -1   6  -3   98.37   16.62
  -1  -6   3   97.91   12.83
  -1  -6   3  102.56   21.14
  -1   6  -3  107.35   22.67
   1  -6  -3  119.58   17.35
   1   6   3   87.87   21.07
   1   6   3  100.83   24.46
  -1   6   3   67.27   16.22
   1  -6   3   67.93   23.66
   1   6  -3   70.79   12.76
  -1  -6  -3   69.93   17.95
  -1  -6  -3   61.02   21.67
  -1   6   3  108.01   23.86
   1  -6   3   63.21   25.92
   1   6  -3   79.90   22.53
   1   6   4  261.42   33.70
  -1   6  -4  238.69   23.40
  -1  -6   4  233.37   29.31
   1   6   4  246.53   18.88
  -1   6  -4  262.75   30.97
   1  -6  -4  282.56   32.84
   1  -6  -4  276.05   40.48
  -1  -6   4  250.92   30.58
   1   6  -4  209.11   19.08
  -1  -6  -4  216.62   31.84
  -1  -6  -4  222.41   17.28
   1  -6   4  206.19   32.10
   1  -6   4  199.47   21.47
  -1   6   4  214.36   23.40
  -1   6   4  236.50   50.98
   1  -6  -5  293.93   26.52
   1  -6  -5  293.13   57.16
  -1  -6   5  274.58   34.43
  -1  -6   5  245.27   30.44
   1   6   5  290.80   20.80
  -1   6  -5  262.22   41.34
   1   6   5  265.34   34.90
   1  -6   5  266.67   24.53
   1  -6   5  260.16   55.44
  -1  -6  -5  279.17   19.61
   1   6  -5  278.64   32.37
  -1  -6  -5  270.93   34.36
   1   6  -5  271.59   21.67
  -1   6   5  287.74   26.52
  -1   6   5  292.80   33.97
   1   6   6  481.17   68.99
  -1   6  -6  447.60   39.48
   1  -6  -6  505.56   35.49
  -1  -6   6  487.82   59.22
   1   6   6  508.22   41.14
   1  -6  -6  517.93   45.27
  -1  -6   6  472.66   30.78
  -1   6  -6  475.98   35.49
   1   6  -6  508.69   42.21
   1   6  -6  393.96   41.74
  -1   6   6  539.06   44.14
  -1  -6  -6  505.63   44.87
  -1   6   6  523.18   36.23
   1  -6   6  496.46   71.12
  -1  -6  -6  506.63   28.52
   1  -6   6  463.29   33.70
   1   6   7   72.19   11.50
   1  -6  -7   70.46   16.15
  -1  -6   7   82.49   32.04
   1  -6  -7   69.86   35.10
   1   6   7   67.67   35.63
  -1   6  -7   64.54   18.15
  -1  -6   7   68.73   13.89
  -1   6  -7   70.72   27.85
  -1  -6  -7   61.02   20.61
  -1   6   7   68.60   16.55
   1   6  -7   63.88   13.23
   1   6  -7   56.90   16.95
   1  -6   7   63.15   22.53
  -1  -6  -7   73.98   11.03
  -1   6   7   65.14   20.07
   1  -6   7   60.09   27.19
  -1  -6   8  559.93   65.80
  -1   6  -8  565.05   62.28
   1   6   8  652.33   47.33
  -1  -6   8  585.46   54.11
   1  -6  -8  631.32   49.92
   1   6   8  566.98   74.11
   1  -6  -8  580.94   38.88
  -1   6  -8  567.45   41.28
   1  -6   8  647.61   53.18
   1  -6   8  586.85   60.15
  -1  -6  -8  667.15   46.53
  -1  -6  -8  653.46   50.85
  -1   6   8  681.31   44.00
  -1   6   8  652.06   48.92
   1   6  -8  568.04   52.78
   1   6  -8  560.53   58.76
   1   6   9  354.55   37.75
   1   6   9  402.47   36.23
  -1  -6   9  361.59   51.45
  -1  -6   9  374.62   29.45
   1  -6  -9  398.55   37.82
  -1   6  -9  349.43   31.37
  -1   6  -9  354.21   49.72
   1  -6  -9  385.25   31.84
  -1  -6  -9  361.13   38.09
   1   6  -9  311.01   45.13
  -1  -6  -9  397.22   34.90
  -1   6   9  417.16   33.23
  -1   6   9  390.84   37.16
   1   6  -9  352.62   28.85
   1  -6   9  359.60   31.11
   1  -6   9  367.31   39.81
   1   6  10  795.17   58.96
   1   6  10  803.48   42.27
   1  -6 -10  892.94   83.35
   1  -6 -10  802.41   70.59
  -1  -6  10  781.94   48.19
  -1   6 -10  757.75   51.58
  -1  -6  10  836.78   73.98
  -1   6 -10  767.58   48.79
   1  -6  10  877.06   62.68
   1   6 -10  815.64   70.32
  -1   6  10  949.78   56.30
   1  -6  10  771.77   50.58
  -1   6  10  905.44   59.56
  -1  -6 -10  876.06   62.35
  -1  -6 -10  912.69   44.87
   1   6 -10  799.29   66.00
   1  -6 -11  128.55   25.26
  -1  -6  11  111.20   30.44
  -1   6 -11  110.41   40.01
   1   6  11  115.66   26.19
  -1   6 -11  115.72   18.88
  -1  -6  11  146.90   20.67
   1   6  11  122.37   15.42
   1  -6 -11  133.60   22.00
  -1  -6 -11  183.65   27.52
   1   6 -11  161.72   28.65
   1  -6  11  160.79   23.40
  -1  -6 -11  213.17   25.72
  -1   6  11  197.68   23.06
   1   6 -11  167.44   21.93
   1  -6  11  178.14   27.39
  -1   6  11  181.79   24.99
  -1  -6  12  941.33   55.17
   1   6  12 1016.58   66.60
  -1   6 -12  992.32   64.14
   1   6  12 1055.73   97.64
  -1   6 -12  970.58   55.63
  -1  -6  12 1044.63   63.41
   1  -6 -12 1076.07   63.88
   1  -6 -12 1170.65   72.92
  -1  -6 -12 1129.91  103.63
  -1   6  12 1125.45   69.53
   1   6 -12 1036.19   62.28
  -1   6  12 1161.08   68.60
   1  -6  12  971.38   87.87
   1   6 -12  991.85   65.94
  -1  -6 -12 1114.62   54.90
   1  -6  12 1091.22   72.58
   1  -6 -13  275.45   29.65
  -1  -6  13  213.76   21.60
  -1  -6  13  287.61   49.92
   1  -6 -13  228.19   48.12
   1   6  13  212.83   50.78
   1   6  13  272.99   32.64
  -1   6 -13  212.70   31.71
  -1   6 -13  218.88   33.50
  -1  -6 -13  310.54   22.73
   1   6 -13  261.42   29.78
   1   6 -13  241.42   27.85
  -1  -6 -13  262.69   33.23
  -1   6  13  293.26   30.71
   1  -6  13  249.59   30.11
   1  -6  13  253.11   31.37
  -1   6  13  272.79   30.51
  -1  -6  14 1347.79   85.81
   1   6  14 1275.08   82.42
  -1  -6  14 1319.88   81.36
   1   6  14 1311.23  112.66
   1  -6 -14 1453.54  112.07
   1  -6 -14 1406.02   82.82
  -1   6 -14 1300.13   82.82
  -1   6 -14 1282.19   82.49
   1  -6  14 1370.72  107.81
   1   6 -14 1235.19  105.89
  -1   6  14 1433.60   84.62
  -1  -6 -14 1449.82   72.85
  -1   6  14 1371.92  107.95
  -1  -6 -14 1375.51  115.66
   1   6 -14 1274.01   60.02
   1  -6  14 1215.39   77.10
   1   6  15  216.42   30.91
   1  -6 -15  245.54   28.52
  -1  -6  15  222.80   19.01
  -1   6 -15  211.90   55.17
  -1  -6  15  238.69   32.50
   1   6  15  262.55   28.32
  -1   6 -15  223.07   29.11
   1  -6 -15  359.07   43.74
   1   6 -15  238.36   22.53
   1   6 -15  235.96   49.65
  -1   6  15  177.34   21.27
  -1   6  15  271.26   49.39
  -1  -6 -15  279.77   34.43
  -1  -6 -15  252.78   32.04
   1  -6  15  221.34   41.61
   1  -6  15  213.63   51.25
  -1   6 -16 1069.09  104.69
   1   6  16 1079.06   72.98
  -1  -6  16 1131.44   76.31
   1  -6 -16 1216.25   71.39
  -1   6 -16 1077.40   65.34
   1  -6  16 1031.40   72.12
   1  -6  16 1024.82   63.34
  -1   6  16 1107.57   72.38
   1   6 -16 1016.18   69.99
  -1  -6 -16 1127.78   74.98
   1  -6 -17  228.06   26.06
  -1  -6  17  250.32   36.03
   1   6  17  188.90   28.25
  -1   6 -17  203.86   34.30
  -1   6 -17  217.02   24.66
   1   6 -17  205.32   32.64
  -1   6  17  249.86   30.11
   1  -6  17  201.53   34.17
   1  -6  17  195.15   23.86
   1  -6 -18 1110.50   65.54
  -1  -6  18 1049.81   78.50
  -1   6 -18  980.15   74.31
   1   6  18  996.97   67.13
   1  -6  18  982.74   77.17
  -1   6  18  970.45   66.87
   1  -6  18  965.99   73.71
   1   6 -18  951.30   71.99
  -1  -6 -18 1223.56   83.29
  -1   6 -19  250.06   40.61
   1  -6 -19  287.48   27.58
   1   6  19  268.60   31.04
  -1  -6  19  289.34   43.47
  -1   6  19  286.08   53.64
   1   6 -19  257.57   39.75
  -1  -6 -19  339.66   27.78
   1  -6  19  269.86   41.48
   1  -6 -20   10.44   12.36
   1  -6 -20    1.60    4.92
   1   6  20    2.33    4.92
  -1  -6 -20    0.66    6.12
  -1   6  20    1.99    5.98
   1  -6 -21  171.16   25.99
   1   6  21    3.72   15.22
   1   6  21  124.50   29.25
   1   7   0 2719.51  214.43
  -1  -7   0 2675.58  163.98
  -1  -7   0 2532.34  129.55
   1   7   0 2474.71  128.88
  -1   7   0 2496.71  168.70
  -1   7   0 2950.83  175.35
   1  -7   0 2636.96  143.64
   1  -7   0 2626.12  164.05
  -1   7  -1   16.48   21.40
  -1   7  -1  106.02   29.58
   1   7   1   14.49   22.00
  -1  -7   1   22.93   11.37
  -1  -7   1   14.62   20.34
   1   7   1   22.27   11.37
   1  -7  -1   13.03   37.82
   1  -7  -1   24.13   15.49
   1   7  -1   40.08   12.03
  -1  -7  -1   25.32   34.90
   1   7  -1   26.92   21.54
   1  -7   1  156.73   28.45
  -1  -7  -1   14.16   11.03
  -1   7   1   24.19   21.67
  -1   7   1   27.45   16.35
   1  -7   1   15.15   21.34
   1   7   2 2827.92  178.54
  -1  -7   2 2759.06  165.24
  -1  -7   2 2797.88  171.56
   1   7   2 2734.47  145.70
  -1   7  -2 3214.77  191.10
   1  -7  -2 2915.13  160.72
   1  -7  -2 3036.37  187.51
  -1   7  -2 2873.32  158.79
  -1   7   2 3133.42  184.65
   1  -7   2 2867.81  158.33
   1  -7   2 2882.69  221.28
  -1   7   2 2809.45  156.47
   1   7  -2 3149.43  189.84
   1   7  -2 2868.00  149.36
  -1  -7  -2 2846.87  163.98
  -1  -7  -2 2894.13  177.67
  -1  -7   3    6.18   26.92
   1   7   3   11.17    9.31
  -1  -7   3    9.64    9.77
   1   7   3    7.84   31.84
   1  -7  -3   12.70   18.68
  -1   7  -3    4.65   29.38
  -1   7  -3   11.77   13.23
  -1  -7  -3   10.83   17.55
   1   7  -3    7.25    9.57
  -1  -7  -3   12.63    8.91
  -1   7   3    7.11   31.37
   1  -7   3    4.59   17.68
   1   7  -3   10.97   16.75
   1  -7   3    7.64   12.16
  -1   7   3   15.02   12.36
  -1   7  -4 2625.73  159.46
   1   7   4 2478.96  146.90
  -1  -7   4 2290.66  121.11
   1   7   4 2456.10  157.53
  -1   7  -4 2326.48  159.99
   1  -7  -4 2534.53  138.99
  -1  -7   4 2448.25  189.37
   1  -7  -4 2624.46  161.25
  -1  -7  -4 2611.77  130.88
   1   7  -4 2717.25  161.59
   1   7  -4 2127.27  137.06
  -1  -7  -4 2592.49  199.81
  -1   7   4 2486.87  135.26
   1  -7   4 2415.22  154.34
   1  -7   4 2230.50  124.50
  -1   7   4 2856.90  171.16
   1   7   5   19.34   20.27
   1   7   5   23.00   22.87
  -1  -7   5   22.00   20.34
  -1  -7   5   16.15   22.40
  -1   7  -5   36.23   34.63
  -1   7  -5   59.76   17.95
   1  -7  -5   28.71   22.73
   1  -7  -5   71.59   16.82
  -1  -7  -5   29.05   23.20
  -1  -7  -5   15.49   20.47
   1   7  -5   32.77   20.94
   1   7  -5   28.38   13.36
  -1   7   5   28.12   15.62
  -1   7   5   27.85   22.40
   1  -7   5   25.39   27.65
   1  -7   5   33.83   22.20
   1  -7  -6 2700.37  162.92
   1   7   6 2720.64  154.34
  -1  -7   6 2433.23  130.55
   1   7   6 2531.67  160.92
  -1  -7   6 2554.34  156.53
   1  -7  -6 2702.83  145.37
  -1   7  -6 2418.41  136.46
  -1   7  -6 2557.20  155.40
  -1  -7  -6 2711.80  155.01
  -1  -7  -6 2862.75  175.08
   1   7  -6 2739.85  194.36
   1   7  -6 2530.74  133.74
  -1   7   6 3043.22  178.07
  -1   7   6 2801.93  149.29
   1  -7   6 2420.20  135.66
   1  -7   6 2692.53  167.77
   1   7   7   20.94   20.34
  -1  -7   7   17.22   17.75
  -1  -7   7   23.20   12.63
   1   7   7   44.93   10.24
  -1   7  -7   17.95   27.92
   1  -7  -7   23.20   20.07
  -1   7  -7   28.98   17.48
   1  -7  -7   22.40   14.42
   1   7  -7   17.75   16.55
  -1  -7  -7   16.22   20.41
   1   7  -7   14.02   23.06
  -1  -7  -7   15.82    9.70
   1  -7   7   18.08   34.56
  -1   7   7   14.69   32.90
   1  -7   7   32.37   14.96
  -1   7   7   17.61   14.62
   1   7   8 1870.64   91.79
   1   7   8 1679.14  149.62
  -1  -7   8 1594.72   88.74
  -1  -7   8 1624.10  103.23
  -1   7  -8 1549.72  131.54
  -1   7  -8 1589.07   94.92
   1  -7  -8 1557.04  114.39
   1  -7  -8 1778.91  113.00
  -1   7   8 1850.70  100.90
  -1   7   8 1871.90  149.02
  -1  -7  -8 1778.25  115.66
  -1  -7  -8 1710.78   85.35
   1   7  -8 1595.06   98.64
   1   7  -8 1582.83   88.34
   1  -7   8 1556.90  119.58
   1  -7   8 1718.09  149.29
  -1   7  -9   90.86   22.27
   1  -7  -9   91.33   27.85
  -1  -7   9   77.50   19.21
   1   7   9  103.89   15.09
   1   7   9   88.14   46.93
  -1  -7   9   81.62   22.87
   1  -7  -9   87.54   19.87
  -1   7  -9   72.12   23.46
   1  -7   9   85.15   22.00
   1   7  -9   96.71   33.63
   1   7  -9   92.52   20.67
  -1  -7  -9  138.45   23.20
  -1  -7  -9  111.60   28.12
  -1   7   9  129.02   45.93
  -1   7   9   89.80   37.62
   1  -7   9  102.36   45.20
   1   7  10 1224.16  120.84
   1   7  10 1358.76   83.22
  -1  -7  10 1434.07  102.10
  -1  -7  10 1190.33   76.84
  -1   7 -10 1154.77   75.18
  -1   7 -10 1115.15   73.32
   1  -7 -10 1350.65   88.60
   1  -7 -10 1189.86   94.65
   1  -7  10 1194.12  116.99
  -1  -7 -10 1265.77   63.74
  -1  -7 -10 1230.01   89.13
   1   7 -10 1033.39   89.13
  -1   7  10 1331.51  120.64
   1  -7  10 1082.12   70.86
   1   7 -10 1064.37   66.93
  -1   7  10 1305.72  101.30
   1   7  11  100.30   22.73
  -1  -7  11   64.28   18.74
   1   7  11   70.52   41.81
  -1  -7  11   58.49   30.97
  -1   7 -11   60.82   22.07
   1  -7 -11   68.66   40.75
   1  -7 -11   64.67   18.35
  -1   7 -11   18.81   30.71
   1  -7  11   47.06   35.43
  -1  -7 -11   55.57   25.06
   1   7 -11   54.31   27.25
   1   7 -11   60.09   18.94
  -1  -7 -11   86.68   20.94
   1  -7  11   55.37   38.55
  -1   7  11   63.74   33.50
  -1   7  11   60.15   39.15
   1  -7 -12 1036.19   73.98
  -1  -7  12  901.19   62.48
   1  -7 -12  970.91   58.29
   1   7  12  924.78   66.00
  -1  -7  12  914.61   77.44
   1   7  12  892.48  103.23
  -1   7 -12  886.90   96.78
  -1   7 -12  866.09   80.43
  -1   7  12  995.57   87.67
  -1   7  12  983.81   97.91
   1   7 -12  826.41   86.34
  -1  -7 -12  939.21   74.05
   1  -7  12  859.44   94.72
   1   7 -12  813.78   70.06
  -1  -7 -12  935.15   50.12
   1  -7  12  789.45   60.69
   1  -7 -13   -3.52   12.03
  -1   7 -13   31.37   13.36
  -1  -7  13   42.94   12.76
   1   7  13   41.48   24.26
  -1  -7  13   33.30   17.35
   1   7  13   46.99   10.70
   1  -7 -13   45.93   18.54
  -1   7 -13   33.77   19.01
  -1  -7 -13   21.80   12.16
  -1  -7 -13   38.49   20.54
   1   7 -13   31.31   29.25
   1   7 -13   33.83   18.88
   1  -7  13   35.83   17.61
  -1   7  13  -24.06   16.48
   1  -7  13   33.57   18.28
  -1   7  13   41.48   16.95
   1  -7 -14  662.36   80.49
   1   7  14  593.63   36.96
  -1  -7  14  580.27   51.65
  -1  -7  14  565.78   39.22
  -1   7 -14  545.38   52.64
  -1   7 -14  538.33   38.68
  -1   7  14  679.65   50.05
  -1  -7 -14  651.00   87.47
   1   7 -14  579.14   49.65
   1   7 -14  586.46   48.92
   1  -7  14  621.22   79.23
   1  -7  14  598.89   48.99
   1  -7 -15    0.27    8.11
  -1   7 -15   48.59   11.17
  -1   7 -15   46.13   20.21
   1   7  15   58.69   10.83
   1   7  15   -0.53   10.83
  -1  -7  15   40.08   18.88
  -1  -7  15   48.39   32.10
   1  -7 -15   40.41   17.55
  -1  -7 -15   34.23   20.14
   1   7 -15   37.95   17.88
  -1   7  15   -0.86    9.04
   1  -7  15   37.42   15.15
  -1   7  15   39.62   16.15
   1  -7  15   42.21   18.81
  -1   7 -16  312.60   25.19
  -1   7 -16  315.06   44.20
   1   7  16  327.29   25.52
  -1  -7  16  325.03   42.47
   1  -7 -16  373.02   37.95
  -1  -7 -16  394.69   69.93
   1   7 -16  333.61   41.08
   1  -7  16  308.68   41.94
  -1   7  16  399.81   37.36
   1  -7  16  329.49   51.25
   1  -7 -17   61.62   27.72
   1   7  17    0.27   10.77
  -1  -7  17   42.67   36.03
   1  -7 -17   -0.53   11.83
  -1   7 -17   42.34   38.29
  -1   7 -17   40.21    9.64
   1  -7  17   39.88   35.96
   1   7 -17   42.81   20.41
  -1  -7 -17   53.04   20.07
   1  -7  17   50.92   23.40
  -1   7  17   48.06   28.58
   1  -7 -18  159.46   36.76
  -1   7 -18   88.80   51.91
   1   7  18  120.44   24.26
   1   7  18    1.33   17.28
  -1   7  18  152.95   38.02
   1   7 -18  129.08   28.52
   1   7  19   -0.93    4.99
   1   7  19    3.32   17.81
   1  -7 -19   16.68    9.51
   1  -7 -19    0.33    4.39
  -1   7  19    6.65    9.84
  -1   7  19   -0.47    3.99
   1  -8   0    5.92   16.02
  -1  -8   0   -1.20   15.42
   1   8   0    2.86    8.24
   1   8   0    4.59   28.58
  -1  -8   0    3.06    7.58
  -1   8   0    4.52   16.02
   1  -8   0    5.32   10.83
  -1   8   0    0.47   11.63
   1  -8  -1   30.44   16.95
   1   8   1   34.23   26.52
  -1  -8   1   24.99   41.94
   1   8   1   30.84   14.22
  -1  -8   1   32.64   12.56
   1  -8  -1   38.15   45.33
  -1   8  -1   29.51   30.91
  -1   8  -1   34.63   26.19
  -1   8   1   40.08   18.08
  -1  -8  -1   41.54   12.16
   1   8  -1   43.14   25.19
  -1  -8  -1   46.73   25.46
   1   8  -1   46.53   13.69
   1  -8   1   43.27   30.97
  -1   8   1   48.99   45.13
   1  -8   1   44.00   26.39
  -1   8  -2   29.98   42.67
   1   8   2   27.65   25.46
   1   8   2   26.65   12.63
  -1  -8   2   25.59   40.68
  -1  -8   2   23.53   12.63
   1  -8  -2   31.77   24.93
   1  -8  -2   21.20   27.52
  -1   8  -2   23.73   17.61
  -1  -8  -2   48.06   25.19
   1   8  -2   36.03   13.43
   1   8  -2   36.36   24.13
  -1  -8  -2   33.77   19.94
  -1   8   2   35.16   16.68
   1  -8   2   41.28   25.06
  -1   8   2   42.27   24.59
   1  -8   2   37.36   17.02
  -1  -8   3  180.46   35.83
   1   8   3  160.72   20.54
   1   8   3  184.52   67.13
  -1  -8   3  197.75   38.09
   1  -8  -3  197.35   27.12
  -1   8  -3  208.18   39.88
  -1   8  -3  183.72   29.11
   1  -8  -3  208.65   40.88
   1  -8   3  175.28   28.05
  -1  -8  -3  180.06   20.21
   1   8  -3  160.46   38.55
   1   8  -3  207.78   38.55
  -1  -8  -3  172.69   66.47
   1  -8   3  179.33   66.73
  -1   8   3  159.53   45.00
  -1   8   3  179.33   38.22
  -1   8  -4   84.95   40.01
  -1   8  -4  100.04   54.44
  -1  -8   4  104.02   30.38
   1   8   4   86.01   15.82
  -1  -8   4   85.28   18.01
   1   8   4  102.30   58.63
   1  -8  -4   90.93   53.04
   1  -8  -4   93.06   21.54
   1  -8   4   97.98   31.37
  -1  -8  -4   99.77   16.22
   1   8  -4   97.11   31.24
  -1  -8  -4   88.27   33.04
   1   8  -4   88.47   18.61
  -1   8   4   81.62   21.00
  -1   8   4   88.27   30.11
   1  -8   4   90.73   38.49
   1  -8  -5   17.55   12.83
   1  -8  -5   15.49   19.61
   1   8   5   10.24   20.54
   1   8   5    8.18    9.37
  -1  -8   5   12.30   11.30
  -1  -8   5   12.23   18.41
  -1   8  -5   17.15   15.22
  -1   8  -5   11.10   19.01
  -1   8   5   16.48   32.17
   1   8  -5   15.89   11.43
  -1  -8  -5   13.36   16.28
   1   8  -5   14.36   17.95
   1  -8   5   15.69   14.22
  -1  -8  -5   19.21   21.47
  -1   8   5    0.00   13.03
   1  -8   5   12.56   19.61
  -1   8  -6  405.66   77.97
   1   8   6  381.86   52.31
   1   8   6  395.22   28.32
  -1  -8   6  371.16   32.64
  -1  -8   6  396.69   47.99
   1  -8  -6  419.15   83.68
  -1   8  -6  379.47   40.08
   1  -8  -6  428.92   37.75
   1  -8   6  346.24   49.52
   1   8  -6  315.86   51.58
   1   8  -6  338.93   45.13
  -1  -8  -6  345.71   83.02
  -1   8   6  400.94   84.75
  -1  -8  -6  360.86   27.32
  -1   8   6  347.37   34.63
   1  -8   6  316.72   60.42
   1  -8  -7  134.93   24.13
  -1   8  -7  120.31   28.71
  -1  -8   7  124.56   22.20
  -1  -8   7  128.55   31.97
   1   8   7  145.10   17.81
   1   8   7  158.93   35.89
  -1   8  -7  147.23   32.10
   1  -8  -7  146.63   34.90
   1   8  -7  135.60   30.84
  -1  -8  -7  138.65   27.92
  -1  -8  -7  160.79   36.96
   1   8  -7  132.01   23.06
   1  -8   7  122.50   27.05
  -1   8   7  187.91   61.35
  -1   8   7  152.68   23.80
   1  -8   7  145.10   35.16
   1  -8  -8  474.19   34.70
   1   8   8  383.79   51.85
  -1  -8   8  367.17   54.44
   1   8   8  429.99   29.18
  -1  -8   8  398.28   45.66
  -1   8  -8  360.26   64.61
  -1   8  -8  365.85   71.99
   1  -8  -8  430.72   51.58
  -1   8   8  408.52   36.23
  -1  -8  -8  284.35   21.14
  -1  -8  -8  416.16   86.81
   1   8  -8  354.21   56.50
   1   8  -8  366.44   68.33
   1  -8   8  335.67   39.08
  -1   8   8  434.97   51.58
   1  -8   8  376.48   49.25
   1   8   9   41.94   11.17
  -1  -8   9    0.13   19.67
  -1  -8   9   28.12   15.75
   1   8   9   36.43   23.46
  -1   8  -9   33.43   19.14
  -1   8  -9   28.78   19.08
   1  -8  -9   37.29   22.40
   1   8  -9   37.02   18.35
  -1  -8  -9   -3.26    8.77
  -1  -8  -9   48.46   24.39
   1   8  -9   39.62   16.09
   1  -8   9   38.22   30.71
  -1   8   9   56.50   27.72
  -1   8   9   54.64   23.13
   1  -8   9   43.47   22.00
  -1   8 -10  529.16   83.68
   1  -8 -10  633.78   61.82
   1   8  10  551.43   62.48
   1   8  10  651.66   39.62
  -1  -8  10  666.42   73.98
  -1  -8  10  585.79   54.31
  -1   8 -10  520.12   51.51
   1  -8  10  572.23   51.91
   1   8 -10  600.35   49.05
  -1  -8 -10  679.78   67.47
   1   8 -10  545.05   48.92
  -1   8  10  722.85   64.21
  -1   8  10  717.93   75.51
   1  -8  10  618.16   60.89
   1  -8 -11  258.63   41.01
   1   8  11  267.74   35.76
  -1   8 -11  216.56   53.37
  -1  -8  11  244.74   33.90
  -1  -8  11  208.05   31.31
   1   8  11  224.86   41.54
  -1   8 -11  210.04   36.56
   1  -8  11  239.55   38.22
  -1   8  11  243.54   31.37
  -1  -8 -11  234.44   43.27
   1   8 -11  179.00   51.25
   1   8 -11  211.84   46.20
   1  -8  11  201.80   34.83
   1  -8 -12  554.02   90.33
  -1  -8  12  512.81   67.93
  -1  -8  12  467.21   46.73
   1   8  12  575.62   51.31
  -1   8 -12  462.49   51.85
  -1   8 -12  447.34   44.00
  -1  -8 -12  550.03   61.22
   1   8 -12  455.65   45.73
   1   8 -12  449.00   60.15
  -1   8  12  559.87   45.13
   1  -8  12  461.36   78.10
   1  -8  12  496.52   51.91
  -1  -8  13  181.73   31.51
   1  -8 -13  182.59   35.56
  -1  -8  13  192.56   40.35
  -1   8 -13  169.03   35.96
  -1   8 -13  155.40   26.39
   1   8  13  226.26   34.70
   1  -8  13  142.71   33.10
  -1  -8 -13  167.44   38.75
   1   8 -13  134.33   31.37
   1   8 -13  145.23   36.89
   1  -8  13  172.89   32.04
  -1   8  13  178.60   28.71
   1   8  14  874.07   66.80
  -1  -8  14  709.56   50.78
  -1  -8  14  737.21   64.28
  -1   8 -14  680.64  101.23
  -1   8 -14  680.51   72.19
   1  -8 -14  804.01   99.97
  -1  -8 -14  820.29   75.51
   1   8 -14  700.25   64.87
   1   8 -14  697.73   63.48
   1  -8  14  728.43   61.15
  -1   8  14  864.10   60.75
   1  -8  14  760.21   97.64
  -1  -8  15  171.49   21.14
  -1  -8  15  211.04   32.50
  -1   8 -15  161.85   35.89
  -1   8 -15  156.93   36.03
   1  -8 -15  204.72   33.63
  -1   8  15    0.66   24.99
  -1   8  15  194.89   46.13
  -1  -8 -15  186.58   37.69
   1   8 -15   74.45   54.44
   1  -8  15  162.85   44.73
   1  -8  15  135.07   33.57
  -1   8 -16  582.20   61.28
   1  -8 -16  679.71   60.15
  -1   8  16  718.46   81.89
   1   8 -16  614.37   94.92
  -1  -8 -16  702.38  105.82
   1  -8  16  619.29   51.38
  -1   9   0  541.79  113.66
   1   9   0  520.59  110.34
  -1  -9   0  483.69  106.42
   1  -9   0  490.14   67.86
   1   9   0  479.18   42.14
   1  -9   0  528.76   47.92
  -1   9   0  475.39   50.92
   1  -9  -1  969.78   73.65
  -1  -9   1 1103.45   98.24
   1   9   1  956.95   63.81
   1   9   1 1124.79  100.97
  -1   9  -1 1203.75  104.49
   1  -9  -1 1148.25  151.42
  -1   9  -1  982.74   81.03
  -1  -9  -1 1133.70  148.29
   1   9  -1  901.32   63.08
   1   9  -1 1140.08  100.30
   1  -9   1 1028.67  112.40
  -1   9   1 1165.60  105.22
  -1   9   1  917.14  103.56
   1  -9   1 1046.36   99.04
  -1  -9   2  723.45   78.90
   1   9   2  725.78   81.56
   1   9   2  638.17   46.99
  -1   9  -2  680.18  103.56
  -1   9  -2  810.59   84.08
   1  -9  -2  706.43   77.64
  -1  -9  -2  767.78   83.02
   1   9  -2  610.32   77.30
   1   9  -2  801.82   83.02
  -1   9   2  800.75   84.42
   1  -9   2  717.53   64.01
   1  -9   2  691.94   78.37
  -1   9   2  691.54   90.73
  -1  -9   3  946.85   88.34
   1   9   3  767.45   71.85
   1   9   3  907.70   90.86
  -1   9  -3  832.19   71.06
   1  -9  -3  926.58   89.93
  -1   9   3 1046.89   94.32
   1   9  -3 1010.93  127.49
  -1  -9  -3  995.24   95.18
   1   9  -3  841.83   61.35
   1  -9   3  945.79  134.00
   1  -9   3  901.52  108.74
  -1   9   3  911.69   66.93
  -1   9  -4  360.26   79.43
  -1  -9   4  446.54   59.02
   1   9   4  412.51   52.11
   1   9   4  502.97  111.73
   1  -9  -4  472.59  102.30
  -1   9  -4  505.76   64.34
   1   9  -4  439.83   58.43
   1   9  -4  407.39   40.88
  -1  -9  -4  481.30  108.68
   1  -9   4  443.68  101.56
   1  -9   4  433.18   50.38
  -1   9   4  407.12   43.54
  -1   9   4  477.58   99.77
  -1   9  -5 1119.67   97.84
   1   9   5  968.12   78.83
  -1  -9   5 1019.70   90.07
   1   9   5 1049.61  100.24
  -1   9  -5  919.20   78.83
   1  -9  -5 1017.91   93.26
   1  -9   5 1040.31   97.51
  -1  -9  -5 1066.69   97.84
   1   9  -5 1128.11  135.00
   1   9  -5  934.69   98.04
  -1   9   5 1130.70  143.37
   1  -9   5 1011.06  116.39
  -1   9   5  900.99   95.38
   1   9   6  505.23   69.46
   1   9   6  517.26   54.11
  -1  -9   6  509.09   60.82
  -1   9  -6  459.17   86.87
  -1   9  -6  518.46   64.14
   1  -9  -6  522.91   67.07
   1  -9   6  501.97   67.93
  -1   9   6  511.35   72.85
  -1   9   6  551.83   65.67
   1   9  -6  554.75   61.22
   1   9  -6  466.94   45.66
   1  -9   6  481.24   55.70
  -1  -9  -6  548.30   70.52
  -1   9  -7  585.53   62.55
  -1  -9   7  663.56  103.49
   1   9   7  634.18   76.24
   1   9   7  639.43   60.62
  -1   9  -7  673.66   70.99
   1  -9  -7  701.25  117.98
  -1   9   7  687.29   71.59
  -1  -9  -7  717.07  124.03
   1   9  -7  667.28  101.50
   1   9  -7  597.16   80.76
   1  -9   7  613.44   60.42
   1  -9   7  658.97   74.05
  -1   9   7  668.28   52.78
  -1   9  -8  301.64   48.59
  -1  -9   8  329.55   77.84
   1   9   8  354.81   44.47
   1   9   8  304.36   56.37
  -1   9  -8  269.07   77.50
   1  -9  -8  330.42   54.17
   1   9  -8  347.43   47.33
  -1  -9  -8  338.93   57.63
   1   9  -8  287.88   37.69
  -1   9   8  352.68   37.49
  -1   9   8  334.14   51.18
   1  -9   8  275.12   72.98
   1  -9   8  322.64   53.24
  -1   9  -9  703.57   69.86
   1   9   9  849.34   68.33
   1   9   9  769.58   82.75
  -1  -9   9  829.00   74.18
  -1   9  -9  699.39  105.95
   1  -9  -9  874.87  125.09
   1   9  -9  763.86   67.20
   1  -9   9  811.85   79.56
   1  -9   9  681.64   65.87
   1   9  -9  695.33   60.09
  -1  -9  -9  843.09   86.94
  -1   9   9  828.07   60.95
   1  -9 -10  373.82   55.37
   1   9  10  388.71   44.80
   1   9  10  415.70   50.25
  -1  -9  10  378.28   49.59
  -1   9 -10  327.63   50.18
  -1   9 -10  303.83   45.66
   1   9 -10  298.25   67.53
   1   9 -10  302.17   41.01
  -1  -9 -10  371.36   95.52
   1  -9  10  290.47   74.84
  -1   9  10  352.02   60.95
   1  -9  10  374.75   53.31
   1   9  11  280.03   39.48
  -1   9 -11  229.72   64.67
  -1  -9  11  286.68   42.74
  -1   9 -11  204.39   72.05
   1  -9 -11  306.95   50.85
  -1   9  11  310.74   55.97
  -1  -9 -11  327.49   54.70
   1   9 -11  259.30   36.29
   1   9 -11  264.21   39.22
   1  -9  11  312.94   47.53
   1  -9  11  243.14   42.61
  -1  -9  12  202.53   35.10
  -1   9 -12  178.07   40.28
  -1   9 -12  167.37   33.37
   1  -9 -12  191.16   41.41
  -1  -9 -12  192.49   80.10
   1   9 -12  158.93   28.91
   1   9 -12  184.52   35.56
   1  -9  12  211.24   39.68
  -1   9  12  215.56   30.18
  -1   9 -13  293.86   39.95
  -1  -9  13  355.08   62.35
   1  -9 -13  360.93   84.75
  -1  -9 -13  403.33   58.83
   1   9 -13  317.99   55.30
   1   9 -13  313.20   73.18
   1  -9  13  378.01   76.84
  -1   9  13  401.87   40.41
   1 -10   0    2.26   18.48
  -1 -10   0    0.40    7.71
   1  10   0    6.38   34.63
   1  10   0    2.13    9.84
  -1 -10   0    7.31   18.88
  -1  10   0    7.25   19.54
   1 -10   0   -0.60    6.78
  -1  10   0    5.98   12.76
   1 -10  -1   -1.46    9.04
  -1  10  -1    6.91   29.11
  -1  10  -1    4.19   11.17
  -1 -10   1   -0.33    3.86
   1  10   1    4.32   16.42
  -1 -10   1   -1.86   15.55
   1  10   1    2.13    7.58
   1 -10  -1   -0.66   26.85
  -1  10   1   11.17   16.48
   1 -10   1    3.86   15.49
  -1 -10  -1   -1.26    3.86
   1  10  -1    1.53   14.96
   1  10  -1    4.72   15.15
  -1 -10  -1   10.77   16.09
  -1  10   1    0.33   18.28
   1 -10   1   -0.33    5.85
  -1 -10   2    6.12   16.55
  -1 -10   2   -1.46    4.25
   1  10   2   -0.66   17.68
   1  10   2    3.66   13.16
  -1  10  -2    4.45   21.47
  -1  10  -2    1.66   17.28
   1 -10  -2   -0.33    5.65
   1 -10  -2    7.05   28.58
  -1  10   2    4.52   17.88
  -1 -10  -2    2.53    6.51
   1  10  -2    3.46    9.77
   1  10  -2    2.73   16.15
  -1 -10  -2    9.97   31.31
   1 -10   2   -0.27    5.32
  -1  10   2    0.60   10.64
   1 -10   2    9.77   16.42
  -1  10  -3   79.70   38.29
   1  10   3   76.97   39.35
   1  10   3   77.17   29.31
  -1 -10   3   70.12   61.75
  -1  10  -3   76.97   29.38
   1 -10  -3   72.38   36.96
   1 -10  -3    0.53   20.01
  -1  10   3   92.06   23.73
  -1 -10  -3   81.82   37.75
   1  10  -3   75.71   21.87
   1  10  -3   77.30   60.82
   1 -10   3   74.91   60.95
  -1  10  -4   17.55   34.83
   1 -10  -4    2.06    6.38
   1  10   4    8.51    8.64
  -1 -10   4    0.27    6.05
  -1 -10   4   13.23   32.37
   1 -10  -4    8.91   19.74
  -1  10  -4    5.05   27.92
   1 -10   4    9.84   35.10
  -1 -10  -4    1.53    6.91
   1  10  -4   -0.40   20.67
   1  10  -4    5.12   18.28
  -1 -10  -4    3.59   20.21
   1 -10   4    0.66    6.51
  -1  10   4    0.00   21.14
  -1 -10   5   -1.06   51.18
   1  10   5   81.82   13.96
  -1 -10   5    0.66    9.97
  -1  10  -5   70.19   25.52
  -1  10  -5   73.78   31.51
   1 -10  -5    0.33   16.15
   1 -10  -5   -0.20   16.15
   1 -10  -5   74.45   54.64
   1  10  -5   76.11   20.01
  -1 -10  -5  110.54   34.50
   1  10  -5   71.65   30.04
   1 -10   5    1.33   17.35
   1 -10   5   81.76   55.83
  -1  10   5   90.53   19.87
  -1  10  -6   14.89   30.71
  -1  10  -6   15.35   20.94
   1  10   6   19.74    9.24
  -1 -10   6   -0.27    6.91
  -1 -10   6    1.33   34.83
   1 -10  -6    0.27    6.45
   1 -10  -6   11.17   21.47
   1 -10   6   15.95   21.74
  -1 -10  -6    3.59    4.52
  -1 -10  -6   28.38   39.48
   1  10  -6   15.02   23.60
   1  10  -6    8.97   19.54
  -1  10   6   -0.40   13.16
  -1  10  -7  246.73   45.86
   1  10   7  258.76   26.12
  -1 -10   7  288.48   85.21
   1  10  -7  222.14   37.55
   1  10  -7  271.79   49.59
   1 -10   7  284.02   54.44
  -1  10   7  258.90   56.30
   2   0   0 7666.20  381.40
  -2   0   0 7835.23  389.97
   2   0   0 6711.58  353.28
  -2   0   1  330.35   15.15
   2   0   1  315.33   20.47
   2   0   1  357.27   23.26
   2   0  -1  374.62   15.09
  -2   0  -1  327.23   20.61
   2   0  -1  375.88   16.42
  -2   0  -1  361.86   23.33
  -2   0   1  355.61   14.62
   2   0   2 4407.23  195.88
   2   0  -2 4409.49  191.50
  -2   0   2 4697.90  202.86
  -2   0  -2 3588.06  174.48
   2   0  -2 4297.29  194.89
   2   0   2 4147.27  177.07
  -2   0  -2 4262.79  190.23
  -2   0   2 4278.21  191.43
   2   0   3  936.48   36.69
   2   0  -3  980.62   32.50
  -2   0  -3  936.35   45.40
   2   0  -3  896.27   37.49
  -2   0   3  884.70   36.23
   2   0   3  920.00   29.51
  -2   0   3 1011.72   39.08
  -2   0  -3  895.87   31.71
  -2   0  -4 8747.65  462.42
   2   0   4 9058.40  478.24
  -2   0  -4 7914.86  410.51
  -2   0   4 9386.22  499.12
  -2   0   4 9999.00  516.00
   2   0  -4 8773.44  471.27
   2   0  -4 8993.86  461.16
   2   0   4 8800.63  454.91
  -2   0  -5  153.08   16.28
  -2   0  -5  166.24    7.11
  -2   0   5  146.56   11.23
  -2   0   5  146.30    5.32
   2   0   5  132.41    9.84
   2   0  -5  145.97    7.58
   2   0   5  153.61    8.77
   2   0  -5  139.58   11.83
   2   0   6 3567.19  156.53
   2   0   6 3519.07  150.42
   2   0  -6 3588.93  163.05
   2   0  -6 3363.27  135.86
  -2   0   6 3589.66  160.99
  -2   0   6 3754.44  151.08
  -2   0  -6 3551.77  155.60
  -2   0  -6 3431.00  143.97
   2   0   7  103.56    5.65
  -2   0   7   85.08    9.97
  -2   0  -7  108.08    9.57
   2   0   7   86.87    8.31
   2   0  -7  120.11    5.92
   2   0  -7   95.65   17.61
  -2   0   7   93.32    4.92
  -2   0  -7   89.33   13.56
   2   0   8 6004.08  302.97
   2   0  -8 6680.47  342.85
  -2   0  -8 6299.53  309.61
   2   0   8 6796.52  353.08
  -2   0  -8 6660.19  332.41
  -2   0   8 6960.44  316.59
   2   0   9  179.20   13.69
   2   0   9  172.22   11.30
   2   0  -9  172.15   14.89
   2   0  -9  186.71   14.82
  -2   0  -9  176.21   10.90
  -2   0  -9  181.39    9.64
   2   0  10 3689.69  171.16
   2   0 -10 3213.25  172.42
   2   0 -10 3670.75  174.68
   2   0  10 3708.90  167.50
  -2   0 -10 3817.18  178.40
  -2   0 -10 3650.01  173.68
   2   0  11  103.43    8.24
   2   0  11   86.94   13.89
  -2   0 -11   89.60   13.36
   2   0 -11   84.08   13.16
   2   0 -11   93.59   12.96
  -2   0 -11   92.39    8.57
   2   0 -12 2631.38  125.76
   2   0  12 2569.03  113.79
   2   0 -12 2595.55  140.71
  -2   0 -12 2501.49  106.35
  -2   0 -12 2744.31  118.85
   2   0 -13    4.19    8.31
   2   0  13    3.59    8.24
   2   0  13   10.17    4.39
   2   0 -13    8.18    8.38
  -2   0 -13   11.10    5.05
  -2   0 -13    8.11    7.18
   2   0 -14 1190.19   79.16
   2   0  14 1129.71   49.05
  -2   0 -14 1117.88   47.19
  -2   0 -14 1168.53   51.58
   2   0 -14 1267.36   80.43
   2   0  14 1126.25   46.73
   2   0  15    6.25    8.51
   2   0 -15    3.19    9.44
  -2   0 -15    9.04    8.77
   2   0  15    9.17    7.58
   2   0 -15    5.92   16.48
  -2   0 -15   10.77    5.78
   2   0 -16  616.83   40.21
   2   0  16  607.86   28.38
   2   0 -16  621.88   60.02
  -2   0 -16  597.69   28.91
   2   0  16  577.62   25.79
  -2   0 -16  626.74   31.77
  -2   0 -17   50.52   17.22
   2   0 -17   53.18   15.75
   2   0  17   48.72   12.96
   2   0 -17   51.78   15.75
  -2   0 -17   51.71   14.89
   2   0  17   53.31    7.05
   2   0 -18  349.69   31.17
  -2   0 -18  330.82   20.61
   2   0 -18  357.80   32.77
   2   0  18  345.17   17.55
  -2   0 -18  355.54   35.10
   2   0  18  337.99   18.68
   2   0  19   44.93   11.10
   2   0 -19   36.69   28.18
  -2   0 -19   43.20   10.77
   2   0 -19   43.27   16.95
  -2   0 -19   41.01   15.82
   2   0  19   40.75   12.63
  -2   0 -20   25.72   10.50
   2   0 -20   35.83   16.48
   2   0  20   26.19    9.57
   2   0 -20   33.30   15.82
  -2   0 -20   26.52    8.97
   2   0  20   38.75   11.63
   2   0  21    7.98    4.25
   2   0 -21    7.11   12.23
  -2   0 -21   -2.33    5.38
   2   0  21    8.38    5.12
   2   0 -21   12.30   22.00
  -2   0 -21    9.24    7.98
   2   0 -22   65.54   21.67
   2   0 -22   55.17   20.21
  -2   0 -22   41.34   23.13
  -2   0 -23   -0.60    5.78
  -2   0 -23   19.14    9.31
   2   0 -23   26.19   23.26
   2   0 -23   22.20   25.66
  -2   0 -24   47.86   11.70
   2   0 -24   -0.33    6.58
   2   0 -24   42.54   18.48
  -2   0 -25    0.27    5.98
  -2   0 -25   17.28   16.55
   2   0 -25   20.41   15.55
   2   1   0  429.32   25.26
   2  -1   0  347.90   22.47
  -2   1   0  347.57   22.40
   2   1   0  405.46   17.08
   2   1   0  422.94   24.79
   2   1   0  431.98   15.49
   2  -1   0  394.09   18.68
  -2   1   0  404.07   18.74
   2   1   1   88.54    8.38
  -2   1  -1   86.74   11.96
   2  -1  -1   78.63   13.23
   2  -1  -1   91.33    8.71
   2   1   1   93.32   13.36
  -2   1  -1   85.68   14.49
   2   1   1   88.00    5.45
   2  -1   1   81.23   16.09
  -2   1   1   73.98   18.88
  -2   1   1   90.60    8.38
   2  -1   1   89.33    8.97
   2   1  -1   99.30    8.11
   2   1  -1   85.21   11.17
   2   1  -1   86.94    9.11
   2   1  -1   87.27    7.11
   2   1   2  103.09    9.90
   2  -1  -2   95.85   13.83
   2   1   2   96.98   15.55
  -2   1  -2  101.96   17.08
   2  -1  -2  106.28    9.44
  -2   1  -2   94.12   10.83
  -2   1   2  149.82   22.53
   2  -1   2  178.74   16.62
   2   1  -2  173.28   11.70
   2   1  -2  173.09    7.51
   2   1  -2  176.01    8.04
   2  -1   2  168.30   11.17
   2   1  -2  188.90   11.37
  -2   1   2  178.80   16.68
   2   1   3  424.80   20.01
  -2   1  -3  423.94   19.48
   2  -1  -3  415.43   25.39
   2   1   3  410.98   18.94
  -2   1  -3  427.93   19.81
   2  -1  -3  397.82   36.16
  -2   1   3  458.84   19.21
   2  -1   3  463.09   18.41
   2  -1   3  444.28   20.41
   2   1  -3  498.78   24.26
   2   1  -3  462.03   18.35
   2   1  -3  481.83   16.02
   2   1  -3  459.63   20.34
  -2   1   3  413.57   23.33
  -2   1  -4 1187.54   54.11
   2  -1  -4 1070.42   48.06
   2  -1  -4 1116.01   42.67
   2   1   4 1125.98   44.73
   2   1   4 1165.47   46.13
  -2   1  -4 1150.11   45.20
   2  -1   4 1144.60   41.94
  -2   1   4 1151.78   50.45
  -2  -1  -4  995.91   30.11
   2   1  -4 1165.73   45.53
   2   1  -4 1142.20   44.14
   2   1  -4 1089.96   41.61
   2   1  -4 1164.34   38.55
  -2   1   4 1081.58   47.79
   2  -1   4 1081.58   52.98
   2   1   5   20.61   11.37
  -2   1  -5   20.87    5.52
   2   1   5   20.47    6.51
   2  -1  -5   19.87    8.38
   2  -1  -5   21.74    5.45
  -2   1  -5   16.75    6.05
  -2  -1  -5   48.92    3.12
   2  -1   5   48.59    4.99
   2  -1   5   50.98    6.71
  -2   1   5   47.59    8.84
   2   1  -5   48.39    6.98
  -2  -1  -5   51.18    3.06
   2   1  -5   50.05    6.18
  -2   1   5   49.72    4.85
   2   1  -5   50.72    5.78
  -2   1  -6  566.45   28.32
   2  -1  -6  499.05   36.82
  -2   1  -6  537.80   29.71
   2   1   6  539.86   30.84
   2  -1  -6  538.66   27.52
   2   1   6  510.22   29.58
  -2   1   6  510.08   23.66
   2  -1   6  500.84   19.41
   2  -1   6  494.13   22.13
  -2   1   6  458.30   24.86
   2   1  -6  484.49   13.76
   2   1  -6  488.15   21.74
   2   1  -6  501.97   23.46
  -2  -1  -6  517.66   15.35
  -2  -1  -6  501.11   15.02
   2   1  -6  463.36   17.81
   2  -1  -7  443.48   18.08
  -2   1  -7  409.05   17.95
   2   1   7  420.62   18.74
   2   1   7  392.77   18.41
  -2   1  -7  425.73   17.55
   2  -1  -7  391.10   22.20
   2  -1   7  354.94   14.89
  -2   1   7  327.03   20.54
   2  -1   7  341.78   17.22
  -2   1   7  349.29   13.09
  -2  -1  -7  371.89   14.89
   2   1  -7  339.79    9.84
   2   1  -7  325.70   12.56
   2   1  -7  354.94   19.54
  -2  -1  -7  351.16   11.63
   2   1  -7  410.51   27.12
  -2   1  -8 2490.33  104.09
  -2   1  -8 2546.23  106.55
   2  -1  -8 2508.94  129.48
   2   1   8 2488.20  116.65
   2   1   8 2500.63  105.75
   2  -1  -8 2451.18  106.88
   2   1  -8 2305.88  101.43
   2  -1   8 2460.35  104.95
  -2   1   8 2408.11   94.25
  -2   1   8 2374.87  108.28
  -2  -1  -8 2554.94   98.97
  -2  -1  -8 2436.29   94.59
   2   1  -8 2522.83  111.27
   2  -1   8 2446.86  108.88
  -2   1  -9  467.41   27.78
  -2   1  -9  436.77   19.14
   2  -1  -9  425.27   24.73
   2   1   9  450.93   27.78
   2  -1  -9  424.47   19.41
   2   1   9  426.20   20.07
   2  -1   9  397.68   19.28
  -2   1   9  392.23   16.35
  -2  -1  -9  434.37   15.89
   2   1  -9  412.11   23.40
   2   1  -9  392.50   21.67
  -2  -1  -9  393.83   14.56
  -2   1   9  391.37   24.26
   2  -1   9  410.58   17.81
   2  -1 -10 1247.89   59.76
  -2   1 -10 1238.78   51.98
   2   1  10 1200.23   50.78
   2   1  10 1201.03   61.35
  -2   1 -10 1220.64   58.63
   2  -1 -10 1253.61   47.99
   2  -1  10 1365.27   56.17
  -2   1  10 1373.45   63.34
  -2   1  10 1361.09   46.59
  -2  -1 -10 1381.89   55.97
   2   1 -10 1399.64   76.57
  -2  -1 -10 1482.26   60.35
   2   1 -10 1379.17   74.18
   2  -1  10 1461.79   57.56
  -2   1 -11  545.84   30.51
   2   1  11  515.80   24.59
  -2   1 -11  535.21   33.70
   2  -1 -11  529.76   30.97
   2  -1 -11  545.05   19.14
   2   1  11  503.44   31.04
   2  -1  11  503.30   31.51
  -2   1  11  526.10   44.14
  -2   1  11  509.75   18.21
  -2  -1 -11  525.24   25.86
   2   1 -11  538.27   30.18
   2   1 -11  522.45   28.52
  -2  -1 -11  562.13   27.65
   2  -1  11  548.90   24.53
  -2   1 -12 3263.30  154.54
  -2   1 -12 3198.09  146.96
   2  -1 -12 3272.93  158.40
   2   1  12 3201.28  158.33
   2   1  12 3087.29  139.39
   2  -1  12 3159.67  155.94
   2  -1  12 3281.84  147.96
  -2   1  12 3195.56  156.47
  -2  -1 -12 3200.68  140.12
   2   1 -12 3186.13  154.47
   2   1 -12 2990.11  144.30
  -2  -1 -12 3140.53  136.53
  -2   1  12 2956.74  119.84
   2   1  13  545.31   34.10
  -2   1 -13  602.74   30.18
   2  -1 -13  626.87   38.35
   2   1  13  558.67   27.32
   2  -1 -13  553.22   35.03
  -2   1 -13  573.30   25.59
   2   1 -13  616.50   36.62
   2  -1  13  718.13   43.07
  -2   1  13  609.92   17.88
  -2   1  13  615.84   18.81
   2   1 -13  630.06   35.43
  -2  -1 -13  621.35   25.46
  -2  -1 -13  657.25   27.12
   2  -1  13  624.08   28.58
   2  -1 -14 1198.57   83.88
   2  -1 -14 1199.70   62.08
   2   1  14 1204.35   63.54
   2   1  14 1185.01   51.18
  -2   1 -14 1192.59   49.25
  -2   1 -14 1261.58   57.70
  -2  -1 -14 1171.72   49.25
   2   1 -14 1108.77   57.43
   2   1 -14 1144.20   79.63
   2  -1  14 1135.96   60.15
   2  -1  14 1263.97   68.86
  -2   1 -15  587.65   32.04
   2  -1 -15  597.02   40.88
   2  -1 -15  530.29   36.76
   2   1  15  536.47   27.39
   2   1  15  530.76   34.83
  -2   1 -15  566.18   25.66
   2  -1  15  636.31   38.29
   2  -1  15  688.09   34.03
   2   1 -15  612.98   39.15
   2   1 -15  603.14   37.49
  -2  -1 -15  637.64   37.69
  -2  -1 -15  602.87   27.39
  -2   1 -16 2546.76  122.04
  -2   1 -16 2421.07  112.47
   2  -1 -16 2430.37  127.02
   2   1  16 2423.19  123.57
   2   1  16 2340.84  106.48
   2  -1 -16 2436.75  125.69
   2  -1  16 2486.27  112.33
  -2  -1 -16 2426.58  110.14
  -2  -1 -16 2593.69  130.01
   2   1 -16 2527.48  130.15
   2   1 -16 2336.98  121.04
  -2   1 -17  417.43   34.17
   2  -1 -17  407.39   33.57
   2   1  17  418.95   30.31
   2   1  17  403.73   30.18
   2  -1 -17  437.96   35.96
  -2   1 -17  449.73   27.98
   2  -1  17  348.63   23.73
   2  -1  17  379.07   29.65
  -2  -1 -17  352.88   28.25
  -2  -1 -17  376.75   22.47
   2   1 -17  362.59   32.84
   2   1 -17  375.48   50.32
  -2   1 -18 1051.07   54.37
  -2   1 -18 1013.65   49.72
   2  -1 -18 1126.85   67.40
   2  -1 -18 1048.48   62.15
   2   1  18  996.84   45.80
   2   1  18 1000.62   45.00
   2  -1  18  971.25   41.01
   2  -1  18 1027.08   46.46
  -2  -1 -18  980.88   46.06
   2   1 -18 1083.05   88.60
  -2  -1 -18 1051.07   50.25
   2   1 -18  996.97   60.89
  -2   1 -19  330.95   24.59
   2  -1 -19  336.27   34.90
   2   1  19  299.31   25.72
   2   1  19  300.37   17.08
  -2   1 -19  329.69   33.30
   2  -1 -19  319.98   30.97
   2  -1  19  244.34   13.83
   2  -1  19  249.79   16.62
  -2  -1 -19  253.58   30.38
   2   1 -19  241.35   30.31
   2   1 -19  255.24   31.17
  -2  -1 -19  236.63   17.95
  -2   1 -20 1671.90   83.68
   2  -1 -20 1747.94  127.29
   2  -1 -20 1811.15  105.15
  -2   1 -20 1696.95   89.00
   2   1  20 1577.24   81.42
   2   1  20 1685.65   87.41
  -2  -1 -20 1627.63   91.53
   2  -1  20 1610.41   69.06
   2  -1  20 1711.11   88.47
  -2  -1 -20 1795.00  103.23
   2   1 -20 1707.99  100.17
   2   1 -20 1658.07   98.37
  -2   1 -21  356.07   44.14
   2  -1 -21  368.30   39.75
   2  -1 -21  345.97   59.09
   2   1  21  330.88   19.74
   2   1  21  324.37   18.68
  -2  -1 -21  356.01   26.06
   2   1 -21  331.02   38.09
   2   1 -21  330.82   59.09
   2  -1  21  354.35   20.01
   2  -1  21  319.25   16.09
  -2   1 -22 1032.86   81.09
   2  -1 -22 1070.28   73.78
   2  -1 -22 1043.96   71.39
  -2  -1 -22 1041.50   72.92
   2   1 -22  993.58   71.85
   2   1 -22  990.52  102.63
  -2   1 -23  243.54   26.99
   2   1 -23  229.12   35.83
   2   1 -23  245.00   37.09
  -2  -1 -23  246.47   37.09
   2  -1 -24 1227.02   88.87
  -2   1 -24 1148.39   71.52
   2   1 -24 1180.49   87.47
   2   1 -24 1072.81  100.10
  -2  -1 -24 1252.68   70.66
  -2   1 -25  241.95   46.53
   2  -1 -25  253.31   43.01
  -2  -1 -25  246.60   40.55
   2   1 -25  254.38   68.80
   2  -2   0 4586.69  233.64
   2  -2   0 4234.61  208.51
  -2   2   0 4544.15  216.69
  -2   2   0 4497.56  222.67
   2   2   0 4525.61  196.75
   2   2   0 4738.58  219.81
  -2  -2   0 3812.00  171.56
  -2  -2   0 4635.08  213.17
   2  -2  -1 3838.32  216.02
   2   2   1 3716.68  158.06
  -2   2  -1 4070.56  213.50
  -2   2  -1 4227.43  199.07
   2  -2  -1 3953.11  187.51
  -2  -2   1 4536.18  202.07
  -2  -2   1 4509.52  215.29
   2   2   1 4171.33  206.45
   2  -2   1 4156.04  198.14
  -2   2   1 4375.26  207.78
   2  -2   1 4497.76  226.93
  -2   2   1 4604.91  223.60
  -2  -2  -1 4428.17  203.13
   2   2  -1 4294.50  182.99
   2   2  -1 4471.37  217.49
  -2  -2  -1 3934.23  164.51
  -2   2  -2 1432.47   75.71
  -2   2  -2 1418.18   74.98
   2  -2  -2 1263.58   55.63
  -2  -2   2 1406.09   63.15
   2   2   2 1376.37   57.43
   2   2   2 1403.76   47.26
  -2  -2   2 1376.11   50.58
   2  -2  -2 1353.24   67.13
  -2   2   2 1212.39   68.80
   2  -2   2 1213.13   54.64
   2  -2   2 1292.69   55.50
  -2   2   2 1236.59   61.42
   2   2  -2 1331.97   52.91
  -2  -2  -2 1444.17   46.66
  -2  -2  -2 1338.95   68.06
   2   2  -2 1222.03   50.65
  -2   2  -3 3711.63  167.70
  -2   2  -3 3862.51  174.22
   2  -2  -3 3637.58  178.14
   2  -2  -3 3634.26  181.59
  -2  -2   3 3756.30  169.23
   2   2   3 3797.44  170.09
  -2  -2   3 3920.94  167.90
   2   2   3 3171.50  128.75
   2  -2   3 3476.59  155.67
   2  -2   3 3498.93  173.95
  -2   2   3 3212.45  156.60
   2   2  -3 3362.53  150.62
  -2  -2  -3 3237.64  127.29
   2   2  -3 3491.02  165.31
  -2  -2  -3 3570.38  161.12
  -2   2   3 3513.22  164.31
  -2   2  -4 3554.56  173.22
  -2   2  -4 3630.21  163.45
   2  -2  -4 3500.06  163.18
   2  -2  -4 3521.06  170.49
   2   2   4 3645.03  178.67
  -2  -2   4 3684.84  156.00
  -2  -2   4 3303.71  145.37
   2   2   4 3139.46  121.44
  -2   2   4 3298.06  169.16
   2  -2   4 3431.46  156.53
  -2   2   4 3248.74  156.60
  -2  -2  -4 3640.04  142.38
  -2  -2  -4 3515.55  158.79
   2   2  -4 3323.05  143.24
   2   2  -4 3591.72  167.37
   2  -2   4 3396.63  150.29
  -2   2  -5 4299.61  199.94
  -2   2  -5 4211.81  196.28
   2  -2  -5 4210.35  207.78
   2  -2  -5 4113.10  200.20
   2   2   5 4467.32  222.54
  -2  -2   5 4417.00  199.34
  -2  -2   5 3798.31  176.01
   2   2   5 4135.24  193.36
   2  -2   5 4221.78  192.29
  -2   2   5 4017.32  193.49
   2  -2   5 4595.27  228.32
  -2   2   5 4437.87  215.56
   2   2  -5 4411.68  209.91
  -2  -2  -5 3963.48  165.44
  -2  -2  -5 4198.05  179.40
   2   2  -5 4185.15  198.54
  -2   2  -6 1296.94   53.77
  -2   2  -6 1352.31   55.90
   2  -2  -6 1346.99   71.39
   2  -2  -6 1254.93   59.96
   2   2   6 1326.26   67.20
   2   2   6 1288.57   54.64
  -2  -2   6 1366.74   51.58
  -2  -2   6 1333.50   54.64
  -2   2   6 1138.95   60.22
   2  -2   6 1220.44   52.98
  -2   2   6 1208.81   72.58
   2   2  -6 1220.90   54.57
  -2  -2  -6 1219.17   41.88
  -2  -2  -6 1249.55   43.67
   2   2  -6 1232.27   58.83
   2  -2   6 1269.09   60.22
  -2   2  -7 2863.48  134.33
  -2   2  -7 2840.09  123.43
   2  -2  -7 2874.05  129.81
   2  -2  -7 2688.21  126.03
   2   2   7 2712.73  119.91
   2   2   7 2880.10  139.32
  -2  -2   7 2760.79  121.44
  -2  -2   7 2997.15  115.39
   2  -2   7 2795.62  119.91
   2  -2   7 2756.47  121.51
  -2   2   7 2738.19  128.35
   2   2  -7 2611.30  113.06
   2   2  -7 2514.12  113.33
  -2  -2  -7 2308.87   93.72
  -2  -2  -7 2700.37  110.80
  -2   2   7 2463.34  111.27
  -2   2  -8 2600.40  115.79
   2  -2  -8 2454.30  117.78
   2  -2  -8 2554.54  115.86
   2   2   8 2593.89  115.99
  -2  -2   8 2752.88  104.36
   2   2   8 2482.22  112.00
  -2   2  -8 2644.20  126.29
  -2   2   8 2503.69  112.13
   2  -2   8 2848.99  122.37
   2  -2   8 2791.37  122.83
  -2   2   8 2770.16  130.01
  -2  -2  -8 2711.67  112.20
  -2  -2  -8 2902.37  116.99
   2   2  -8 2671.66  116.72
   2   2  -8 2587.11  110.21
  -2   2  -9 2876.45  137.99
  -2   2  -9 2849.66  141.31
   2  -2  -9 2867.94  139.19
   2  -2  -9 2779.73  133.34
   2   2   9 2862.29  129.75
   2   2   9 2905.29  130.94
   2  -2   9 2964.25  133.60
   2  -2   9 2911.87  139.92
  -2   2   9 2628.38  118.91
  -2  -2  -9 2951.22  124.30
   2   2  -9 2629.38  119.71
   2   2  -9 2855.77  114.46
  -2  -2  -9 2834.97  121.31
   2   2  -9 3055.18  117.12
   2   2  -9 2938.33  134.13
  -2   2   9 2924.10  140.85
   2  -2 -10  902.32   43.80
   2  -2 -10  901.25   45.33
   2   2  10  941.53   41.88
   2   2  10  932.96   40.61
  -2   2 -10  964.66   41.81
  -2   2 -10  926.51   38.42
   2  -2  10  818.17   37.55
   2  -2  10  898.99   48.66
  -2   2  10  791.91   34.17
  -2   2  10  797.16   60.02
  -2  -2 -10  826.68   35.36
   2   2 -10  838.37   40.75
   2   2 -10  785.00   22.60
   2   2 -10  832.59   24.39
  -2  -2 -10  869.68   31.24
   2   2 -10  810.26   38.62
  -2   2 -11 1430.81   76.97
   2  -2 -11 1430.88   64.08
  -2   2 -11 1427.29   59.62
   2  -2 -11 1294.82   81.29
   2   2  11 1386.48   61.88
   2   2  11 1320.87   68.99
   2  -2  11 1316.29   58.96
  -2   2  11 1301.33   54.44
  -2  -2 -11 1287.17   49.92
  -2  -2 -11 1316.88   55.57
   2   2 -11 1364.34   80.96
   2   2 -11 1287.70   60.69
   2  -2  11 1398.64   71.72
  -2   2  11 1349.72   86.34
  -2   2 -12 1028.41   44.27
   2  -2 -12 1076.73   48.59
  -2   2 -12 1110.83   52.44
   2  -2 -12 1005.94   53.91
   2   2  12 1125.45   63.48
   2   2  12 1048.81   48.72
  -2   2  12 1102.59   58.63
   2  -2  12 1155.43   50.92
   2  -2  12 1232.60   66.14
  -2   2  12 1105.45   45.20
   2   2 -12 1093.88   68.33
  -2  -2 -12 1097.47   42.27
  -2  -2 -12 1061.58   41.81
   2   2 -12 1103.52   55.17
  -2   2 -13 1189.80   50.78
  -2   2 -13 1266.37   60.42
   2  -2 -13 1245.50   52.84
   2  -2 -13 1154.03   61.48
   2   2  13 1228.41   55.77
   2   2  13 1181.29   55.57
   2  -2  13 1206.81   65.94
   2  -2  13 1356.17   73.45
  -2   2  13 1293.82   59.16
   2   2 -13 1188.33   76.90
  -2  -2 -13 1232.87   56.57
  -2  -2 -13 1211.20   55.77
   2   2 -13 1223.96   62.21
  -2   2  13 1212.33   64.94
  -2   2 -14  640.16   27.65
  -2   2 -14  663.29   48.85
   2  -2 -14  638.90   27.12
   2  -2 -14  601.28   38.02
   2   2  14  643.42   41.41
   2   2  14  624.61   31.31
  -2   2  14  568.18   28.71
  -2   2  14  540.53   38.02
   2  -2  14  612.38   32.77
  -2  -2 -14  553.62   31.57
  -2  -2 -14  562.26   24.59
   2   2 -14  568.71   37.49
   2   2 -14  552.89   35.10
   2  -2  14  579.34   29.71
  -2   2 -15  334.61   34.23
  -2   2 -15  326.50   16.48
   2  -2 -15  324.63   26.92
   2   2  15  316.19   29.05
   2   2  15  321.91   19.21
   2  -2  15  292.86   21.47
   2  -2  15  264.21   18.28
   2   2 -15  265.34   26.45
  -2  -2 -15  264.28   22.13
   2   2 -15  258.50   24.99
  -2   2  15  268.53   16.28
  -2  -2 -15  253.58   21.00
  -2   2 -16  273.72   14.96
  -2   2 -16  273.52   34.63
   2  -2 -16  302.57   30.78
   2  -2 -16  281.96   26.79
   2   2  16  258.43   18.21
   2   2  16  261.36   17.75
  -2   2  16  281.30   12.50
   2  -2  16  274.85   26.72
  -2   2  16  223.07   11.96
   2   2 -16  283.16   43.60
  -2  -2 -16  259.03   21.93
  -2  -2 -16  282.23   16.22
   2   2 -16  272.86   26.26
   2  -2  16  296.52   22.40
  -2   2 -17  362.72   17.95
  -2   2 -17  351.55   39.75
   2  -2 -17  392.77   36.03
   2  -2 -17  372.09   31.57
   2   2  17  346.37   21.00
   2   2  17  356.81   31.91
   2  -2  17  393.50   40.75
  -2   2  17  338.66   10.90
   2   2 -17  357.47   49.98
  -2  -2 -17  370.50   20.41
  -2  -2 -17  349.89   26.59
   2   2 -17  360.93   32.30
   2  -2  17  376.41   21.80
  -2   2  17  323.64   13.69
  -2   2 -18  156.00   10.83
   2  -2 -18  196.68   27.32
   2  -2 -18  162.78   23.26
   2   2  18  146.90   13.49
   2   2  18  157.00   22.87
  -2   2 -18  160.06   31.31
   2  -2  18  166.11   21.54
   2  -2  18  173.28   19.14
   2   2 -18  152.41   24.33
  -2  -2 -18  143.97   12.50
  -2  -2 -18  157.13   21.40
   2   2 -18  151.22   24.06
   2  -2 -19   64.08   20.87
   2  -2 -19   45.07   17.81
   2   2  19   46.66   10.04
   2   2  19   42.94    9.64
  -2   2 -19   45.00   12.70
  -2   2 -19   46.46   25.06
   2  -2  19   84.48   10.70
  -2  -2 -19   80.49    9.57
  -2  -2 -19   84.75   10.70
   2   2 -19   69.73   19.48
   2   2 -19   95.91   33.10
  -2   2 -20   29.45   28.38
   2  -2 -20   61.95   38.88
   2  -2 -20   50.52   19.28
   2   2  20   51.45   10.37
   2   2  20   45.33   16.22
  -2   2 -20  105.35   21.60
   2  -2  20   84.48   11.70
   2  -2  20   88.87   17.35
   2   2 -20   73.51   21.67
   2   2 -20   87.34   21.00
  -2  -2 -20   94.32   19.34
  -2  -2 -20   86.61   16.55
   2  -2 -21   63.41   19.74
   2   2  21   54.70   16.95
   2  -2 -21   65.60   23.33
  -2   2 -21   64.08   29.11
   2   2 -21   51.58   36.82
  -2  -2 -21   70.06   12.10
   2   2 -21   60.09   21.80
  -2   2 -22   -0.07    6.38
   2  -2 -22  -20.87   10.30
   2  -2 -22   19.28   21.67
   2   2  22   12.30    8.24
   2   2  22    1.53    4.72
  -2   2 -22   17.61    9.17
  -2  -2 -22    0.73    2.66
  -2  -2 -22    8.04    6.45
   2   2 -22    5.45   12.03
  -2   2 -23   19.41   10.17
  -2   2 -23    0.80    4.12
   2  -2 -23   -0.33    7.91
   2  -2 -23   16.95   14.09
   2   2 -23   15.35   13.29
  -2  -2 -23   18.08   12.70
   2   2 -23   17.41   13.36
  -2  -2 -23    0.93    2.99
  -2   2 -24   42.87   19.21
   2  -2 -24   52.78   44.67
  -2  -2 -24   74.45   14.56
   2   2 -24   59.56   45.27
   2   2 -24   70.72   24.59
   2  -3   0  165.31   27.58
   2  -3   0  159.99   16.28
  -2   3   0  158.20   26.52
   2   3   0  152.48   23.26
  -2  -3   0  166.77   10.90
   2   3   0  182.66   11.37
  -2  -3   0  156.47   13.16
  -2   3   0  162.58   16.82
  -2   3  -1   47.66   19.08
   2  -3  -1   34.56   18.88
  -2  -3   1   33.57    8.04
  -2  -3   1   40.48    7.31
   2   3   1   37.36    9.57
   2   3   1   40.15    3.92
   2  -3  -1   41.41   10.77
  -2   3  -1   37.69    9.90
  -2   3   1   49.79   11.03
   2  -3   1   60.42   17.55
   2  -3   1   51.85   11.17
  -2   3   1   46.00   11.70
   2   3  -1   55.17    4.39
  -2  -3  -1   50.52    8.77
  -2  -3  -1   51.51    3.86
   2   3  -1   54.04    9.84
  -2   3  -2   27.72    8.97
  -2   3  -2   23.40    9.77
   2  -3  -2   30.38   11.37
   2  -3  -2   48.06   10.24
   2   3   2   23.46    6.12
  -2  -3   2   29.45    7.31
  -2  -3   2   20.27    6.98
   2   3   2   25.79   14.82
   2  -3   2   68.80    9.77
  -2   3   2   41.21   10.24
  -2   3   2   31.37   10.70
   2  -3   2   29.25    8.31
  -2  -3  -2   38.02    8.18
   2   3  -2   29.25    8.77
   2   3  -2   27.52    7.05
  -2  -3  -2   31.77    2.99
  -2   3  -3  537.40   38.62
  -2   3  -3  600.02   31.11
   2  -3  -3  532.95   33.90
   2   3   3  499.32   23.73
   2   3   3  534.61   28.65
  -2  -3   3  525.30   20.80
  -2  -3   3  497.12   31.51
   2  -3  -3  522.78   31.04
  -2   3   3  537.87   31.64
   2  -3   3  488.88   27.92
   2  -3   3  548.04   37.89
  -2   3   3  510.28   30.64
  -2  -3  -3  509.02   37.62
   2   3  -3  533.68   27.92
  -2  -3  -3  577.55   18.08
   2   3  -3  534.68   20.94
  -2   3  -4  284.69   18.88
  -2   3  -4  275.18   29.71
   2  -3  -4  272.92   24.26
   2  -3  -4  288.34   22.73
  -2  -3   4  255.64   21.80
   2   3   4  283.82   20.01
  -2  -3   4  276.64   13.96
   2   3   4  251.72   13.76
   2  -3   4  330.75   18.08
   2  -3   4  302.17   30.44
  -2   3   4  302.17   21.40
  -2   3   4  331.15   23.26
  -2  -3  -4  391.97   14.49
   2   3  -4  337.86   14.89
   2   3  -4  315.06   19.54
  -2  -3  -4  302.43   19.48
  -2   3  -5  302.43   30.71
  -2   3  -5  312.14   19.61
   2  -3  -5  315.73   23.26
   2   3   5  307.55   20.61
  -2  -3   5  269.47   14.36
  -2  -3   5  304.16   15.89
   2   3   5  293.66   14.29
   2  -3  -5  314.93   26.65
  -2   3   5  358.80   33.90
  -2   3   5  340.79   24.46
   2  -3   5  372.49   19.48
   2  -3   5  355.88   21.87
  -2  -3  -5  397.22   15.55
   2   3  -5  370.30   23.46
   2   3  -5  349.63   20.41
  -2  -3  -5  354.48   32.17
   2  -3  -6  102.63   15.95
  -2   3  -6  100.70   11.37
  -2   3  -6   98.37   11.23
   2  -3  -6  104.36   13.89
  -2  -3   6  103.63    9.57
  -2  -3   6   93.32    7.44
   2   3   6   96.38   20.74
   2   3   6   97.58    7.64
  -2   3   6   97.78   12.76
   2  -3   6  103.49   17.28
  -2   3   6   77.90   24.46
  -2  -3  -6   98.17    8.18
   2   3  -6   96.18    9.11
   2   3  -6   94.52   18.21
  -2  -3  -6   94.12   12.10
   2  -3   6  103.03   12.43
  -2   3  -7 1728.79   76.24
   2  -3  -7 1806.56   84.42
  -2   3  -7 1782.30   77.84
   2  -3  -7 1785.69   86.61
  -2  -3   7 1685.85   73.58
   2   3   7 1855.55   98.11
  -2  -3   7 1719.95   73.18
   2   3   7 1776.25   64.54
   2  -3   7 1587.08   89.80
  -2   3   7 1605.96   76.64
  -2  -3  -7 1609.61   90.66
   2   3  -7 1510.31   71.06
   2   3  -7 1636.33   81.29
  -2  -3  -7 1687.91   65.21
  -2   3   7 1436.06   73.25
   2  -3   7 1601.44   70.66
  -2   3  -8  343.51   32.77
  -2   3  -8  327.69   19.48
   2  -3  -8  354.48   34.03
  -2  -3   8  310.34   17.68
  -2  -3   8  344.51   28.38
   2   3   8  340.92   32.77
   2   3   8  321.71   11.96
  -2   3   8  324.63   24.66
   2  -3   8  361.46   33.43
   2  -3   8  358.60   20.27
  -2   3   8  338.66   31.51
  -2  -3  -8  332.94   22.00
  -2  -3  -8  366.44   14.96
   2   3  -8  309.75   24.06
   2   3  -8  347.37   19.54
  -2   3  -9 1113.95   49.79
   2  -3  -9 1146.66   68.66
  -2   3  -9 1193.78   55.30
   2   3   9 1160.75   55.17
   2   3   9 1057.99   52.24
  -2  -3   9 1154.37   53.04
  -2  -3   9 1137.22   41.88
   2  -3  -9 1118.47   58.69
  -2   3   9 1198.17   62.02
   2  -3   9 1220.04   54.31
  -2   3   9 1273.61   70.66
   2  -3   9 1224.29   70.66
  -2  -3  -9 1167.66   52.24
   2   3  -9 1177.43   46.93
   2   3  -9 1184.94   52.91
   2  -3 -10   74.11   10.24
   2  -3 -10   67.60   22.13
  -2   3 -10   73.91    9.04
  -2   3 -10   86.74   19.14
   2   3  10   74.98   11.50
  -2  -3  10   74.64    6.71
   2   3  10   77.64   10.83
  -2  -3  10   74.78   18.41
  -2   3  10   45.20   16.09
   2  -3  10   43.01    9.64
   2  -3  10   33.77   10.50
  -2   3  10   40.41   13.69
  -2  -3 -10   39.28    8.18
  -2  -3 -10   37.42    9.31
   2   3 -10   40.08    7.91
   2   3 -10   38.82   10.17
   2   3  11 2013.01   95.52
  -2   3 -11 2066.06  103.16
  -2   3 -11 2064.59   97.38
  -2  -3  11 2119.17   82.29
   2   3  11 2072.37   97.51
  -2  -3  11 2124.02   99.64
   2  -3 -11 1962.83   99.30
   2  -3 -11 2107.33  109.08
   2   3 -11 1904.14   89.93
   2  -3  11 1969.14   90.66
  -2   3  11 1916.57   99.57
  -2  -3 -11 1923.21   84.68
  -2  -3 -11 1925.61   87.81
   2   3 -11 1946.81   77.90
   2  -3  11 1899.95  106.75
  -2   3  11 2177.72  111.93
   2  -3 -12  246.33   24.26
  -2   3 -12  297.18   22.73
   2  -3 -12  241.55   24.46
   2   3  12  248.73   19.74
  -2  -3  12  258.30    9.84
   2   3  12  262.29   20.41
  -2  -3  12  281.10   22.80
  -2   3 -12  267.27   24.86
  -2   3  12  277.11   42.54
   2  -3  12  284.55   30.38
   2  -3  12  279.64   19.67
  -2   3  12  306.42   26.79
   2   3 -12  275.38   10.17
   2   3 -12  271.13   21.67
  -2  -3 -12  303.83   19.01
  -2  -3 -12  265.48   19.34
  -2   3 -13 1923.68  113.60
   2  -3 -13 1809.15  118.18
   2   3  13 1921.69  109.14
   2   3  13 1951.80   96.71
   2  -3 -13 1993.74   90.33
  -2   3 -13 2013.21  101.63
   2  -3  13 2104.21   98.97
   2  -3  13 2205.18  120.44
  -2   3  13 2355.93  115.46
  -2  -3 -13 2233.43   92.66
   2   3 -13 2117.97  103.89
  -2  -3 -13 2063.46   88.14
   2   3 -13 2092.71  104.62
   2   3 -13 2054.49   70.79
   2   3 -13 2037.94   70.59
  -2   3  13 2218.93  139.72
   2  -3 -14   -0.20   10.64
   2  -3 -14    2.79    8.44
  -2   3 -14    1.93    9.90
  -2   3 -14    0.20    9.24
   2   3  14    0.47   14.09
   2   3  14    6.38   13.36
   2  -3  14   14.42    9.04
  -2   3  14   10.77   12.10
  -2   3  14   14.82    5.78
  -2  -3 -14   14.62    8.18
  -2  -3 -14   17.55    4.72
   2   3 -14   13.43   10.50
   2   3 -14   16.68   10.17
   2  -3  14   14.89    7.58
  -2   3 -15 1959.91   97.24
  -2   3 -15 1859.01   94.59
   2  -3 -15 1972.53   84.88
   2   3  15 1885.53   92.46
   2   3  15 1970.67   98.11
   2  -3 -15 1911.25  102.30
   2  -3  15 2028.10  120.31
   2  -3  15 1879.15   92.79
  -2   3  15 2136.11  103.29
  -2  -3 -15 1820.25   89.33
   2   3 -15 1879.28   98.04
   2   3 -15 1877.15  126.49
  -2  -3 -15 1962.70   94.19
  -2   3  15 1925.74  106.88
   2  -3 -16  150.22   24.19
  -2   3 -16  179.93   21.47
  -2   3 -16  161.19   19.14
   2  -3 -16  163.91   15.82
   2   3  16  148.36   26.32
   2   3  16  171.82   17.41
  -2   3  16  206.25   43.14
   2  -3  16  232.24   34.90
   2  -3  16  177.07   26.06
  -2   3  16  202.66   18.68
  -2  -3 -16  173.48   12.23
   2   3 -16  165.71   24.53
   2   3 -16  181.66   23.53
  -2  -3 -16  184.92   12.50
  -2   3 -17 1855.02   99.37
  -2   3 -17 1849.70   92.92
   2   3  17 1900.08  113.13
   2   3  17 1889.25   96.38
   2  -3 -17 1909.12  107.02
   2  -3  17 2126.01  108.08
   2  -3  17 2039.14  114.33
  -2  -3 -17 2020.72  102.10
   2   3 -17 1961.57  107.35
   2   3 -17 1908.99  136.86
  -2  -3 -17 1933.38   87.87
  -2   3  17 2300.49  106.22
  -2   3  17 2141.96  119.71
  -2   3 -18   75.58   15.69
   2  -3 -18   76.04   17.41
  -2   3 -18   65.67   11.70
   2   3  18   63.94   11.23
   2   3  18   69.06   11.37
   2  -3 -18   98.64   21.07
  -2   3  18   38.22    5.72
   2  -3  18   48.59   15.02
   2  -3  18   33.77   10.10
  -2   3  18   34.03    4.85
  -2  -3 -18   36.16    8.38
   2   3 -18   40.35   30.04
   2   3 -18   41.48   18.08
  -2  -3 -18   34.23    7.91
  -2   3 -19 1725.07   81.69
  -2   3 -19 1627.56   90.13
   2  -3 -19 1602.97   94.12
   2   3  19 1617.12   80.96
   2   3  19 1664.05   98.51
   2  -3 -19 1926.47  144.90
   2  -3  19 1666.91  115.06
   2  -3  19 1540.15   91.00
  -2  -3 -19 1440.78   68.60
   2   3 -19 1507.65  124.90
   2   3 -19 1489.11   93.65
  -2  -3 -19 1659.60   90.73
  -2   3 -20  170.89   25.59
   2  -3 -20  170.23   27.58
   2  -3 -20  207.25   33.37
   2   3  20  166.04   17.35
   2  -3  20  205.26   25.99
   2  -3  20  172.55   17.68
  -2  -3 -20  176.01   16.22
   2   3 -20  167.70   51.31
   2   3 -20  156.07   29.98
  -2   3 -21 1524.67   90.66
   2  -3 -21 1753.12  110.07
   2   3  21 1534.30   92.72
   2   3 -21 1492.56   99.37
  -2  -3 -21 1625.77   93.65
   2   3 -21 1478.94   98.04
   2  -3 -22   -1.60    6.51
   2  -3 -22   39.55   27.39
  -2   3 -22   35.43   12.23
  -2   3 -22    0.86    7.71
   2   3  22   26.65   11.77
   2   3  22   -0.20    3.86
  -2  -3 -22    1.40    5.32
  -2  -3 -22   25.46    7.31
   2   3 -22   27.72   15.22
   2   3 -22   23.13   26.26
  -2   3 -23  916.08   65.01
   2  -3 -23 1121.40   82.22
  -2  -3 -23  950.77   65.94
   2   3 -23  841.23   72.98
   2   3 -23  871.41  108.41
  -2   3 -24   86.87   17.02
   2  -3 -24    1.60   13.89
   2  -3 -24   90.73   37.09
  -2   3 -24   -1.60   10.90
   2  -4   0  177.87   21.34
   2  -4   0  275.85   33.37
  -2   4   0  156.34   18.28
  -2   4   0  152.01   20.21
   2   4   0  137.13   17.75
   2   4   0  135.33    8.71
  -2  -4   0  105.62   15.02
  -2  -4   0  149.02   14.02
   2  -4  -1 5279.30  309.68
   2  -4  -1 4839.54  256.04
  -2   4  -1 5203.53  267.94
  -2   4  -1 4996.54  266.27
   2   4   1 5238.49  246.40
   2   4   1 5283.36  300.11
  -2  -4   1 4573.60  236.90
  -2  -4   1 4852.04  231.31
   2  -4   1 5235.43  277.71
  -2   4   1 5354.68  306.56
  -2   4   1 5196.55  277.71
   2  -4   1 4621.26  263.62
  -2  -4  -1 4983.45  277.57
  -2  -4  -1 5276.38  257.83
   2   4  -1 5260.62  248.46
   2   4  -1 5321.77  300.17
   2  -4  -2 1006.41   55.44
   2  -4  -2  982.68   52.24
  -2   4  -2  925.65   51.25
   2   4   2  961.21   42.74
   2   4   2  978.96   51.78
  -2  -4   2  846.15   54.97
  -2  -4   2  924.72   44.53
  -2   4  -2 1017.31   50.38
  -2   4   2  749.11   46.00
   2  -4   2  762.53   42.27
  -2   4   2  772.10   48.59
   2  -4   2  762.33   48.32
  -2  -4  -2  726.77   41.68
  -2  -4  -2  813.91   31.24
   2   4  -2  782.14   45.80
   2   4  -2  826.21   42.21
  -2   4  -3 3880.26  223.73
   2  -4  -3 4268.64  222.87
  -2   4  -3 4127.13  204.72
   2  -4  -3 4123.01  212.17
   2   4   3 4204.36  213.30
   2   4   3 4171.53  190.03
  -2  -4   3 3988.54  194.89
  -2  -4   3 3717.48  185.52
  -2   4   3 4126.26  241.75
  -2   4   3 4302.07  216.62
   2  -4   3 3626.55  214.23
   2  -4   3 3795.78  187.84
  -2  -4  -3 3720.20  189.57
  -2  -4  -3 4036.13  185.38
   2   4  -3 3784.28  184.78
   2   4  -3 3906.85  202.07
   2  -4  -4  203.59   36.89
  -2   4  -4  196.68   20.94
   2  -4  -4  195.49   23.00
  -2   4  -4  201.07   18.48
   2   4   4  223.80   33.43
   2   4   4  196.08   16.28
  -2  -4   4  189.04   15.42
  -2  -4   4  196.81   12.36
   2  -4   4  139.58   21.07
  -2   4   4  166.64   20.94
   2  -4   4  150.69   16.35
  -2   4   4  163.85   21.67
  -2  -4  -4  167.04   30.04
  -2  -4  -4  176.41    8.57
   2   4  -4  161.98   18.41
   2   4  -4  148.03   18.94
  -2   4  -5 4912.39  250.46
  -2   4  -5 4786.23  252.38
   2  -4  -5 5202.93  275.65
   2   4   5 4735.92  223.80
   2   4   5 4938.65  259.76
  -2  -4   5 4368.14  222.60
  -2  -4   5 4539.04  222.67
   2  -4  -5 5291.00  281.16
   2  -4   5 4787.50  242.01
   2  -4   5 4898.50  261.36
  -2   4   5 5466.74  281.63
  -2   4   5 5250.39  276.51
  -2  -4  -5 4863.94  254.18
  -2  -4  -5 5157.80  246.60
   2   4  -5 4892.92  250.65
   2   4  -5 4725.35  277.57
   2  -4  -6  501.31   57.56
  -2   4  -6  489.21   30.91
  -2   4  -6  469.20   44.33
   2  -4  -6  510.68   35.16
   2   4   6  477.58   32.70
   2   4   6  423.27   23.40
  -2  -4   6  422.08   23.80
  -2  -4   6  455.91   23.80
  -2   4   6  566.38   50.18
   2  -4   6  512.81   49.98
  -2   4   6  534.54   35.10
   2  -4   6  502.51   42.07
  -2  -4  -6  497.39   46.93
  -2  -4  -6  462.29   22.73
   2   4  -6  501.24   24.46
   2   4  -6  481.70   31.11
  -2   4  -7 2990.17  163.11
   2  -4  -7 3082.43  155.94
   2  -4  -7 3026.07  178.07
  -2   4  -7 2969.57  162.32
   2   4   7 3093.53  152.81
   2   4   7 2711.14  115.52
  -2  -4   7 2819.02  143.44
  -2  -4   7 2623.40  122.50
   2  -4   7 2743.91  141.98
   2  -4   7 2700.04  147.30
  -2   4   7 2878.91  169.10
  -2   4   7 3097.32  154.34
  -2  -4  -7 2663.41  134.40
  -2  -4  -7 2969.10  126.36
   2   4  -7 2628.92  132.87
   2   4  -7 2732.74  139.72
  -2   4  -8  106.88   14.49
   2  -4  -8  107.02   16.75
   2  -4  -8  111.27   19.87
  -2   4  -8   98.37   15.02
   2   4   8  110.41   17.28
   2   4   8  110.21    7.58
  -2  -4   8   93.85    9.97
  -2  -4   8  106.22   12.96
  -2   4   8  134.20   33.04
  -2   4   8  150.95   16.68
   2  -4   8  145.37   17.95
   2  -4   8  120.51   25.59
  -2  -4  -8  137.19   27.98
  -2  -4  -8  146.30   13.16
   2   4  -8  132.74   12.96
   2   4  -8  137.79   13.96
   2  -4  -9 3036.37  154.87
  -2   4  -9 2683.82  153.28
   2  -4  -9 2854.51  177.14
  -2   4  -9 2824.87  136.86
   2   4   9 2735.60  125.03
   2   4   9 2968.90  149.89
  -2  -4   9 2746.70  124.83
  -2  -4   9 3278.25  168.83
  -2   4   9 3217.43  160.86
   2  -4   9 2865.94  158.13
   2  -4   9 3070.74  156.60
  -2   4   9 2752.61  169.36
  -2  -4  -9 3094.00  135.20
  -2  -4  -9 2874.85  145.90
   2   4  -9 2884.69  153.08
   2   4  -9 2784.45  145.83
  -2   4 -10  133.80   14.89
  -2   4 -10  128.75   17.81
   2  -4 -10  161.52   18.35
   2  -4 -10  132.34   22.00
   2   4  10  139.58   18.41
   2   4  10  126.36   13.29
  -2  -4  10  157.20   14.76
  -2  -4  10  130.48   15.62
  -2   4  10  170.96   17.81
   2  -4  10  158.86   29.11
  -2   4  10  134.40   35.49
   2  -4  10  163.51   19.14
  -2  -4 -10  152.81   30.78
  -2  -4 -10  173.28   15.82
   2   4 -10  154.01   26.06
   2   4 -10  155.80   17.61
  -2   4 -11 1070.68   74.84
   2  -4 -11 1282.05   64.08
   2  -4 -11 1129.38   86.08
  -2   4 -11 1112.96   67.20
   2   4  11 1180.16   63.34
   2   4  11 1078.53   49.25
  -2  -4  11 1093.95   44.00
  -2  -4  11 1173.64   75.97
  -2   4  11 1286.11   63.54
   2  -4  11 1160.95   62.15
  -2   4  11 1129.04   88.60
   2  -4  11 1121.60   56.83
  -2  -4 -11 1236.92   59.22
  -2  -4 -11 1179.89   63.61
   2   4 -11 1139.41   56.90
   2   4 -11 1152.04   46.79
   2  -4 -12   72.25   12.03
  -2   4 -12   54.44   16.62
   2  -4 -12  100.17   17.48
   2   4  12   67.86   13.83
   2   4  12   62.08   14.09
  -2  -4  12   57.43    8.38
  -2  -4  12   55.70   13.36
  -2   4 -12   67.86   14.49
   2  -4  12   44.14   13.29
   2  -4  12   45.73   12.70
  -2   4  12   48.59   16.48
  -2   4  12   48.85   11.57
  -2  -4 -12   52.44    7.71
  -2  -4 -12   46.40    6.71
   2   4 -12   47.13    8.71
   2   4 -12   47.66   12.89
  -2   4 -13 1745.14   95.85
   2  -4 -13 1852.89  102.03
  -2   4 -13 1772.73   92.06
   2  -4 -13 1883.33  106.82
   2   4  13 1751.13  111.27
   2   4  13 1798.72  116.25
  -2  -4  13 1762.76   74.18
  -2  -4  13 1755.71  115.72
   2  -4  13 1766.35   92.99
  -2   4  13 2023.12   96.98
  -2   4  13 1815.73  102.30
   2  -4  13 1710.25   87.21
  -2  -4 -13 1961.04   82.49
  -2  -4 -13 2033.49   89.67
   2   4 -13 1766.61   91.13
   2   4 -13 1739.03   72.19
  -2   4 -14  156.53   33.50
   2  -4 -14  147.89   23.80
  -2   4 -14  150.55   20.80
   2   4  14  143.91   18.54
   2   4  14  141.58   29.91
  -2  -4  14  154.21   20.41
  -2  -4  14  145.10    8.44
   2  -4  14  106.88   17.48
  -2   4  14  108.88   22.80
  -2   4  14  126.96   23.20
   2  -4  14  104.69   27.92
  -2  -4 -14  123.83   15.69
  -2  -4 -14  108.01   18.15
   2   4 -14  110.21   19.34
   2   4 -14  109.14    7.11
  -2   4 -15  411.84   50.38
   2  -4 -15  421.48   34.90
  -2   4 -15  415.70   32.97
   2   4  15  433.31   47.53
   2   4  15  428.06   31.44
  -2  -4  15  421.95   14.49
  -2  -4  15  306.36   32.70
   2  -4 -15  402.00   55.04
  -2   4  15  531.02   39.15
  -2   4  15  422.41   38.75
   2  -4  15  437.63   45.73
   2  -4  15  441.89   49.39
  -2  -4 -15  460.90   24.26
  -2  -4 -15  408.12   28.58
   2   4 -15  410.05   34.23
  -2   4 -16   34.36   13.36
  -2   4 -16   35.76   14.82
   2  -4 -16   32.97    8.44
   2  -4 -16   30.24   15.95
   2   4  16   33.97   12.83
   2   4  16   31.84   12.23
  -2   4  16   30.97   30.38
  -2   4  16   39.28    9.24
   2  -4  16   27.19   23.86
   2  -4  16   46.33   12.03
  -2  -4 -16   34.03   14.02
  -2  -4 -16   33.63   12.10
   2   4 -16   29.91   15.89
   2   4 -16   28.78   15.55
  -2   4 -17  548.17   37.16
  -2   4 -17  551.23   42.61
   2  -4 -17  570.90   29.38
   2  -4 -17  554.82   45.33
   2   4  17  545.78   37.75
   2   4  17  549.03   52.98
  -2   4  17  693.40   45.07
  -2   4  17  558.34   47.53
   2  -4  17  580.81   37.16
   2  -4  17  579.94   41.28
  -2  -4 -17  596.56   29.51
  -2  -4 -17  567.91   39.42
   2   4 -17  522.51   68.93
   2   4 -17  544.58   44.07
  -2   4 -18   11.63    9.90
  -2   4 -18   16.35   13.29
   2  -4 -18   13.29   14.16
   2   4  18    7.31   17.22
   2   4  18   16.09    7.84
   2  -4  18    6.51   12.50
  -2   4  18    9.24   14.89
  -2   4  18   32.57    6.98
   2  -4  18   11.37   16.62
  -2  -4 -18    9.44    6.38
  -2  -4 -18    7.58   11.50
   2   4 -18    8.71   15.29
   2   4 -18    4.45   14.49
  -2   4 -19   56.23   12.89
   2  -4 -19   47.26   24.53
   2  -4 -19   97.38   19.87
  -2   4 -19   47.33   19.74
   2   4  19   42.67   24.19
   2  -4  19   70.46   32.17
   2  -4  19   65.14   14.89
  -2  -4 -19   70.59   16.82
  -2  -4 -19   80.03   10.30
   2   4 -19   75.51   22.87
   2   4 -19   55.77   21.54
  -2   4 -20   38.35   16.88
   2  -4 -20   46.59   21.20
   2  -4 -20    1.79    9.17
   2   4  20   37.36   11.70
   2   4  20    0.47    9.90
   2  -4  20   62.41   16.88
   2  -4  20   37.02   18.74
  -2  -4 -20   54.57    8.97
   2   4 -20   46.13   20.47
   2   4 -20   45.46   33.30
  -2   4 -21   61.95   21.27
   2  -4 -21   76.57   26.26
   2   4  21   63.01   14.49
   2  -4  21   72.32   21.14
   2   4 -21   51.31   41.61
   2   4 -21   57.63   25.46
   2  -4 -22    1.40    7.44
  -2   4 -22   16.28   13.69
   2  -4 -22    1.40   28.25
   2   4  22   20.87   14.76
   2   4  22   -0.13    7.64
   2  -4  22   19.28   13.76
   2   4 -22   10.04   28.91
   2   4 -22   20.80   16.22
  -2   4 -23   14.02   11.96
   2  -4 -23    0.60    6.31
   2  -4 -23   14.42   14.36
  -2   4 -23   -0.27    4.59
   2   4  23    1.26    4.12
   2   4  23   13.29   11.63
   2  -5   0   20.21   19.61
  -2   5   0   22.33   14.56
  -2   5   0   21.74   20.07
   2  -5   0   21.87   25.66
   2   5   0   22.67    9.57
   2   5   0   20.14   12.96
  -2  -5   0   24.06   18.48
  -2  -5   0   21.60    5.38
   2  -5  -1   52.11   22.67
  -2   5  -1   50.72   22.80
  -2   5  -1   50.52   15.95
   2   5   1   45.93   10.90
   2   5   1   48.39   25.46
  -2  -5   1   56.10   13.16
  -2  -5   1   51.91    6.85
   2  -5  -1   58.49   17.15
  -2   5   1   38.15   16.09
  -2   5   1   33.30   24.86
   2  -5   1   30.11   16.68
   2  -5   1   32.17   22.13
  -2  -5  -1   34.70   13.09
  -2  -5  -1   33.30    5.98
   2   5  -1   27.92   14.69
   2   5  -1   32.70    6.71
   2  -5  -2   16.09   11.83
  -2   5  -2   15.02   21.14
  -2   5  -2   16.88   13.96
   2  -5  -2   18.94   24.79
   2   5   2   24.99   13.56
   2   5   2   16.48    5.78
  -2  -5   2   17.68   11.17
  -2  -5   2   21.40    6.12
   2  -5   2   33.37   15.02
   2  -5   2   24.73   19.81
  -2   5   2   30.91   21.93
  -2   5   2   33.17   24.00
  -2  -5  -2   29.51   12.16
  -2  -5  -2   30.18    5.18
   2   5  -2   29.31   13.49
   2   5  -2   32.37    6.31
  -2   5  -3  545.44   36.29
   2  -5  -3  543.72   37.22
   2  -5  -3  541.52   41.54
  -2   5  -3  467.14   37.82
   2   5   3  524.91   39.81
   2   5   3  521.85   25.19
  -2  -5   3  513.41   34.23
  -2  -5   3  491.14   33.57
   2  -5   3  492.34   47.86
   2  -5   3  505.83   62.08
  -2   5   3  593.44   42.27
  -2  -5  -3  509.68   53.71
  -2  -5  -3  552.49   23.20
   2   5  -3  539.73   25.59
   2   5  -3  520.45   58.09
   2  -5  -4   88.67   16.82
  -2   5  -4   96.05   15.82
  -2   5  -4   91.26   31.11
   2   5   4   92.26    9.04
   2   5   4   95.85   31.37
  -2  -5   4   85.48   16.15
  -2  -5   4   77.90   14.22
   2  -5  -4   97.04   19.28
   2  -5   4   77.37   25.59
   2  -5   4   82.02   19.81
  -2   5   4   91.59   18.74
  -2   5   4   74.05   28.45
  -2  -5  -4   79.10   17.41
  -2  -5  -4   83.22    7.44
   2   5  -4   74.98   18.28
   2   5  -4   74.58    9.77
  -2   5  -5   98.17   16.28
  -2   5  -5   96.78   18.41
   2  -5  -5  102.23   18.15
   2  -5  -5  106.02   34.56
   2   5   5   98.91    9.24
   2   5   5   99.57   19.61
  -2  -5   5   92.66   10.97
  -2  -5   5   83.68   23.40
  -2   5   5  107.88   30.04
   2  -5   5  105.15   21.47
  -2   5   5  127.35   32.57
   2  -5   5   79.96   25.99
  -2  -5  -5  103.43   19.14
  -2  -5  -5  114.13   12.23
   2   5  -5  108.94   11.10
   2   5  -5   99.11   19.28
  -2   5  -6  333.67   43.60
   2  -5  -6  349.49   50.58
   2  -5  -6  402.74   34.50
   2   5   6  354.21   18.01
   2   5   6  352.29   32.17
  -2  -5   6  313.67   35.63
  -2  -5   6  346.10   21.60
  -2   5  -6  331.48   46.40
  -2   5   6  453.52   51.91
   2  -5   6  416.49   56.10
  -2   5   6  420.68   49.85
   2  -5   6  381.47   42.81
  -2  -5  -6  413.17   33.43
  -2  -5  -6  420.62   23.93
   2   5  -6  391.50   31.57
   2   5  -6  388.71   31.64
  -2   5  -7  851.47   50.18
  -2   5  -7  836.51   50.45
   2  -5  -7  914.28   56.96
   2  -5  -7  863.10   54.04
   2   5   7  829.33   52.98
   2   5   7  806.93   34.83
  -2  -5   7  847.28   42.07
  -2  -5   7  749.31   54.44
   2  -5   7  871.21   65.94
   2  -5   7  883.11   79.36
  -2   5   7  975.77   77.90
  -2   5   7 1037.78   59.22
  -2  -5  -7  883.77   54.77
  -2  -5  -7  955.56   37.95
   2   5  -7  851.87   51.11
   2   5  -7  921.26   43.40
  -2   5  -8  226.73   24.33
   2  -5  -8  237.16   27.52
  -2   5  -8  235.43   24.06
   2  -5  -8  262.15   44.80
   2   5   8  237.96   26.72
   2   5   8  211.57   18.94
  -2  -5   8  242.01   19.74
  -2  -5   8  210.91   27.98
   2  -5   8  282.69   29.58
  -2   5   8  287.15   46.33
  -2   5   8  324.63   27.45
   2  -5   8  267.87   23.46
  -2  -5  -8  275.18   27.45
  -2  -5  -8  296.78   14.82
   2   5  -8  298.05   20.54
   2   5  -8  268.93   22.93
  -2   5  -9  515.87   53.44
  -2   5  -9  528.43   33.77
   2  -5  -9  532.95   57.83
   2  -5  -9  584.26   59.29
   2   5   9  523.58   30.18
   2   5   9  540.13   38.55
  -2  -5   9  644.88   47.06
  -2  -5   9  478.58   36.76
  -2   5   9  420.08   56.03
   2  -5   9  420.95   37.49
  -2   5   9  476.25   35.16
   2  -5   9  424.21   31.51
  -2  -5  -9  459.23   21.27
  -2  -5  -9  423.27   36.43
   2   5  -9  418.02   27.58
   2   5  -9  394.23   28.32
  -2   5 -10  568.24   39.22
  -2   5 -10  585.33   51.78
   2  -5 -10  634.98   45.73
   2  -5 -10  700.78   45.20
   2   5  10  590.51   26.06
   2   5  10  594.70   42.34
  -2  -5  10  597.56   36.23
  -2  -5  10  547.84   29.11
   2  -5  10  570.10   37.75
  -2   5  10  655.25   41.34
   2  -5  10  579.88   43.67
  -2   5  10  602.41   65.94
  -2  -5 -10  613.04   26.85
  -2  -5 -10  563.13   42.14
   2   5 -10  530.62   30.64
   2   5 -10  589.18   50.85
  -2   5 -11  777.49   49.32
   2  -5 -11  886.36   53.11
   2  -5 -11  834.72   79.70
  -2   5 -11  799.42   61.42
   2   5  11  803.41   42.81
   2   5  11  783.54   51.58
  -2  -5  11  838.71   65.41
  -2  -5  11  733.55   35.83
  -2   5  11  809.99   78.63
   2  -5  11  779.02   47.06
  -2   5  11  880.05   51.71
   2  -5  11  783.47   53.24
  -2  -5 -11  810.12   54.24
  -2  -5 -11  857.45   36.82
   2   5 -11  783.80   44.80
   2   5 -11  763.26   48.66
  -2   5 -12  471.07   55.97
   2  -5 -12  596.69   39.15
  -2   5 -12  528.43   32.17
   2  -5 -12  569.31   46.06
   2   5  12  497.06   30.31
   2   5  12  527.50   39.75
  -2  -5  12  518.99   35.63
  -2  -5  12  486.95   31.24
   2  -5  12  493.40   39.08
  -2   5  12  570.04   37.22
  -2   5  12  497.85   42.54
  -2  -5 -12  541.26   34.10
  -2  -5 -12  503.64   40.81
   2   5 -12  470.27   33.83
   2   5 -12  477.71   24.19
   2  -5  12  462.29   35.69
  -2   5 -13  694.73   39.42
   2  -5 -13  800.09   47.72
   2  -5 -13  765.72   56.30
  -2   5 -13  675.52   48.32
   2   5  13  673.53   30.44
   2   5  13  692.81   48.39
  -2  -5  13  669.08   30.38
  -2  -5  13  741.46   68.26
   2  -5  13  789.98   71.39
  -2   5  13  921.99   51.05
  -2   5  13  794.24   55.24
  -2  -5 -13  836.11   46.06
   2   5 -13  778.55   39.55
   2   5 -13  768.85   47.46
   2  -5  13  755.42   68.46
   2  -5 -14  809.79   86.01
   2  -5 -14  866.69   49.25
  -2   5 -14  721.59   39.35
  -2   5 -14  749.17   52.64
   2   5  14  730.56   50.65
   2   5  14  709.89   49.32
  -2  -5  14  715.47   36.16
  -2  -5  14  753.03   50.05
   2  -5  14  694.20   68.93
  -2   5  14  674.53   52.78
  -2   5  14  829.53   48.19
   2  -5  14  646.54   45.80
  -2  -5 -14  770.97   36.76
  -2  -5 -14  800.95   37.02
   2   5 -14  671.80   46.79
   2   5 -14  703.24   34.56
   2  -5 -15  981.95   54.31
   2  -5 -15  975.37   95.38
  -2   5 -15  878.99   45.93
  -2   5 -15  945.46   90.26
   2   5  15  919.33   84.08
   2   5  15  921.26   81.56
  -2  -5  15  769.98   36.23
  -2  -5  15  980.75   89.00
   2  -5  15 1011.26   84.95
  -2   5  15  944.26   65.41
  -2   5  15 1198.90   78.63
   2  -5  15  905.77   57.56
  -2  -5 -15 1062.71   59.62
  -2  -5 -15 1117.14   48.92
   2   5 -15  937.48   59.36
  -2   5 -16  539.20   73.12
   2  -5 -16  635.64   53.97
  -2   5 -16  588.38   44.93
   2  -5 -16  654.65   39.55
   2   5  16  602.34   44.93
   2   5  16  602.48   45.66
  -2  -5  16  633.32   50.38
  -2   5  16  767.19   42.94
  -2   5  16  586.12   78.57
   2  -5  16  668.15   47.26
   2  -5  16  575.95   46.20
  -2  -5 -16  682.77   33.04
  -2  -5 -16  685.10   34.56
   2   5 -16  594.76   47.39
  -2   5 -17 1052.47   64.67
  -2   5 -17 1052.40  101.83
   2  -5 -17 1169.66   80.23
   2  -5 -17 1110.36   58.89
   2   5  17 1054.13   67.67
   2  -5  17 1006.61   95.58
  -2   5  17 1294.48   65.47
  -2   5  17 1014.25   74.31
   2  -5  17 1098.67   68.13
  -2  -5 -17 1214.26   55.90
  -2  -5 -17 1142.60   66.73
   2   5 -17 1002.49   69.53
  -2   5 -18  740.46   58.23
  -2   5 -18  730.36   48.12
   2  -5 -18  801.95   56.90
   2   5  18  755.95   75.44
   2  -5  18  893.68   75.84
  -2   5  18  785.13   61.35
   2  -5  18  809.06   59.49
  -2  -5 -18  786.39   49.12
  -2  -5 -18  865.23   53.44
   2   5 -18  764.66   59.42
   2   5 -18  761.67   62.21
  -2   5 -19  671.07   32.84
  -2   5 -19  723.18   57.76
   2   5  19  746.65   50.98
   2  -5  19  830.66   53.97
   2  -5  19  746.31   56.63
  -2   5  19  686.82   57.70
   2   5 -19  654.85   90.93
   2   5 -19  708.63   58.76
  -2   5 -20  433.31   46.33
   2   5  20  437.83   36.76
   2  -5  20  486.69   70.72
   2   5 -20  448.67   51.31
   2   5 -20  462.76   48.79
  -2   5 -21  852.53   68.66
   2  -5 -21 1117.14   83.15
   2   5  21  883.31   77.90
   2  -5  21  903.11   70.06
   2   5 -21  761.80  108.61
   2   5 -21  813.51   70.26
   2  -5 -22  601.81   58.76
  -2   5 -22  437.43   51.05
   2   5  22  464.35   37.62
  -2  -6   0 2773.82  133.27
   2  -6   0 3091.34  180.40
   2  -6   0 2851.19  154.47
  -2   6   0 3285.76  186.45
  -2   6   0 2944.58  161.39
   2   6   0 2792.63  134.13
   2   6   0 2823.80  200.60
  -2  -6   0 2948.57  197.61
  -2   6  -1  724.31   50.05
   2  -6  -1  718.73   86.74
   2  -6  -1  754.02   49.59
   2   6   1  637.11   54.70
   2   6   1  640.76   45.80
  -2  -6   1  640.36   49.65
  -2  -6   1  729.17   36.16
  -2   6  -1  708.96   84.75
   2  -6   1  649.14   56.70
   2  -6   1  752.43   73.91
  -2   6   1  708.29   56.83
  -2   6   1  642.69   48.79
  -2  -6  -1  636.97   32.30
  -2  -6  -1  591.24   71.79
   2   6  -1  607.26   53.71
   2   6  -1  662.23   33.50
  -2   6  -2 3174.89  172.35
   2  -6  -2 3311.95  191.76
  -2   6  -2 3192.37  183.79
   2  -6  -2 3173.50  172.69
   2   6   2 3130.23  183.12
   2   6   2 2993.83  144.30
  -2  -6   2 3075.06  172.09
  -2  -6   2 3130.82  167.37
  -2  -6  -2 3041.56  173.15
   2  -6   2 3254.59  230.51
  -2   6   2 2964.39  192.89
  -2   6   2 3624.49  235.57
   2  -6   2 3129.49  200.47
  -2  -6  -2 3026.47  157.13
   2   6  -2 3053.12  179.33
   2   6  -2 3025.94  146.96
   2   6   3  509.29   74.31
   2   6   3  488.55   40.81
   2  -6  -3  685.43   73.78
  -2   6  -3  640.23   71.32
   2  -6  -3  535.21   77.24
  -2   6  -3  478.84   73.38
  -2  -6   3  506.03   30.18
  -2  -6   3  479.71   41.88
  -2  -6  -3  623.75   39.22
   2  -6   3  604.54   43.60
  -2   6   3  693.40   53.51
   2  -6   3  630.59   55.10
   2   6  -3  616.17   32.64
  -2  -6  -3  589.18   48.39
   2   6  -3  588.58   49.92
  -2  -6   4 2720.71  132.94
  -2   6  -4 2832.51  154.21
   2  -6  -4 2823.14  183.59
   2  -6  -4 2882.50  165.37
  -2   6  -4 2617.88  153.74
   2   6   4 2735.73  160.66
   2   6   4 2805.13  131.54
  -2  -6   4 2604.65  170.76
   2   6  -4 2746.63  193.42
   2  -6   4 2758.40  166.44
  -2   6   4 3091.87  172.49
  -2   6   4 2792.83  182.32
   2  -6   4 2518.05  138.39
  -2  -6  -4 2754.74  137.86
  -2  -6  -4 2612.90  183.72
   2   6  -4 2595.95  126.49
  -2  -6   5  623.55   63.81
   2  -6  -5  712.88   50.45
  -2   6  -5  625.34   77.24
  -2   6  -5  668.01   48.92
   2  -6  -5  690.35   80.43
   2   6   5  669.61   55.77
  -2  -6   5  708.96   52.91
   2   6   5  732.09   45.13
   2   6  -5  656.51   36.62
  -2  -6  -5  681.64   53.97
  -2   6   5  732.36   51.45
   2  -6   5  680.31   89.73
   2  -6   5  652.73   46.13
  -2  -6  -5  757.15   33.97
   2   6  -5  678.91   53.64
  -2   6   5  837.84   57.63
  -2  -6   6 1993.01  131.81
   2   6   6 2074.63  123.90
  -2   6  -6 1972.47  116.19
  -2   6  -6 1923.01  135.33
   2  -6  -6 2226.05  121.11
   2  -6  -6 2172.47  126.76
   2   6   6 2273.44  112.93
  -2  -6   6 2045.38  100.97
  -2  -6  -6 2102.22  157.13
   2   6  -6 2142.16  123.23
  -2  -6  -6 2198.40   95.78
   2  -6   6 2104.48  164.64
  -2   6   6 2237.75  119.58
  -2   6   6 2389.89  161.45
   2  -6   6 1887.59  104.62
   2   6  -6 1820.65  109.21
  -2  -6   7  171.49   18.01
  -2   6  -7  169.16   25.46
   2  -6  -7  162.45   26.65
  -2   6  -7  153.68   25.86
   2  -6  -7  202.80   28.85
   2   6   7  177.21   48.06
   2   6   7  191.76   13.63
  -2  -6   7  165.84   33.70
   2   6  -7  144.97   17.22
  -2  -6  -7  153.21   28.71
   2  -6   7  149.82   30.31
  -2   6   7  165.97   44.33
  -2   6   7  169.96   25.99
   2  -6   7  126.89   39.55
  -2  -6  -7  172.42   12.03
   2   6  -7  145.23   39.02
  -2  -6   8 1463.58   93.79
  -2  -6   8 1391.00   96.45
  -2   6  -8 1423.23  113.26
   2  -6  -8 1598.58   92.33
   2  -6  -8 1643.31  129.68
  -2   6  -8 1392.59   83.15
   2   6   8 1550.06   79.90
   2   6   8 1555.18  127.16
   2  -6   8 1400.37  107.88
  -2   6   8 1781.70   97.78
  -2   6   8 1801.64  101.23
   2  -6   8 1652.15  103.89
  -2  -6  -8 1591.73   69.73
  -2  -6  -8 1605.03   98.51
   2   6  -8 1553.11  112.00
   2   6  -8 1435.27   92.06
  -2  -6   9  588.98   37.29
  -2  -6   9  516.33   48.99
  -2   6  -9  545.18   43.94
   2  -6  -9  542.99   68.00
  -2   6  -9  562.06   42.47
   2   6   9  604.54   73.98
   2   6   9  551.76   26.92
   2  -6  -9  631.46   49.12
   2  -6   9  481.30   40.15
  -2   6   9  605.93   46.40
  -2   6   9  552.09   44.14
   2  -6   9  530.49   50.32
  -2  -6  -9  505.90   47.39
  -2  -6  -9  576.88   35.76
   2   6  -9  494.06   56.76
   2   6  -9  496.99   34.43
  -2  -6  10 1032.80   56.70
  -2  -6  10 1355.90   88.40
  -2   6 -10 1055.59   93.32
  -2   6 -10 1067.09   65.07
   2  -6 -10 1220.44   75.38
   2  -6 -10 1226.09   75.91
   2   6  10 1184.68  106.02
   2   6  10 1043.70   57.83
  -2   6  10 1326.06   77.17
   2  -6  10 1239.58   82.16
   2  -6  10 1093.15   66.60
  -2   6  10 1342.94   78.77
  -2  -6 -10 1222.23   79.96
  -2  -6 -10 1128.78   59.56
   2   6 -10 1060.38   78.10
   2   6 -10 1169.26   83.22
  -2   6 -11   95.18   32.44
   2  -6 -11   81.56   23.60
   2  -6 -11  106.22   37.02
   2   6  11   93.79   10.57
   2   6  11  107.48   41.74
  -2  -6  11  101.96   19.14
  -2  -6  11   91.06   14.22
  -2   6 -11   87.21   23.33
   2   6 -11  135.07   18.68
   2  -6  11  145.23   26.39
  -2   6  11  158.93   22.40
  -2   6  11  160.79   24.79
   2  -6  11  135.33   22.13
  -2  -6 -11  150.49   44.60
  -2  -6 -11  154.61   16.75
   2   6 -11  117.98   25.26
  -2  -6  12  735.01   51.91
   2  -6 -12  773.63   56.30
  -2   6 -12  726.51   46.53
   2  -6 -12  870.81   57.16
  -2   6 -12  743.26   54.24
   2   6  12  740.40   44.07
   2   6  12  759.74   83.95
  -2  -6  12  826.74   72.85
   2  -6  12  757.02   58.69
  -2   6  12  808.06   53.84
  -2   6  12  825.68   85.41
   2  -6  12  660.10   74.05
  -2  -6 -12  773.30   35.49
  -2  -6 -12  785.73   60.55
   2   6 -12  662.36   37.49
   2   6 -12  697.66   46.33
  -2  -6  13  307.49   29.78
   2  -6 -13  388.05   34.76
  -2   6 -13  311.94   58.56
   2  -6 -13  350.42   37.89
  -2   6 -13  331.55   28.45
   2   6  13  349.43   28.52
   2   6  13  341.32   37.69
  -2  -6  13  361.26   33.77
   2  -6  13  343.25   37.89
  -2   6  13  401.14   51.65
  -2   6  13  372.96   62.88
  -2  -6 -13  369.24   29.65
  -2  -6 -13  360.53   39.81
   2   6 -13  332.68   21.20
   2   6 -13  330.75   31.91
   2  -6  13  344.31   34.36
  -2   6 -14  495.73   35.03
   2  -6 -14  554.29   70.86
   2  -6 -14  610.98   44.27
  -2   6 -14  502.97   46.33
   2   6  14  502.84   34.70
   2   6  14  515.73   46.20
  -2  -6  14  578.88   70.52
  -2  -6  14  485.89   26.39
   2  -6  14  512.61   43.54
   2   6 -14  562.26   35.76
   2  -6  14  592.77   71.65
  -2   6  14  612.05   50.98
  -2   6  14  763.99   60.09
  -2  -6 -14  585.79   51.38
  -2  -6 -14  637.57   30.24
   2   6 -14  531.42   42.21
  -2   6 -15   23.66   10.57
  -2   6 -15   22.60   17.68
   2  -6 -15   28.45   30.31
   2  -6 -15   21.74   13.43
   2   6  15   21.14   17.08
   2   6  15   36.56   13.76
  -2  -6  15   25.06   16.75
   2  -6  15   38.88   28.12
  -2   6  15   38.95   18.08
  -2   6  15    0.80   10.50
   2  -6  15   23.93   28.25
  -2  -6 -15   33.70   12.63
  -2  -6 -15   37.62    8.04
   2   6 -15   35.43   27.85
  -2   6 -16  330.88   39.68
   2  -6 -16  365.11   47.06
  -2   6 -16  310.48   36.82
   2   6  16  318.12   59.22
  -2  -6  16  344.58   63.15
   2  -6  16  290.67   35.16
   2  -6  16  365.91   36.56
  -2   6  16  348.30   39.88
   2   6 -16  316.92   59.22
  -2   6 -17  166.37   27.58
  -2   6 -17  172.95   54.90
   2  -6 -17  185.65   36.16
   2   6  17  169.56   28.32
  -2  -6  17  183.12   31.84
   2  -6  17  150.49   29.45
   2  -6  17  179.13   27.58
  -2   6  17  175.15   51.25
   2   6 -17  161.79   50.18
  -2   6 -18  147.96   24.46
  -2   6 -18  141.11   52.24
   2  -6 -18  180.60   31.77
   2   6  18  171.22   44.27
  -2  -6  18  129.61   31.51
   2  -6  18  144.17   50.78
  -2   6  18  133.47   50.92
   2  -6  18  154.81   43.01
   2   6 -18  119.05   51.38
  -2   6 -19    4.65   22.73
   2  -6 -19    0.60    6.65
   2   6  19    1.26   10.70
   2   6  19    1.26    5.18
   2   6 -19    8.91   13.63
   2  -6  19    4.65   12.30
   2  -6  19   23.00   16.68
  -2   6  19    7.71   12.30
  -2   6  19    0.66    3.72
   2   6 -19    8.51   22.53
  -2   6 -20   60.09   35.49
   2  -6 -20   -2.39   10.17
   2   6  20   71.85   16.22
   2   6  20    0.20   12.56
  -2   6  20   67.00   18.94
   2   6 -20   47.92   36.23
   2   7   0    4.39   15.89
   2  -7   0    7.25   29.05
   2  -7   0    7.78   12.03
  -2   7   0   15.29   29.38
   2   7   0    6.25   11.90
  -2  -7   0    7.11   25.72
  -2  -7   0    8.18   11.30
  -2   7   0    8.77   13.63
  -2  -7   1  106.42   25.32
   2  -7  -1  112.93   21.54
  -2   7  -1  112.47   41.21
   2  -7  -1  107.21   28.38
   2   7   1   89.60   21.14
   2   7   1  109.81   48.26
  -2  -7   1  100.77   12.63
  -2   7  -1  104.22   28.25
  -2  -7  -1   72.25   18.88
  -2   7   1   76.37   22.60
  -2   7   1   86.14   28.45
   2  -7   1   83.62   28.05
  -2  -7  -1   73.38   24.86
   2   7  -1   68.13   20.74
   2   7  -1   71.79   27.05
   2  -7   1   75.91   37.09
  -2  -7   2   68.26   19.08
   2  -7  -2   78.23   34.43
  -2   7  -2   72.19   25.86
   2  -7  -2   88.20   26.32
  -2   7  -2   70.92   20.94
   2   7   2   67.27   11.83
  -2  -7   2   77.04   22.33
   2   7   2   73.98   26.12
  -2  -7  -2   65.67   23.66
   2   7  -2   62.95   41.54
  -2  -7  -2   58.09   10.10
  -2   7   2   56.10   19.94
  -2   7   2   70.26   25.32
   2  -7   2   62.08   25.92
   2  -7   2   60.69   19.48
   2   7  -2   57.56   19.08
   2   7   3   60.02   26.52
  -2   7  -3   59.82   20.74
   2  -7  -3   64.61   42.47
   2  -7  -3   61.09   19.41
  -2   7  -3   59.56   42.41
   2   7   3   51.38   11.17
  -2  -7   3   50.58   21.40
  -2  -7   3   53.11   12.16
  -2  -7  -3   80.29   16.75
   2   7  -3   89.93   24.33
   2  -7   3   95.45   20.21
   2  -7   3   91.79   44.40
  -2   7   3   76.51   20.07
  -2  -7  -3   91.53   24.66
   2   7  -3   71.92   20.74
  -2   7   3  110.47   44.00
   2   7   4  204.92   26.72
  -2   7  -4  211.57   35.30
   2  -7  -4  217.35   29.25
   2  -7  -4  217.29   36.16
  -2   7  -4  192.16   50.65
   2   7   4  211.30   63.74
  -2  -7   4  199.87   19.48
  -2  -7   4  209.44   30.44
   2  -7   4  237.63   64.21
  -2  -7  -4  240.68   57.89
   2   7  -4  206.59   19.67
  -2   7   4  213.76   48.39
   2  -7   4  216.76   28.65
  -2   7   4  279.64   36.29
  -2  -7  -4  226.99   24.19
   2   7  -4  215.23   55.37
  -2   7  -5   79.50   42.07
   2  -7  -5   54.57   44.00
   2  -7  -5   73.05   34.30
  -2   7  -5   71.99   22.00
  -2  -7   5   72.52   22.67
   2   7   5   78.63   10.77
   2   7   5   83.09   45.53
  -2  -7   5   73.78   20.54
   2   7  -5   65.41   23.80
  -2  -7  -5   66.93    9.64
   2  -7   5   57.03   34.43
  -2   7   5   72.38   24.53
  -2   7   5   62.35   35.03
  -2  -7  -5   67.47   25.13
   2   7  -5   54.90   13.23
   2  -7   5   56.83   26.85
  -2  -7   6  313.47   33.43
   2   7   6  356.94   21.27
  -2   7  -6  312.14   57.16
   2  -7  -6  367.31   43.07
   2  -7  -6  365.25   35.30
  -2   7  -6  304.23   39.48
   2   7   6  325.23   43.34
  -2  -7   6  321.98   25.99
  -2  -7  -6  315.33   19.34
   2  -7   6  284.75   33.57
  -2   7   6  315.00   33.97
  -2   7   6  339.06   40.28
   2  -7   6  292.13   44.00
  -2  -7  -6  308.42   43.07
   2   7  -6  323.77   37.75
   2   7  -6  279.04   37.75
   2   7   7   34.43   23.00
  -2   7  -7   33.30   19.41
  -2   7  -7   31.17   34.36
   2  -7  -7   37.95   38.42
   2  -7  -7   28.18   32.17
   2   7   7   30.11   15.15
  -2  -7   7   44.80   21.87
  -2  -7   7   31.17   16.35
   2   7  -7   54.97   13.03
  -2  -7  -7   51.05   13.89
   2  -7   7   46.66   18.41
  -2   7   7   53.57   18.21
  -2   7   7   60.15   20.87
   2  -7   7   45.13   24.13
  -2  -7  -7   47.46   39.81
   2   7  -7   48.66   32.77
  -2  -7   8  550.16   38.29
   2   7   8  610.32   31.77
  -2   7  -8  514.27   49.45
   2  -7  -8  580.47   46.73
   2  -7  -8  613.51   55.37
  -2   7  -8  500.38   71.79
   2   7   8  548.30   56.03
  -2  -7   8  502.11   41.88
   2   7  -8  567.05   37.89
   2  -7   8  651.06   60.69
   2  -7   8  586.46   72.78
  -2   7   8  689.88   50.58
  -2   7   8  710.49   55.97
  -2  -7  -8  668.21   31.57
   2   7  -8  645.75   50.98
  -2  -7  -8  651.66   59.42
   2   7   9   57.89   15.42
  -2   7  -9   47.06   20.01
  -2   7  -9   49.85   19.41
   2  -7  -9   55.83   21.20
   2  -7  -9   48.92   32.04
   2   7   9   51.65   23.33
  -2  -7   9   54.11   15.15
  -2  -7   9   52.51   15.02
   2  -7   9   48.19   23.80
   2  -7   9   35.03   19.21
  -2   7   9   37.16   34.70
  -2   7   9   42.61   19.67
  -2  -7  -9   40.21    7.91
   2   7  -9   37.09   14.36
  -2  -7  -9   43.54   42.07
   2   7  -9   30.11   16.09
  -2   7 -10  595.16   80.03
  -2   7 -10  632.19   76.64
   2  -7 -10  729.23   86.08
   2  -7 -10  681.64   50.85
   2   7  10  647.94   59.69
   2   7  10  698.72   45.93
  -2  -7  10  625.34   43.14
  -2  -7  10  663.96   45.53
   2   7 -10  592.24   62.08
  -2  -7 -10  586.99   38.02
   2  -7  10  631.46   51.71
   2  -7  10  695.47   61.95
  -2   7  10  777.02   82.29
  -2   7  10  752.76   79.90
  -2  -7 -10  707.76   62.35
   2   7 -10  593.24   44.07
  -2   7 -11    3.26   13.56
  -2   7 -11    5.58   11.37
   2  -7 -11    3.46   13.16
   2  -7 -11   -4.52   20.27
   2   7  11    3.19   15.15
   2   7  11    1.53    5.72
  -2  -7  11    3.19   10.77
  -2  -7  11    4.19    8.57
   2   7 -11    5.25   10.24
  -2  -7 -11   12.36   27.25
   2  -7  11    4.32   12.63
   2  -7  11    8.44   14.76
  -2   7  11    9.11   21.00
  -2   7  11    3.99   22.40
  -2  -7 -11    6.45    4.85
   2   7 -11   10.50    9.04
  -2  -7  12  901.19   68.80
  -2  -7  12  911.29   61.48
  -2   7 -12  860.31   66.27
  -2   7 -12  831.26   57.70
   2  -7 -12  957.82   66.27
   2  -7 -12  991.45   96.45
   2   7  12  864.30   71.92
  -2  -7 -12  916.08   52.38
   2   7 -12  775.76   48.32
   2  -7  12  897.86   71.65
   2  -7  12  805.94   92.66
  -2   7  12 1017.51   69.06
  -2  -7 -12  935.48   75.71
   2   7 -12  827.41   56.63
  -2  -7  13   17.68   13.69
  -2   7 -13   17.35   28.78
   2  -7 -13   22.27   24.86
   2  -7 -13  -20.07   10.83
   2   7  13   18.41   17.02
  -2  -7  13   17.81    8.38
  -2   7 -13   14.02   20.87
   2  -7  13   17.48   15.82
  -2  -7 -13   10.70    5.58
  -2   7  13   18.68   15.42
  -2   7  13    1.53    5.98
   2  -7  13   18.48   15.22
  -2  -7 -13   21.07   18.21
   2   7 -13   14.02   22.87
   2   7 -13   15.35    8.44
  -2  -7  14 1007.34   69.99
  -2   7 -14  947.78   73.32
   2  -7 -14 1139.35   75.24
  -2   7 -14  948.71   61.22
  -2  -7  14  924.32   49.52
   2  -7  14  873.60   67.86
  -2   7  14 1083.98   74.91
   2  -7  14  982.88   75.04
  -2  -7 -14  986.80   80.16
   2   7 -14  881.98   90.93
  -2   7 -15    8.51   15.35
  -2   7 -15   10.37    9.31
   2  -7 -15   -2.19   11.37
   2  -7 -15   16.95   11.37
   2   7  15    2.26   14.09
   2   7  15    1.13   13.29
  -2  -7  15    7.78   13.76
   2   7 -15    6.71   12.63
   2  -7  15   10.77   24.06
  -2   7  15   -1.93   24.13
  -2   7  15   -0.33    5.05
   2  -7  15    9.24   13.43
  -2  -7  16 1234.99   88.20
   2   7  16 1129.84   84.81
  -2   7 -16 1125.32   66.20
   2  -7 -16 1324.33  108.08
  -2   7 -16 1208.47   91.26
   2  -7  16 1075.00   80.89
  -2   7  16 1401.70  126.22
   2  -7  16 1298.34  119.38
   2   7 -16 1173.98   82.22
  -2   7 -17   -0.80   15.09
  -2   7 -17   10.77   12.83
   2  -7 -17    0.33    6.51
   2  -7 -17   10.64   17.88
   2   7  17   -1.13    7.58
   2   7  17    8.91   22.60
  -2  -7  17    9.17   24.26
   2  -7  17    5.98   13.89
   2  -7  17    6.78   20.27
  -2   7  17    5.32   13.63
  -2   7  17    0.07    7.58
   2   7 -17   10.90   13.29
   2   7  18  976.56   76.11
  -2   7 -18  955.96   83.49
  -2   7 -18  978.36   72.19
   2  -7 -18 1182.55   97.78
   2  -7  18 1111.23   77.84
  -2   7  18 1166.46   84.48
   2   7 -18  975.57   78.90
  -2  -8   0 1899.75  100.10
  -2   8   0 1933.05  124.96
   2  -8   0 2102.75  128.35
   2   8   0 1928.00  139.39
   2  -8   0 2008.76  140.25
  -2   8   0 2333.33  207.65
   2   8   0 1856.75   98.97
  -2  -8   0 1970.74  136.20
   2   8   1  449.40   58.63
  -2  -8   1  437.37   47.33
  -2   8  -1  456.84   53.44
  -2   8  -1  543.45   63.08
   2  -8  -1  551.29   52.58
   2  -8  -1  484.96   60.35
   2   8   1  420.48   32.44
  -2  -8   1  471.73   85.94
  -2  -8  -1  464.42   31.77
  -2   8   1  568.71  102.69
   2   8  -1  520.32   95.85
   2  -8   1  498.32   97.91
  -2   8   1  544.51   79.23
   2   8  -1  452.52   33.37
   2  -8   1  545.05   81.03
  -2  -8  -1  505.43   58.89
  -2  -8   2 1491.43   80.63
   2   8   2 1384.15   75.04
  -2   8  -2 1552.45  150.49
  -2   8  -2 1787.55  126.22
   2  -8  -2 1715.90  141.58
   2  -8  -2 1573.45  117.32
   2   8   2 1517.22  166.77
  -2  -8   2 1643.05  160.06
   2  -8   2 1535.83  102.23
   2  -8   2 1503.00  117.45
   2   8  -2 1541.22  114.59
  -2   8   2 1509.78  137.99
  -2  -8  -2 1525.07   94.25
  -2  -8  -2 1594.19  117.58
   2   8  -2 1475.55   81.23
  -2   8   2 1797.46  125.43
  -2  -8   3  446.47   50.38
   2  -8  -3  506.03   60.95
   2   8   3  435.24   30.38
  -2   8  -3  461.96   51.58
  -2   8  -3  532.88   61.48
   2  -8  -3  526.37   50.98
   2   8   3  457.44   62.28
  -2  -8   3  499.32   56.96
  -2  -8  -3  501.11   31.77
   2   8  -3  486.95   35.36
  -2   8   3  610.38   63.41
   2  -8   3  518.06   63.41
   2  -8   3  520.92   51.38
  -2   8   3  514.14   48.32
  -2  -8  -3  577.15   98.71
   2   8  -3  554.35   60.42
  -2  -8   4 1675.09  116.05
  -2   8  -4 1740.56  125.63
   2   8   4 1681.33   83.68
  -2   8  -4 1542.81  144.04
   2  -8  -4 1712.04  145.57
   2  -8  -4 1705.26  124.90
  -2  -8   4 1559.43   87.21
   2   8   4 1585.68  124.70
  -2   8   4 1628.29  102.89
   2  -8   4 1610.94  121.51
   2   8  -4 1699.81  158.53
   2  -8   4 1562.15  143.31
  -2   8   4 1859.14  127.09
  -2  -8  -4 1663.72  122.10
  -2  -8  -4 1632.61   96.71
   2   8  -4 1477.47  103.16
  -2  -8   5  231.31   40.41
   2   8   5  266.41   49.32
   2  -8  -5  283.09   76.77
  -2   8  -5  280.30   72.98
  -2   8  -5  243.81   39.81
   2  -8  -5  288.87   36.03
   2   8   5  245.54   20.34
  -2  -8   5  254.24   39.88
   2  -8   5  252.12   38.02
   2   8  -5  292.53   42.41
  -2  -8  -5  248.79   20.01
   2  -8   5  258.50   76.57
  -2   8   5  313.67   75.38
  -2   8   5  223.54   58.63
  -2  -8  -5  267.87   47.59
   2   8  -5  218.28   40.55
   2   8   6 1020.76   65.80
  -2   8  -6  910.29   75.77
  -2   8  -6  965.20   82.62
   2  -8  -6 1028.21   87.07
   2  -8  -6 1040.04  104.76
   2   8   6  986.80  132.94
  -2  -8   6  960.41   76.37
  -2  -8   6  953.43   57.76
   2  -8   6 1097.67  133.20
   2  -8   6 1023.76   76.97
  -2   8   6 1096.94  106.55
  -2   8   6 1218.38  129.95
  -2  -8  -6 1123.59  134.87
  -2  -8  -6 1055.00   64.74
   2   8  -6 1023.42   60.55
   2   8  -6 1143.87   84.95
   2   8   7  360.39   88.27
  -2   8  -7  331.48   76.31
  -2   8  -7  350.96   47.06
   2  -8  -7  392.57   42.67
   2  -8  -7  421.88   85.94
   2   8   7  396.35   36.56
  -2  -8   7  372.96   43.40
  -2  -8   7  435.70   45.80
  -2   8   7  395.03   41.61
  -2  -8  -7  354.28   22.87
   2  -8   7  342.25   72.85
   2  -8   7  389.77   54.90
  -2   8   7  422.68   51.45
   2   8  -7  291.53   48.52
  -2  -8  -7  379.60   53.97
   2   8  -7  401.87   75.38
  -2  -8   8  973.17   70.86
  -2   8  -8  907.97  107.55
  -2   8  -8  917.41   76.71
   2   8   8  972.57  128.42
   2  -8  -8 1031.53  102.50
   2  -8  -8 1055.79   82.16
  -2  -8   8  655.52   44.27
   2   8   8 1115.15   53.18
   2   8  -8  906.11   58.69
  -2  -8  -8  971.44   59.09
   2  -8   8  918.60   72.92
   2  -8   8 1035.12   87.87
  -2   8   8 1041.04   70.92
  -2   8   8 1101.79   83.68
  -2  -8  -8 1036.58   89.33
   2   8  -8  973.44   72.32
   2   8   9  139.45   62.21
  -2   8  -9  108.08   31.97
  -2   8  -9  129.55   50.58
   2  -8  -9  114.59   25.06
   2  -8  -9  160.66   56.30
  -2  -8   9  141.18   25.39
  -2  -8   9   16.09   27.45
   2   8   9  165.51   15.22
  -2  -8  -9  114.66   10.57
   2  -8   9  121.57   35.23
   2  -8   9   99.04   30.18
  -2   8   9  162.52   31.97
  -2   8   9   98.71   27.98
   2   8  -9  103.69   37.82
  -2  -8  -9  135.26   65.34
   2   8  -9  131.94   26.12
  -2   8 -10  607.79   95.05
  -2   8 -10  606.26   57.16
   2  -8 -10  709.82   63.41
  -2  -8  10  615.30   72.45
   2   8  10  637.64   68.20
   2  -8  10  616.10   57.96
   2  -8  10  665.62   66.67
  -2   8  10  728.23   87.61
  -2  -8 -10  670.34   70.86
   2   8 -10  591.57   73.25
   2   8 -10  631.59   48.12
  -2   8 -11  268.07   43.01
  -2   8 -11  284.49   38.62
   2  -8 -11  360.86   69.06
   2   8  11  293.13   48.79
  -2  -8  11  310.68   46.66
   2  -8  11  280.03   41.94
   2  -8  11  336.73   46.99
  -2   8  11  341.05   40.48
  -2  -8 -11  346.44   52.38
   2   8 -11  279.10   51.51
   2   8 -11  289.27   33.97
  -2   8 -12  466.88   53.11
  -2   8 -12  478.38   72.05
   2  -8 -12  546.57   53.77
   2   8  12  445.74   75.44
  -2  -8  12  463.82   37.09
   2  -8  12  437.03   81.36
   2  -8  12  489.54   54.90
  -2   8  12  546.44   49.39
  -2  -8 -12  494.46   61.88
   2   8 -12  400.87   64.87
   2   8 -12  418.09   36.76
  -2   8 -13   43.80   22.93
  -2   8 -13   38.88   17.28
   2  -8 -13   47.79   20.74
   2  -8 -13    0.93   14.62
   2   8  13    0.86   18.15
  -2  -8  13    1.93   12.03
  -2  -8  13   50.12   12.63
   2   8 -13   44.07   12.30
   2   8 -13   46.93   17.68
  -2  -8 -13   51.38   26.59
   2  -8  13   40.61   21.54
   2  -8  13   52.98   37.09
  -2   8  13    0.40    9.70
  -2   8  13   50.25   19.87
  -2   8 -14  260.56   75.58
  -2   8 -14  277.91   34.56
   2  -8 -14  362.59   69.73
   2  -8  14  302.30   44.80
   2  -8  14  359.66   70.72
  -2   8  14  401.07   67.53
  -2  -8 -14  374.95   86.28
   2   8 -14  317.46   39.28
  -2   8 -15  127.95   38.62
  -2   8 -15  121.90   36.16
   2  -8 -15  157.20   29.45
   2   8  15   -1.86   29.84
   2  -8  15  168.43   32.04
  -2   8  15  197.68   53.37
  -2  -8 -15  184.72   39.81
   2   8 -15  158.93   30.38
  -2   8 -16  155.07   40.68
   2   8  16  148.03   36.29
   2  -8 -16  194.36   30.91
   2  -8  16  157.27   33.50
  -2   8  16  175.41   33.90
   2  -9   0    7.58   19.28
   2  -9   0    9.37   14.89
  -2   9   0    9.64   25.26
  -2   9   0    5.52   20.67
  -2  -9   0    1.06    6.78
   2   9   0    7.64   19.28
   2   9   0    5.98    8.77
  -2  -9   0    0.60   18.68
  -2   9  -1   67.86   27.12
  -2   9  -1   94.19   62.61
   2  -9  -1   74.71   43.54
   2  -9  -1   78.10   34.90
   2   9   1   65.67   14.76
   2   9   1   70.59   34.17
  -2  -9   1   77.44   32.37
   2  -9   1   64.41   58.16
  -2   9   1   75.44   35.49
  -2   9   1   57.23   25.46
   2   9  -1   61.75   58.89
   2  -9   1   60.82   46.13
   2   9  -1   57.16   15.49
  -2  -9  -1   59.56   57.56
  -2   9  -2   18.01   30.58
  -2   9  -2   17.41   21.54
   2  -9  -2   17.41   37.69
   2  -9  -2   18.35   14.96
  -2  -9   2   -0.07    7.44
   2   9   2    9.57    8.44
   2   9   2   15.42   35.83
  -2  -9   2   19.61   19.21
  -2  -9  -2   12.10   35.10
  -2  -9  -2    1.60    7.05
  -2   9   2   16.02   36.62
   2  -9   2   11.43   36.09
   2  -9   2    8.31   16.02
  -2   9   2    7.31   15.15
   2   9  -2   12.03   19.54
   2   9  -2    5.85    9.37
   2   9   3   24.33   53.24
   2   9   3   20.61   18.81
  -2  -9   3   24.79   25.92
  -2   9  -3   23.66   29.38
  -2   9  -3   27.52   24.79
   2  -9  -3   64.34   17.68
   2  -9  -3   28.32   28.65
  -2   9   3   28.85   35.56
   2  -9   3   36.03   39.48
  -2   9   3   43.94   51.51
   2   9  -3   32.84   23.80
   2  -9   3   33.70   28.85
   2   9  -3   40.21   27.05
  -2  -9  -3   34.50   29.18
   2   9   4   49.72   16.68
  -2  -9   4   -0.13    9.77
   2   9   4   43.01   27.25
  -2   9  -4   45.46   21.87
  -2   9  -4   56.63   46.86
   2  -9  -4   50.18   26.12
  -2  -9   4    1.00   23.06
  -2   9   4   52.18   26.59
   2  -9   4   50.32   25.92
  -2   9   4   -0.07   19.08
   2  -9   4   52.11   21.14
  -2  -9  -4    2.73    8.24
   2   9  -4   42.74   13.36
   2   9  -4   47.26   24.66
  -2  -9  -4   52.98   27.72
   2   9   5  192.43   18.41
  -2   9  -5  200.94   45.40
  -2   9  -5  184.45   38.22
   2  -9  -5  202.33   76.57
   2   9   5  181.59   48.12
  -2  -9   5  188.97   64.14
   2  -9   5  167.24   43.54
   2  -9   5  162.65   36.89
  -2   9   5  180.66   45.20
  -2   9   5  184.72   32.37
  -2  -9  -5  174.35   47.79
   2   9  -5  202.73   41.94
   2   9  -5  151.02   24.19
   2   9   6   66.93   32.64
  -2   9  -6   71.25   44.53
  -2   9  -6  103.23   30.11
   2  -9  -6   72.65   29.18
   2  -9  -6    0.53   10.50
   2   9   6   81.76   11.63
  -2  -9   6    0.93   43.20
  -2   9   6   53.97   29.25
   2  -9   6   49.72   29.65
  -2   9   6   -1.33   36.96
   2  -9   6   42.54   25.66
   2   9  -6   41.74   28.85
  -2  -9  -6   52.64   55.10
   2   9  -6   50.78   25.52
  -2   9  -7  131.01   35.36
  -2   9  -7  126.49   32.97
   2  -9  -7  143.24   36.69
   2  -9  -7    1.66   21.00
   2   9   7  129.15   39.28
  -2  -9   7  133.60   50.85
  -2  -9  -7  129.02   40.41
   2  -9   7  106.35   63.21
   2  -9   7   97.71   32.50
  -2   9   7  115.46   46.40
   2   9  -7  130.88   31.24
   2   9  -7  109.14   21.47
  -2   9   7  139.98   35.56
  -2  -9   8  131.48   33.43
  -2   9  -8  120.51   63.08
  -2   9  -8  130.81   39.08
   2  -9  -8  135.33   39.55
   2   9   8  129.35   43.07
   2  -9   8  144.77   62.35
   2  -9   8  178.80   69.39
  -2   9   8  170.83   31.31
  -2  -9  -8  176.67   46.66
   2   9  -8  155.01   42.54
   2   9  -8  172.62   34.30
  -2   9  -9  279.50   49.92
  -2   9  -9  294.92   46.79
   2  -9  -9  334.34   50.98
  -2  -9   9  308.82   40.94
   2   9   9  290.60   89.87
  -2  -9  -9  345.97   95.91
   2  -9   9  288.87   47.59
   2  -9   9  312.60   84.88
  -2   9   9  337.06   41.08
   2   9  -9  294.52   34.90
   2   9  -9  311.27   68.26
   2   9  10   98.24   65.07
  -2   9 -10   91.59   36.62
  -2   9 -10   94.92   32.50
   2  -9 -10   96.38   58.16
  -2  -9  10   98.37   26.19
   2  -9  10  119.91   33.37
   2  -9  10  121.04   60.82
  -2   9  10  120.51   48.32
   2   9 -10  119.91   25.39
  -2  -9 -10  134.80   42.61
   2   9 -10  110.94   27.92
  -2  -9  11  231.51   32.70
  -2   9 -11  234.10   77.64
   2  -9 -11  266.34   45.13
  -2   9 -11  217.09   40.94
  -2  -9 -11  338.93   94.19
   2  -9  11  315.46   75.77
  -2   9  11  307.22   63.68
   2   9 -11  252.32   34.17
   2   9 -11  265.61   55.37
  -2  -9  12  311.47   52.24
  -2   9 -12  272.92   70.32
   2  -9 -12  323.97   48.12
   2  -9  12  318.59   48.32
  -2   9  12  346.37   42.47
   2   9 -12  278.51   38.22
  -2  -9 -12  340.25   59.16
   2   9 -12  248.66   32.64
   2  10   0   92.33   20.54
  -2  10   0   98.51   62.41
   2 -10   0  118.85   45.80
   2  10   0  117.05   43.14
  -2 -10   0  111.54   44.14
  -2 -10   1 1177.23  163.71
  -2  10  -1 1060.38   92.13
   2 -10  -1 1137.95  113.93
   2  10   1  994.11   63.21
   2  10  -1 1006.54   92.26
  -2 -10  -1 1207.08  114.73
   2 -10   1 1126.32  110.54
  -2  10   1 1107.91   90.53
   2  10  -1 1196.11  164.24
  -2  10  -2   12.16   18.15
   2 -10  -2   14.56   38.62
   2 -10  -2   -0.33    6.12
   2  10   2   21.74   13.96
  -2 -10   2    0.53    4.59
  -2 -10   2   18.08   35.49
   2 -10   2   -0.33    6.85
   2 -10   2    0.07   36.89
  -2  10   2   -1.73   29.05
   2  10  -2   12.56   20.41
   2  10  -2    6.18   18.48
  -2 -10  -2    5.58   22.00
  -2 -10  -2    7.05    7.11
   2  10   3  925.85   72.92
  -2  10  -3  925.58   89.27
   2 -10  -3  988.19  101.56
  -2 -10   3 1039.18  154.27
   2  10  -3  913.82   64.41
  -2  10   3 1030.40   83.42
  -2 -10  -3 1072.15  110.21
   2 -10   3 1022.03  164.11
   2  10  -3 1101.33  104.69
   2 -10  -4   82.22   31.51
  -2  10  -4   97.98   29.78
   2 -10  -4    0.00   10.04
   2  10   4   90.53   19.61
  -2 -10   4    1.99   29.91
   2  10  -4   69.86   16.75
  -2  10   4    0.93   23.46
   2 -10   4   66.14   32.50
  -2 -10  -4    1.46   10.10
  -2 -10  -4   80.76   59.69
   2  10  -4   68.00   27.78
  -2  10  -5  760.27   85.68
  -2 -10   5  833.12   88.07
   2  10  -5  737.54   84.48
   2 -10   5  840.04   94.25
  -2  10   5  842.69  107.61
   2  10  -5  829.80   84.02
  -2 -10   6   -1.00   19.34
  -2 -10   6    0.80    5.12
  -2  10   6   -0.20   15.49
   2  10  -6   22.00   12.36
   2  10  -6   19.34   31.24
   3   0   0    9.84    4.05
   3   0   0   12.03    8.04
  -3   0   0    2.33    3.99
  -3   0   1  151.15    9.31
   3   0   1  151.95   16.48
  -3   0  -1  147.23   10.17
  -3   0   1  147.49   14.16
  -3   0  -1  145.43    8.11
   3   0  -1  150.35   14.42
   3   0  -1  143.37   10.44
   3   0   1  130.28   14.96
  -3   0   2  312.80   15.22
   3   0   2  327.29   16.62
   3   0   2  326.10   12.96
   3   0  -2  310.54   13.63
  -3   0   2  327.49   14.09
   3   0  -2  290.67   23.73
  -3   0  -2  298.98   12.83
  -3   0  -2  328.02   24.19
  -3   0   3  328.49   16.22
   3   0   3  331.81   17.15
   3   0  -3  334.80   13.69
  -3   0  -3  302.37   13.76
  -3   0  -3  338.06   17.15
   3   0   3  359.07   15.62
   3   0  -3  323.37   17.48
  -3   0   3  340.06   13.83
  -3   0  -4  262.15   17.22
  -3   0   4  288.08   11.50
  -3   0  -4  279.10   15.49
   3   0   4  273.72   15.49
  -3   0   4  268.93   15.09
   3   0   4  294.52   12.83
   3   0  -4  277.91   11.57
   3   0  -4  270.20   16.48
   3   0   5  100.30    6.91
   3   0  -5   93.39    8.71
  -3   0   5   91.59   15.69
  -3   0  -5   98.31   10.17
   3   0   5   88.94    9.51
  -3   0  -5   96.11   16.02
   3   0  -5   87.74   17.02
  -3   0   5   92.66    8.38
   3   0   6 1741.22   65.47
  -3   0   6 1573.65   68.53
   3   0  -6 1618.79   59.36
   3   0   6 1566.54   66.47
  -3   0  -6 1592.53   60.55
  -3   0  -6 1604.30   67.67
   3   0  -6 1580.90   70.06
  -3   0   6 1690.51   60.62
   3   0   7  306.95   13.69
   3   0  -7  279.17   13.16
  -3   0   7  267.21   17.22
  -3   0   7  240.68   11.43
   3   0   7  270.13   16.42
   3   0  -7  279.97   27.45
  -3   0  -7  285.22   24.73
  -3   0  -7  305.56   12.36
   3   0   8  667.28   26.26
   3   0   8  618.23   29.25
  -3   0   8  594.50   21.27
   3   0  -8  629.86   20.61
  -3   0  -8  719.99   31.51
   3   0  -8  629.33   32.37
  -3   0   8  611.18   30.64
  -3   0  -8  649.40   29.91
   3   0   9   48.66   14.62
  -3   0   9   49.45    3.59
  -3   0  -9   45.60   14.29
  -3   0  -9   54.90    8.71
   3   0  -9   51.18    5.25
   3   0  -9   46.79   10.77
  -3   0   9   44.73   10.10
   3   0   9   52.84    4.59
   3   0  10 3392.78  143.77
   3   0 -10 2886.28  114.86
   3   0  10 3465.96  175.21
  -3   0 -10 3369.05  154.61
  -3   0 -10 3399.76  155.94
   3   0 -10 3349.84  130.41
   3   0 -10 3254.99  157.93
   3   0 -10 3385.07  163.51
   3   0  11  173.09   14.69
  -3   0 -11  186.31   16.15
  -3   0 -11  166.50   21.60
   3   0  11  188.77    9.77
   3   0 -11  180.66   30.51
   3   0 -11  168.96   18.61
   3   0  12 1145.46   44.73
  -3   0 -12 1090.96   49.59
  -3   0 -12 1147.19   46.79
   3   0 -12 1083.51   56.96
   3   0 -12 1093.75   57.03
   3   0  12 1048.55   49.45
   3   0  13   -0.40    3.59
   3   0  13    5.65    9.57
  -3   0 -13    7.44    5.12
  -3   0 -13    4.72    4.05
   3   0 -13    7.64   13.96
   3   0 -13    4.85    8.18
   3   0 -14 3317.07  170.69
  -3   0 -14 3083.76  146.43
   3   0  14 3193.64  154.47
  -3   0 -14 3407.67  168.37
   3   0  14 3098.79  146.83
   3   0 -14 3189.91  164.11
   3   0  15    7.91   11.17
   3   0  15   10.17    9.90
  -3   0 -15    4.99    9.04
  -3   0 -15    8.71    4.25
   3   0 -15    7.64   10.90
   3   0 -15    6.51   10.37
   3   0 -16 1661.66   89.67
  -3   0 -16 1578.84   76.71
   3   0  16 1549.06   74.31
   3   0  16 1479.07   68.66
  -3   0 -16 1589.27   81.96
   3   0 -16 1644.91   90.46
   3   0  17   17.48    8.04
   3   0  17   21.54    6.98
  -3   0 -17   21.87   10.17
  -3   0 -17   18.94    7.11
   3   0 -17   24.00   14.62
   3   0 -17   18.74   14.36
   3   0 -18 2469.12  136.73
   3   0  18 2221.20  117.12
  -3   0 -18 2286.87  105.09
   3   0  18 2315.71  112.66
  -3   0 -18 2363.17  126.09
   3   0 -18 2490.46  167.90
   3   0  19   36.69    7.78
  -3   0 -19   23.66   12.36
   3   0  19   22.73   14.76
  -3   0 -19   24.13   14.89
   3   0 -19   25.99   17.68
   3   0 -19   20.47   29.91
   3   0  20 1020.70   49.85
  -3   0 -20 1060.11   65.34
   3   0  20  824.28   38.88
   3   0 -20 1262.31  105.95
   3   0 -20 1145.06  103.43
   3   0 -21   10.70   13.03
   3   0  21   12.63    9.77
  -3   0 -21    7.84   11.43
   3   0  21    0.07    3.92
   3   0 -21    9.44   12.96
   3   0  22 1825.77   90.80
   3   0 -22 2054.49  166.57
  -3   0 -22 1932.45   99.57
   3   0 -22 1901.88  122.10
   3   0 -23   24.59   17.02
  -3   0 -23   20.67    9.11
  -3   0 -23    0.47    5.52
   3   0 -23   32.97   17.81
  -3   0 -24  997.77   57.96
   3   0 -24 1084.97   86.48
  -3   1   0 2340.24  121.70
  -3  -1   0 2865.94  119.38
   3   1   0 2590.43  110.67
   3  -1   0 2172.21  118.71
  -3   1   0 2722.04  126.03
   3   1   0 2648.79  109.61
  -3  -1   0 2681.76  107.68
   3  -1  -1 1223.23   59.22
   3   1   1 1257.46   49.72
  -3  -1   1 1307.84   50.72
  -3   1  -1 1271.35   52.44
   3  -1  -1 1239.91   50.32
  -3   1  -1 1200.16   53.97
  -3  -1   1 1270.75   45.00
   3   1   1 1136.82   41.01
  -3   1   1 1234.53   50.18
   3   1  -1 1153.17   50.25
  -3  -1  -1 1227.22   43.34
  -3   1   1 1139.88   51.85
   3  -1   1 1146.66   51.05
   3  -1   1 1198.10   50.92
  -3  -1  -1 1258.19   51.11
   3   1  -1 1164.14   53.04
  -3   1  -2 7475.50  398.88
   3  -1  -2 7695.52  394.49
   3  -1  -2 7295.31  391.50
  -3   1  -2 7411.10  393.10
   3   1   2 7181.64  350.03
   3   1   2 7676.71  389.38
  -3  -1   2 6715.96  340.72
  -3  -1  -2 7747.16  395.22
   3   1  -2 5334.00  272.12
   3  -1   2 7969.04  423.01
  -3   1   2 7891.87  428.46
   3  -1   2 6916.50  357.60
  -3   1   2 7700.70  390.84
  -3  -1  -2 7223.72  345.37
   3   1  -2 7138.51  361.13
   3   1  -2 7438.95  372.43
   3  -1  -3 1335.76   54.97
  -3   1  -3 1272.28   57.23
   3  -1  -3 1378.10   65.67
  -3   1  -3 1344.40   58.29
   3   1   3 1175.70   37.55
   3   1   3 1332.30   55.97
   3   1  -3 1598.58   59.29
   3  -1   3 1552.72   63.88
  -3   1   3 1504.39   65.27
   3  -1   3 1590.80   68.80
  -3   1   3 1548.53   68.73
   3   1  -3 1483.92   55.97
   3   1  -3 1511.90   58.96
   3   1  -3 1583.29   63.34
  -3  -1  -3 1595.66   64.61
  -3  -1  -3 1483.59   46.66
  -3   1  -4 3382.87  164.24
  -3   1  -4 3217.03  145.83
   3  -1  -4 3329.03  174.95
   3  -1  -4 3356.55  146.50
   3   1   4 3447.15  152.28
   3   1   4 3038.23  113.53
   3   1  -4 2956.94  139.78
   3   1  -4 3315.87  137.79
  -3  -1  -4 3468.15  154.41
   3   1  -4 3444.16  151.75
  -3   1   4 3479.59  157.86
   3  -1   4 3207.20  137.32
   3  -1   4 3319.53  148.56
  -3   1   4 3237.24  149.95
   3   1  -4 3275.06  155.60
   3  -1  -5 1211.53   54.11
  -3   1  -5 1223.10   58.16
  -3   1  -5 1289.83   53.57
   3  -1  -5 1205.61   55.83
   3   1   5 1265.50   63.08
   3   1   5  956.82   28.52
   3   1  -5 1296.08   45.00
   3  -1   5 1215.12   51.91
  -3   1   5 1246.09   52.91
  -3   1   5 1177.63   53.84
   3  -1   5 1251.48   46.33
   3   1  -5 1234.00   49.52
   3   1  -5 1283.92   51.18
  -3  -1  -5 1280.06   53.24
   3   1  -5 1242.64   52.05
  -3   1  -6 4789.89  241.95
  -3   1  -6 4772.48  225.26
   3  -1  -6 4777.26  236.43
   3  -1  -6 4703.68  217.42
   3   1   6 4702.68  238.56
   3   1  -6 4797.73  220.81
  -3   1   6 4767.56  216.62
   3  -1   6 4680.88  215.03
  -3   1   6 4740.77  232.84
   3  -1   6 4783.97  228.79
   3   1  -6 4163.09  200.20
  -3  -1  -6 4632.56  196.22
  -3  -1  -6 4477.15  196.55
   3   1  -6 4726.54  227.52
   3   1  -6 4686.40  211.44
  -3   1  -7  727.64   33.70
  -3   1  -7  777.75   40.88
   3   1   7  704.97   33.57
   3  -1  -7  704.51   37.89
   3  -1  -7  762.67   30.51
   3   1   7  733.29   34.23
   3   1  -7  841.43   26.92
   3  -1   7  876.06   32.64
   3  -1   7  844.95   49.19
  -3   1   7  782.14   39.35
  -3   1   7  850.34   34.96
   3   1  -7  862.44   47.72
  -3  -1  -7  903.05   30.38
  -3  -1  -7  829.13   26.26
   3   1  -7  808.33   30.71
   3   1  -7  863.43   50.65
   3   1   8 2074.30   91.66
  -3   1  -8 2147.41  100.70
  -3   1  -8 2074.96   91.53
   3  -1  -8 2161.04   88.87
   3  -1  -8 2024.78   97.51
   3   1   8 2095.57   93.59
  -3  -1  -8 2365.63   91.93
   3   1  -8 2285.94   85.75
   3   1  -8 2114.84   93.72
   3  -1   8 2253.96   98.37
  -3   1   8 2183.37  102.36
  -3   1   8 2226.25   91.20
   3  -1   8 2224.12   98.31
   3   1  -8 2176.00  113.26
  -3  -1  -8 2260.15   85.35
   3   1  -8 2241.34   87.81
  -3   1  -9  640.89   30.51
  -3   1  -9  713.21   39.15
   3  -1  -9  739.47   34.83
   3   1   9  669.61   44.47
   3   1   9  661.63   41.48
   3  -1   9  672.53   33.10
  -3   1   9  659.24   36.23
  -3   1   9  691.61   26.85
   3  -1   9  698.92   27.45
  -3  -1  -9  676.06   24.73
  -3  -1  -9  689.08   23.40
   3   1  -9  653.72   20.41
   3   1  -9  670.94   48.32
   3   1  -9  678.98   23.60
   3   1  -9  652.13   32.64
   3   1  10 2892.86  135.20
   3  -1 -10 2896.32  143.37
  -3   1 -10 2987.92  134.47
   3  -1 -10 2978.34  133.07
  -3   1 -10 2788.11  128.35
   3   1  10 2780.00  128.88
   3  -1  10 2974.95  137.92
  -3   1  10 3167.05  130.68
  -3   1  10 2947.83  164.58
   3  -1  10 3050.13  141.65
  -3  -1 -10 3141.79  129.22
  -3  -1 -10 2969.50  124.96
   3   1 -10 2921.51  159.39
   3   1 -10 2856.90  151.15
  -3   1 -11  530.62   25.59
   3  -1 -11  497.39   22.13
  -3   1 -11  545.38   37.62
   3  -1 -11  496.26   34.17
   3   1  11  490.47   26.19
   3   1  11  504.37   28.58
  -3  -1 -11  618.63   22.33
   3  -1  11  625.27   33.83
  -3   1  11  563.99   34.43
   3  -1  11  580.61   30.31
  -3   1  11  585.19   20.21
  -3  -1 -11  573.49   20.01
   3   1 -11  561.20   31.31
   3   1  12 1158.09   66.07
  -3   1 -12 1257.73   66.27
   3  -1 -12 1235.33   44.67
   3  -1 -12 1208.47   66.07
  -3   1 -12 1181.55   54.11
   3   1  12 1209.07   71.19
   3   1 -12 1275.54   62.35
   3   1 -12 1372.12   88.07
   3  -1  12 1411.40   67.07
   3  -1  12 1312.10   60.42
  -3   1  12 1268.10   65.74
  -3   1  12 1288.17   43.94
  -3  -1 -12 1391.60   58.83
  -3  -1 -12 1310.97   53.51
   3   1  13  256.70   18.81
  -3   1 -13  270.60   17.55
   3  -1 -13  272.12   26.19
  -3   1 -13  281.03   17.08
   3   1  13  265.54   17.15
  -3  -1 -13  255.84   17.88
   3  -1  13  259.63   23.00
   3  -1  13  234.04   28.45
  -3   1  13  247.26   25.26
  -3  -1 -13  238.29   10.97
   3   1 -13  247.40   24.26
   3   1 -13  289.87   37.29
   3   1  14 1035.39   50.98
  -3   1 -14 1095.21   50.18
   3  -1 -14 1159.35   66.47
  -3   1 -14 1136.55   63.34
   3  -1 -14 1094.35   62.88
   3   1  14 1064.70   62.68
  -3  -1 -14 1022.76   45.93
   3   1 -14 1082.98   61.42
   3  -1  14 1088.10   57.96
   3  -1  14 1044.36   51.45
  -3  -1 -14 1095.48   44.27
   3   1 -14 1049.15   57.50
   3   1  15  260.56   17.68
  -3   1 -15  247.07   16.88
   3  -1 -15  283.62   45.46
   3  -1 -15  266.61   28.12
  -3   1 -15  269.80   18.21
   3   1  15  255.77   19.01
   3   1 -15  220.61   24.59
  -3  -1 -15  236.16   13.63
   3  -1  15  239.09   16.62
   3  -1  15  217.09   18.08
  -3  -1 -15  218.88   17.35
   3   1 -15  235.83   26.92
   3   1  16  613.44   33.97
  -3   1 -16  642.49   32.37
  -3   1 -16  650.67   46.26
   3  -1 -16  660.44   47.19
   3  -1 -16  714.67   49.52
   3   1  16  640.63   44.93
   3  -1  16  684.36   34.10
   3  -1  16  616.37   46.93
  -3  -1 -16  637.04   29.18
  -3  -1 -16  593.50   25.86
   3   1 -16  731.36   64.61
   3   1 -16  639.03   46.20
  -3   1 -17  212.10   15.35
  -3   1 -17  227.52   28.25
   3  -1 -17  230.85   28.85
   3  -1 -17  260.43   48.26
   3   1  17  214.43   18.21
   3   1  17  205.85   16.28
   3  -1  17  206.39   17.68
  -3  -1 -17  221.54   14.42
  -3  -1 -17  204.46   18.21
   3   1 -17  225.80   46.06
   3   1 -17  213.30   26.06
   3   1  18  107.81   13.16
  -3   1 -18  117.85   22.87
  -3   1 -18  104.49   18.08
   3  -1 -18  111.87   23.06
   3  -1 -18  128.29   24.06
   3   1  18  112.86   20.01
   3   1 -18  100.24   23.00
   3   1 -18   99.44   21.40
   3  -1  18   85.15   20.94
   3  -1  18   87.34   10.44
  -3  -1 -18   97.71   10.70
  -3  -1 -18   92.66    9.24
   3   1  19   96.65   11.96
   3   1  19  103.49   13.16
  -3   1 -19  104.02   23.66
  -3   1 -19   96.38   11.90
   3  -1 -19  109.81   23.86
   3  -1 -19  126.16   43.34
   3   1 -19  102.43   24.59
   3  -1  19   99.24   10.57
   3  -1  19  106.82   13.29
  -3  -1 -19   96.58   15.69
   3   1 -19  113.46   39.35
  -3  -1 -19   99.70   11.63
  -3   1 -20  135.66   25.72
   3  -1 -20  144.24   28.38
   3  -1 -20  137.06   26.19
   3   1  20  114.99   22.20
   3  -1  20  123.37   21.80
   3  -1  20   93.32    8.77
  -3  -1 -20  132.07   20.74
  -3  -1 -20  132.07   16.15
   3   1 -20  119.31   25.66
   3   1 -20  123.03   26.99
  -3   1 -21    0.40    4.65
  -3   1 -21   17.48   13.23
   3  -1 -21   26.19   24.46
   3  -1 -21   20.47   23.00
   3   1  21   16.88    6.45
   3   1  21   -0.07    4.52
   3  -1  21   13.23    6.31
   3  -1  21   -0.13    3.79
  -3  -1 -21    8.57   10.17
   3   1 -21   14.96   24.00
   3   1 -21   13.63   23.33
  -3   1 -22    7.38    7.91
  -3   1 -22    0.53    2.99
   3  -1 -22    8.64   14.82
   3   1  22   17.75    6.31
  -3  -1 -22   -2.13    4.25
   3  -1  22    0.07    3.72
   3  -1  22   18.15   10.70
  -3  -1 -22   14.96    6.38
   3   1 -22   20.80   14.16
   3   1 -22   28.32   14.29
  -3   1 -23   24.53   11.17
   3  -1 -23   29.84   19.14
  -3   1 -23   -0.93    6.85
   3   1  23   32.90   13.96
  -3  -1 -23   33.97    8.84
   3   1 -23   29.98   19.74
   3   1 -23   35.03   20.07
  -3   1 -24   19.61    8.71
   3  -1 -24   12.83   16.28
  -3   1 -24    1.13    3.32
   3   1 -24    9.17   27.25
   3   2   0  328.62   12.50
   3   2   0  309.48   11.03
   3   2   0  308.48   23.40
   3  -2   0  284.55   27.25
   3  -2   0  274.32   20.61
  -3   2   0  311.74   18.74
  -3   2   0  318.39   34.70
   3   2   0  312.14   25.52
  -3   2  -1  317.46   18.35
   3  -2  -1  299.97   22.47
   3  -2  -1  308.42   17.75
   3   2   1  318.72   17.55
  -3   2  -1  301.70   21.74
   3   2   1  335.47   12.50
   3   2   1  324.37   16.55
   3   2   1  349.96   10.90
  -3   2   1  248.73   16.62
  -3   2   1  233.71   20.14
   3  -2   1  257.24   17.68
   3  -2   1  237.96   28.38
   3   2  -1  258.90   10.97
   3   2  -1  250.72   20.47
   3   2  -1  264.95    9.70
   3   2  -1  242.15   14.69
   3   2   2  105.22   10.10
   3   2   2  111.87    9.77
   3  -2  -2  103.16   14.56
  -3   2  -2  104.76   20.01
  -3   2  -2  104.42   10.83
   3  -2  -2  100.57    9.97
   3   2   2   95.78    3.46
   3  -2   2   56.17    9.90
   3  -2   2   57.16   10.24
  -3   2   2   61.75   15.95
  -3   2   2   55.37   12.23
   3   2  -2   55.97   12.96
   3   2  -2   61.35    4.65
   3   2  -2   62.81    7.11
   3   2  -2   67.53    9.84
   3   2   3  380.34   20.80
  -3   2  -3  345.97   21.40
  -3   2  -3  370.30   21.07
   3  -2  -3  352.29   43.27
   3  -2  -3  340.45   19.01
   3   2   3  369.70   19.87
   3   2  -3  378.94   15.89
   3   2  -3  377.21   15.29
   3  -2   3  369.83   21.00
  -3   2   3  335.27   35.76
  -3   2   3  364.72   19.41
   3  -2   3  370.10   19.34
   3   2  -3  348.50   16.28
   3   2  -3  438.96   19.41
   3   2   4  113.79   11.83
  -3   2  -4  124.10   12.56
  -3   2  -4  117.52   19.94
   3  -2  -4  101.83   10.17
   3  -2  -4   98.04   26.52
   3   2   4  115.12   11.50
  -3   2   4  114.39   16.09
   3  -2   4  114.26   20.07
   3  -2   4  117.85   15.55
  -3   2   4  111.54   23.93
   3   2  -4  126.82    7.11
   3   2  -4  122.50    7.38
   3   2  -4  110.94    8.04
   3   2  -4  116.79    8.38
  -3   2  -5  626.67   41.08
  -3   2  -5  631.39   31.24
   3  -2  -5  581.54   53.44
   3  -2  -5  606.99   29.11
   3   2   5  611.85   41.81
   3   2   5  635.24   32.04
   3   2  -5  728.57   28.65
   3  -2   5  729.70   34.17
  -3   2   5  698.92   37.49
   3  -2   5  737.21   30.31
  -3   2   5  753.76   40.94
   3   2  -5  754.49   29.18
   3   2  -5  785.93   32.50
   3   2  -5  748.97   30.97
  -3   2  -6  779.81   36.23
  -3   2  -6  731.56   46.59
   3  -2  -6  719.86   41.41
   3  -2  -6  683.04   32.30
   3   2   6  737.87   35.89
   3   2   6  710.89   34.90
   3   2  -6  817.90   37.49
  -3   2   6  801.62   41.74
   3  -2   6  816.84   33.50
   3  -2   6  835.25   38.62
  -3   2   6  818.63   34.63
   3   2  -6  887.56   38.02
   3   2  -6  857.92   33.50
   3   2  -6  824.55   33.43
   3   2   7  663.49   33.50
  -3   2  -7  700.32   33.17
  -3   2  -7  685.63   33.10
   3  -2  -7  642.89   38.75
   3  -2  -7  686.89   42.07
   3   2   7  687.56   34.10
   3   2  -7  772.44   35.56
   3  -2   7  743.46   39.28
   3  -2   7  748.37   36.23
  -3   2   7  722.98   40.68
   3   2  -7  707.83   30.78
  -3   2   7  704.44   29.91
   3   2  -7  796.23   29.65
   3   2  -7  737.67   28.91
  -3   2  -8  355.14   18.94
  -3   2  -8  342.12   19.28
   3  -2  -8  363.92   18.88
   3  -2  -8  302.57   38.09
   3   2   8  346.57   20.47
   3   2   8  332.08   19.28
  -3  -2  -8  272.59    7.91
   3   2  -8  256.37   12.23
  -3  -2  -8  264.88    8.91
   3  -2   8  294.13   15.82
   3   2  -8  275.31   16.68
   3  -2   8  281.83   19.81
  -3   2   8  268.20   13.96
  -3   2   8  270.00   22.87
   3   2  -8  301.84   19.34
   3   2  -8  285.75   12.10
   3   2   9 1008.27   57.96
   3   2   9 1012.99   46.93
   3  -2  -9  988.73   52.24
  -3   2  -9 1087.50   59.56
  -3   2  -9 1072.68   59.09
   3  -2  -9 1132.10   57.76
   3   2  -9  947.52   32.30
   3  -2   9  948.78   46.00
   3   2  -9  829.20   37.02
   3  -2   9  956.95   41.54
  -3   2   9  864.10   35.63
  -3   2   9  891.68   67.53
   3   2  -9  864.96   40.48
  -3  -2  -9  892.68   31.64
  -3  -2  -9  995.77   33.30
   3   2  -9  946.65   46.46
  -3   2 -10 1395.98   62.95
  -3   2 -10 1398.18   62.08
   3  -2 -10 1283.32   67.20
   3  -2 -10 1481.93   71.65
   3   2  10 1350.32   63.41
   3   2  10 1382.42   76.84
   3   2 -10 1225.02   57.10
  -3  -2 -10 1404.49   51.31
  -3   2  10 1231.07   49.52
   3  -2  10 1377.37   64.81
   3  -2  10 1333.10   68.06
  -3   2  10 1330.84   90.86
  -3  -2 -10 1252.28   46.99
   3   2 -10 1331.84   80.36
   3   2 -10 1250.48   46.59
   3   2 -10 1371.65   45.33
   3   2  11  901.98   57.96
  -3   2 -11  968.79   55.17
  -3   2 -11  914.21   41.74
   3  -2 -11  939.01   45.93
   3  -2 -11  871.54   68.20
   3   2  11  878.92   42.14
  -3  -2 -11  752.76   29.84
   3  -2  11  861.11   48.85
   3  -2  11  801.08   41.48
  -3   2  11  793.44   48.59
  -3   2  11  729.70   34.17
   3   2 -11  812.58   61.15
  -3  -2 -11  843.03   28.85
   3   2 -11  761.07   52.84
  -3   2 -12  549.30   39.02
  -3   2 -12  586.39   30.31
   3  -2 -12  520.72   27.58
   3  -2 -12  528.50   37.29
   3   2  12  541.06   30.78
   3   2  12  515.53   28.45
   3  -2  12  569.44   36.69
   3  -2  12  483.89   28.45
  -3   2  12  433.05   21.40
  -3   2  12  497.12   37.49
  -3  -2 -12  535.94   23.20
  -3  -2 -12  467.81   21.00
   3   2 -12  494.20   33.23
   3   2 -12  547.24   44.53
  -3   2 -13 1435.73   78.37
  -3   2 -13 1476.48   83.49
   3  -2 -13 1456.20   79.16
   3  -2 -13 1396.71   60.35
   3   2  13 1448.76   86.08
   3   2  13 1430.88   82.22
   3   2 -13 1393.99   74.11
  -3  -2 -13 1456.07   60.89
   3  -2  13 1378.30   82.22
   3  -2  13 1627.89   83.15
  -3   2  13 1260.39   52.64
  -3   2  13 1403.89  102.63
  -3  -2 -13 1327.72   55.77
   3   2 -13 1314.89   66.60
  -3   2 -14  982.81   46.59
  -3   2 -14 1031.33   51.98
   3  -2 -14  997.30   60.89
   3  -2 -14 1044.56   43.27
   3   2  14  969.65   50.78
   3   2  14  943.00   47.72
  -3  -2 -14 1003.48   43.67
  -3   2  14  959.01   34.63
   3  -2  14 1053.60   67.53
   3  -2  14 1177.57   65.01
  -3   2  14 1063.37   64.47
  -3  -2 -14 1101.52   47.59
   3   2 -14 1035.45   55.63
   3   2 -14 1024.89   59.36
  -3   2 -15 1398.38   69.59
  -3   2 -15 1365.07   63.54
   3  -2 -15 1439.65   55.77
   3  -2 -15 1404.22   80.63
   3   2  15 1274.81   62.81
   3   2  15 1321.40   83.95
   3   2 -15 1435.53  105.02
   3  -2  15 1494.09   69.26
  -3   2  15 1395.12   50.32
   3  -2  15 1410.47   69.06
  -3   2  15 1416.19   82.69
  -3  -2 -15 1444.84   65.07
  -3  -2 -15 1343.01   53.77
   3   2 -15 1362.02   73.91
   3   2  16  391.44   26.32
  -3   2 -16  438.43   35.16
  -3   2 -16  437.96   29.31
   3  -2 -16  162.05   36.56
   3  -2 -16  414.10   37.75
   3   2  16  404.40   27.98
   3   2 -16  465.22   54.70
  -3   2  16  472.46   16.02
   3  -2  16  471.46   28.52
   3  -2  16  512.74   28.32
  -3   2  16  397.68   12.43
  -3  -2 -16  506.03   27.78
   3   2 -16  469.27   38.55
  -3  -2 -16  454.78   19.34
   3   2  17 1010.93   52.64
  -3   2 -17 1082.31   74.18
  -3   2 -17 1088.90   62.81
   3  -2 -17 1271.88   79.96
   3  -2 -17 1092.09   69.19
   3   2  17 1010.79   70.06
   3  -2  17 1163.81   57.63
   3  -2  17 1070.22   71.25
  -3  -2 -17 1098.00   55.50
  -3  -2 -17 1012.46   49.59
   3   2 -17 1034.79   67.53
   3   2 -17 1030.54   63.94
   3   2  18  985.20   53.11
  -3   2 -18 1041.50   75.58
  -3   2 -18 1001.02   59.49
   3  -2 -18 1151.31   77.70
   3  -2 -18 1010.86   68.66
   3   2  18 1010.86   67.33
   3   2 -18 1038.58   66.40
   3  -2  18 1070.28   55.04
   3  -2  18 1181.09   77.04
  -3  -2 -18 1113.62   48.46
   3   2 -18 1026.75   68.93
  -3  -2 -18  999.36   50.58
   3   2  19 1068.76   56.70
  -3   2 -19 1102.85   51.71
  -3   2 -19 1106.24   80.83
   3  -2 -19 1282.12   85.94
   3  -2 -19 1115.62   75.44
   3   2  19  930.30   47.33
   3  -2  19 1220.24   63.74
   3  -2  19 1133.36   72.58
  -3  -2 -19 1171.38   52.18
   3   2 -19 1092.62   71.52
  -3  -2 -19 1073.81   55.24
   3   2 -19 1141.34  109.94
   3   2  20  402.67   40.28
  -3   2 -20  440.82   48.79
   3  -2 -20  486.49   48.32
   3  -2 -20  432.25   43.94
   3   2 -20  415.10   44.87
   3   2 -20  403.80   65.21
  -3  -2 -20  378.54   20.34
   3  -2  20  410.78   27.52
  -3  -2 -20  430.39   32.10
  -3   2 -21  840.77   71.99
   3  -2 -21  985.80  110.27
   3  -2 -21  843.03   66.00
   3   2  21  794.24   44.53
  -3  -2 -21  813.91   50.58
   3  -2  21  823.62   58.36
   3   2 -21  830.20   63.61
   3   2 -21  829.93   67.00
   3   2  22  610.78   50.45
  -3   2 -22  635.04   44.33
   3  -2 -22  751.23   66.00
   3  -2 -22  664.29   56.96
   3  -2  22  531.15   33.10
   3   2 -22  582.53   55.57
   3   2 -22  602.01   92.52
  -3   2 -23  733.15   51.25
   3  -2 -23  903.65  115.32
   3   2  23  692.27   54.17
   3   2 -23  769.25   69.79
   3   2 -23  786.20  102.10
  -3   2 -24  363.98   35.30
   3  -2 -24  417.16   55.77
  -3  -3   0  180.26   11.17
   3   3   0  151.02   15.02
   3  -3   0  186.58   27.19
   3  -3   0  184.52   19.14
  -3   3   0  180.40   17.61
  -3   3   0  196.81   20.14
   3   3   0  195.35    7.31
  -3  -3   0  159.53   14.22
  -3  -3   1 5387.78  261.89
  -3  -3   1 4152.58  201.33
   3   3   1 5314.33  234.44
  -3   3  -1 5211.83  269.80
  -3   3  -1 5170.09  282.89
   3  -3  -1 4927.35  248.20
   3  -3  -1 4851.64  255.64
   3   3   1 5318.25  263.68
  -3  -3  -1 5321.71  261.29
   3  -3   1 4891.59  271.39
   3  -3   1 5126.82  257.77
  -3   3   1 5325.50  287.54
   3   3  -1 5314.73  277.84
  -3  -3  -1 4099.41  189.97
   3   3  -1 5172.62  233.31
  -3  -3   2  487.35   24.13
   3   3   2  511.61   41.08
   3  -3  -2  558.14   36.36
  -3   3  -2  539.06   31.31
  -3   3  -2  527.23   31.77
   3  -3  -2  519.92   30.64
  -3  -3   2  496.06   24.93
   3   3   2  527.30   17.88
  -3  -3  -2  482.10   16.55
   3   3  -2  497.65   23.00
   3  -3   2  489.94   29.58
   3  -3   2  459.10   42.54
  -3   3   2  489.41   29.91
  -3   3   2  499.91   33.57
   3   3  -2  451.26   25.52
  -3  -3  -2  457.11   26.12
  -3  -3   3 3775.51  184.52
   3   3   3 4082.26  177.47
   3  -3  -3 4222.44  221.34
  -3   3  -3 4286.92  230.71
  -3   3  -3 4331.52  215.16
   3  -3  -3 4274.89  231.25
  -3  -3   3 4270.04  200.27
   3   3   3 4414.81  215.29
   3   3   3 4312.78  208.51
   3   3  -3 4176.18  202.53
   3  -3   3 4079.20  203.13
   3  -3   3 4183.16  222.94
  -3   3   3 4016.46  201.73
  -3   3   3 4504.07  227.59
   3   3  -3 3984.95  188.17
  -3  -3   4   82.42    8.18
   3   3   4   77.30   12.50
  -3   3  -4   77.44   13.29
   3  -3  -4   63.15   20.07
   3  -3  -4   49.05   17.28
  -3  -3   4   77.17    7.78
   3   3   4   73.38   11.83
  -3   3   4   46.66   19.94
   3  -3   4   54.64   10.77
   3  -3   4  137.86   14.36
  -3   3   4   40.55   14.62
   3   3  -4   45.40   10.90
   3   3  -4   46.06   16.82
  -3  -3   5 3589.86  168.90
  -3  -3   5 4102.67  186.45
  -3   3  -5 4235.67  207.25
  -3   3  -5 3976.71  193.76
   3  -3  -5 4153.98  219.28
   3  -3  -5 3835.73  190.37
   3   3   5 3971.06  193.09
   3   3   5 4035.60  197.81
   3   3  -5 4074.22  210.64
  -3   3   5 3714.49  186.64
   3  -3   5 3745.46  205.46
   3  -3   5 3748.25  179.53
  -3   3   5 3710.96  192.16
   3   3  -5 3815.52  174.68
  -3  -3   6  365.18   19.48
  -3  -3   6  391.30   17.02
   3   3   6  374.29   36.69
   3   3   6  445.48   27.12
  -3   3  -6  412.51   26.06
  -3   3  -6  391.83   37.82
   3  -3  -6  380.00   25.06
   3  -3  -6  390.24   33.50
   3   3  -6  369.10   26.65
   3   3  -6  363.12   29.05
  -3   3   6  332.88   28.78
   3  -3   6  386.18   33.37
   3  -3   6  349.89   25.66
  -3   3   6  333.81   22.67
  -3   3  -7 4738.71  237.63
  -3   3  -7 4631.63  229.98
   3  -3  -7 4781.12  264.01
   3  -3  -7 4063.45  250.06
   3   3   7 4516.57  226.59
   3   3   7 4661.34  233.57
   3   3  -7 4603.24  224.33
   3   3  -7 4739.37  214.96
   3   3  -7 4356.58  214.63
   3   3  -7 4256.34  204.13
   3  -3   7 4324.34  227.92
   3  -3   7 4669.65  235.77
  -3   3   7 4050.09  208.91
  -3   3   7 4255.08  226.33
  -3   3  -8   89.20   13.69
   3  -3  -8   88.14   19.08
  -3   3  -8   87.54   13.03
   3  -3  -8   95.52   22.93
   3   3   8   86.81   14.22
   3   3   8   87.07   14.29
   3   3  -8  108.94    9.51
   3   3  -8  105.15   15.82
   3   3  -8   95.18   10.77
   3   3  -8   98.37   12.36
   3  -3   8  103.09   11.50
   3  -3   8  112.47   14.89
  -3   3   8  134.33   12.50
  -3   3   8  116.65   17.81
   3  -3  -9 1681.60  115.72
  -3   3  -9 1768.34  103.29
  -3   3  -9 1779.04   99.24
   3  -3  -9 1817.00   86.48
   3   3   9 1767.68   85.88
   3   3   9 1685.06   83.82
   3   3  -9 1888.19   75.11
  -3  -3  -9 1847.24   67.07
   3   3  -9 1872.56   87.14
   3   3  -9 1848.10   82.82
   3   3  -9 1693.50   83.22
  -3   3   9 1743.55   95.05
   3  -3   9 1860.87   83.75
   3  -3   9 1896.43   91.39
  -3   3   9 1854.02   98.31
  -3  -3  -9 1969.81   68.06
   3   3  10  218.88   20.14
   3  -3 -10  247.93   18.81
  -3   3 -10  240.88   20.01
   3  -3 -10  221.74   26.45
  -3   3 -10  224.40   18.28
   3   3  10  219.81   21.00
   3   3 -10  254.64   33.50
   3   3 -10  236.10   11.43
   3   3 -10  250.12   18.68
   3   3 -10  230.32   17.02
   3  -3  10  254.51   21.54
   3  -3  10  254.51   18.01
  -3   3  10  232.44   25.26
  -3   3  10  251.05   27.65
  -3  -3 -10  252.32   11.43
  -3  -3 -10  264.61    7.98
   3   3  11 2138.91  125.03
  -3   3 -11 2059.14  120.51
  -3   3 -11 2138.91  102.36
   3  -3 -11 2148.41  144.04
   3  -3 -11 2314.45  122.50
   3   3  11 2165.36  128.42
   3   3 -11 2360.98  115.32
   3   3 -11 2367.16   87.81
   3   3 -11 2222.06   93.06
   3   3 -11 2258.35  107.61
   3  -3  11 2413.62  117.98
   3  -3  11 2388.43  110.14
  -3   3  11 2252.90  104.89
  -3   3  11 2373.14  153.54
  -3  -3 -11 2385.84   90.20
  -3  -3 -11 2398.80  100.50
  -3   3 -12  129.61   23.60
  -3   3 -12  129.88   16.55
   3  -3 -12  142.58   13.16
   3  -3 -12  110.80   22.13
   3   3  12  132.34   17.55
   3   3  12  138.52   27.45
  -3  -3 -12  147.16   11.57
   3   3 -12  131.34   18.41
   3   3 -12  152.88    6.12
   3   3 -12  134.07    4.92
   3   3 -12  130.88   16.55
   3  -3  12  133.54   16.88
   3  -3  12  150.75   14.82
  -3   3  12  116.79   23.26
  -3   3  12  134.33   12.03
  -3  -3 -12  139.78    6.18
  -3   3 -13  920.53   45.86
  -3   3 -13  914.68   66.34
   3  -3 -13  915.74   51.38
   3  -3 -13  908.63   58.49
   3   3  13  860.97   47.72
   3   3  13  933.56   67.86
   3   3 -13  959.55   76.57
   3   3 -13  936.88   50.72
   3  -3  13  948.98   47.46
   3  -3  13  942.86   50.98
  -3   3  13  922.72   41.88
  -3   3  13  978.69   62.21
  -3  -3 -13  983.08   42.67
  -3  -3 -13  948.98   38.02
  -3   3 -14  137.32   14.22
  -3   3 -14  151.82   29.31
   3  -3 -14  134.13   23.93
   3  -3 -14  150.75   11.17
   3   3  14  133.47   16.42
   3   3  14  134.80   18.21
   3   3 -14  133.87   21.20
   3   3 -14  130.68   19.34
  -3  -3 -14  136.73   11.10
   3  -3  14  125.29   27.85
   3  -3  14  131.87   15.22
  -3   3  14  130.74   25.32
  -3   3  14  120.04   15.55
  -3  -3 -14  125.56   12.16
   3   3  15  826.48   60.89
  -3   3 -15  880.25   42.87
  -3   3 -15  901.59   49.72
   3  -3 -15  891.62   36.96
   3  -3 -15  892.28   58.56
   3   3  15  880.52   67.27
   3   3 -15  813.38   53.71
   3   3 -15  819.90   50.32
  -3  -3 -15  853.20   34.30
   3  -3  15  874.87   66.07
   3  -3  15  853.93   45.93
  -3   3  15  711.22   30.84
  -3   3  15  835.85   85.21
  -3  -3 -15  880.05   39.62
   3   3  16   34.96   11.70
  -3   3 -16   29.84   14.49
  -3   3 -16   38.42   12.36
   3  -3 -16   29.65    8.18
   3  -3 -16   28.85   28.78
   3   3  16   31.44   10.83
   3   3 -16   29.71   26.99
   3   3 -16   29.78   14.22
   3  -3  16   49.32   19.34
   3  -3  16   25.13   11.37
  -3   3  16   28.18   17.95
  -3   3  16   24.66    6.98
  -3  -3 -16   28.12    4.99
  -3  -3 -16   31.51    8.77
   3   3  17  270.26   23.40
  -3   3 -17  299.24   27.39
  -3   3 -17  294.79   25.19
   3  -3 -17  277.04   52.58
   3   3  17  269.33   21.93
   3   3 -17  193.96   30.38
   3   3 -17  201.40   45.33
   3  -3  17  232.04   35.16
   3  -3  17  209.91   21.54
  -3   3  17  192.43   32.37
  -3  -3 -17  204.92   18.01
  -3  -3 -17  198.28   17.61
   3   3  18   39.81   13.49
  -3   3 -18   43.14   15.35
  -3   3 -18   41.08   16.22
   3  -3 -18   32.24   36.56
   3  -3 -18    8.24   24.06
   3   3  18   82.49   19.01
   3   3 -18   63.28   20.94
   3   3 -18   64.94   19.01
   3  -3  18   65.14   14.16
   3  -3  18   64.47   21.60
  -3  -3 -18   55.24   11.03
  -3  -3 -18   62.08   11.63
  -3   3 -19  276.91   18.74
  -3   3 -19  274.85   44.47
   3  -3 -19  286.15   61.42
   3  -3 -19  349.23   42.87
   3   3  19  271.13   25.32
   3   3 -19  251.98   59.76
   3   3 -19  256.84   33.97
   3  -3  19  288.41   26.99
   3  -3  19  273.59   23.60
  -3   3 -20   45.00    7.71
  -3   3 -20   43.60   24.79
   3  -3 -20   57.50   22.47
   3  -3 -20   36.03   34.36
   3   3  20   -0.27    8.44
   3   3  20    6.85   19.87
   3   3 -20   43.20   20.21
   3   3 -20   32.24   18.61
   3  -3  20   39.62   23.00
   3  -3  20   34.83   18.48
  -3   3 -21   11.30    6.12
  -3   3 -21   28.65   21.27
   3  -3 -21   11.37   34.30
   3  -3 -21  128.42   27.19
   3   3  21   12.23    9.64
   3   3 -21    4.72   17.48
   3   3 -21    3.52   16.42
   3  -3  21   10.17   11.43
   3  -3  21    5.25    9.04
  -3   3 -22   32.77   13.29
   3  -3 -22   52.51   20.67
   3  -3 -22    0.13    7.38
   3   3  22   -1.93    7.64
   3   3  22   42.41   10.10
   3   3 -22   43.27   31.44
   3   3  23    0.07    3.52
   3   3  23   10.64   11.03
  -3   3 -23    0.00    4.99
  -3   3 -23    3.79    9.24
   3  -3 -23    7.78   25.39
   3   3 -23    3.92   13.03
   3   4   0   55.63    7.91
   3   4   0   66.87   12.89
  -3  -4   0   54.37    4.72
  -3  -4   0   67.33   11.37
  -3   4   0   59.02   15.09
   3  -4   0   62.68   14.36
   3  -4   0   58.43   14.09
  -3   4   0   58.76   24.06
   3   4   1  260.23   10.57
   3   4   1  236.30   21.60
  -3  -4   1  254.24   19.48
  -3  -4   1  329.55   17.48
  -3   4  -1  267.74   26.32
  -3   4  -1  248.59   24.93
   3  -4  -1  246.20   24.79
   3  -4  -1  240.75   36.82
  -3  -4  -1  268.47   32.17
  -3  -4  -1  298.18   14.22
   3   4  -1  298.98   16.95
   3   4  -1  280.57   22.73
  -3   4   1  296.12   25.13
   3  -4   1  275.25   23.60
   3  -4   1  270.06   40.21
  -3   4   1  273.12   25.66
   3   4   2  257.24   14.42
   3   4   2  226.93   21.40
  -3  -4   2  241.81   12.03
  -3  -4   2  227.19   17.61
  -3   4  -2  243.08   23.66
  -3   4  -2  236.50   38.22
   3  -4  -2  232.64   24.79
   3  -4  -2  236.23   23.46
  -3  -4  -2  259.16   12.10
  -3  -4  -2  248.59   20.34
   3   4  -2  266.41   11.83
   3   4  -2  265.54   21.60
  -3   4   2  268.34   24.93
   3  -4   2  259.43   24.73
   3  -4   2  254.71   22.07
  -3   4   2  230.58   23.60
   3   4   3    7.64    5.38
   3   4   3    4.79    9.31
  -3  -4   3    6.05    7.51
  -3  -4   3    4.25    6.58
  -3   4  -3    2.33    9.97
  -3   4  -3    9.44   10.30
   3  -4  -3    4.65   11.57
   3  -4  -3    4.39   18.21
  -3  -4  -3   26.99    8.91
  -3  -4  -3   16.48    2.13
   3   4  -3   13.76   14.76
   3   4  -3   16.48    4.25
   3  -4   3   17.22   18.81
   3  -4   3   14.82    9.04
  -3   4   3   18.35   10.97
  -3   4   3   39.15   16.95
   3   4   4  186.11   31.31
   3   4   4  169.10    6.85
  -3  -4   4  168.50   10.77
  -3  -4   4  162.78   12.76
  -3   4  -4  192.29   19.48
  -3   4  -4  162.78   31.11
   3  -4  -4  167.57   22.87
   3  -4  -4  183.52   32.30
  -3  -4  -4  122.83   17.48
  -3  -4  -4  130.68    4.92
   3   4  -4  126.29    9.51
   3   4  -4  128.22   16.09
  -3   4   4  133.60   20.21
   3  -4   4  124.50   16.28
   3  -4   4  109.67   17.81
  -3   4   4  126.16   18.54
   3   4   5  857.52   67.07
   3   4   5  832.46   30.58
  -3  -4   5  822.89   38.55
  -3  -4   5  863.57   38.02
  -3   4  -5  934.02   50.98
  -3   4  -5  883.64   49.39
   3  -4  -5  934.42   57.50
   3  -4  -5  932.89   53.57
  -3  -4  -5  882.97   48.72
  -3  -4  -5  985.67   32.44
   3   4  -5  913.88   48.46
   3   4  -5  955.76   39.68
  -3   4   5  894.74   51.45
   3  -4   5  889.42   49.85
   3  -4   5  951.57   47.72
  -3   4   5 1041.37   57.89
   3   4   6  176.41   20.41
   3   4   6  178.00    7.31
  -3  -4   6  188.84   21.47
  -3  -4   6  171.02   12.70
  -3   4  -6  151.88   32.57
  -3   4  -6  175.15   19.61
   3  -4  -6  160.66   25.86
   3  -4  -6  184.52   21.40
  -3  -4  -6  192.49   20.41
  -3  -4  -6  197.61    7.18
   3   4  -6  193.96   13.23
   3   4  -6  187.51   18.15
  -3   4   6  204.19   24.13
   3  -4   6  186.45   29.51
   3  -4   6  195.75   21.07
  -3   4   6  189.90   20.41
   3   4   7  526.37   16.48
   3   4   7  523.84   34.43
  -3  -4   7  526.83   32.04
  -3  -4   7  553.75   28.38
  -3   4  -7  554.68   34.70
  -3   4  -7  555.55   50.18
   3  -4  -7  558.87   42.07
   3  -4  -7  558.74   36.69
  -3  -4  -7  530.82   17.02
   3   4  -7  504.70   25.79
   3   4  -7  484.23   30.44
   3  -4   7  497.65   43.87
   3  -4   7  487.55   51.31
  -3   4   7  533.48   39.95
  -3   4   7  501.58   49.32
   3   4   8   74.18   15.22
   3   4   8   61.28   14.42
  -3  -4   8   73.65   11.70
  -3  -4   8   61.82   17.81
  -3   4  -8   72.58   14.22
  -3   4  -8   68.73   13.63
   3  -4  -8   66.14   20.67
   3  -4  -8   65.21   14.16
  -3  -4  -8   64.08    3.92
  -3  -4  -8   65.74    4.25
   3   4  -8   54.44    9.97
   3   4  -8   60.29   19.61
  -3   4   8   52.84   17.35
   3  -4   8   61.75   21.20
   3  -4   8   59.56   25.26
  -3   4   8   68.00   22.80
   3   4   9 1452.55   76.31
   3   4   9 1391.93   73.05
  -3  -4   9 1400.97   56.43
  -3  -4   9 1480.40   70.19
  -3   4  -9 1393.12   91.00
  -3   4  -9 1419.45   70.66
   3  -4  -9 1509.84   76.57
   3  -4  -9 1515.09  117.32
  -3  -4  -9 1377.70   48.92
  -3  -4  -9 1450.62   52.64
   3   4  -9 1407.41   80.49
   3   4  -9 1170.98   71.59
  -3   4   9 1303.66   76.77
   3  -4   9 1348.46   83.55
   3  -4   9 1300.73   91.59
  -3   4   9 1463.45   93.52
   3   4  10   57.16   15.15
   3   4  10   57.63   24.19
  -3  -4  10   58.43   12.43
  -3  -4  10   57.89    9.24
  -3   4 -10   53.31   14.62
  -3   4 -10   55.44   21.80
   3  -4 -10   53.44   19.94
   3  -4 -10   63.21   13.49
  -3  -4 -10   56.43    4.72
  -3  -4 -10   68.53    3.72
   3   4 -10   63.21   20.14
   3   4 -10   61.28   15.15
  -3   4  10   65.01   31.77
   3  -4  10   69.66   22.33
   3  -4  10   68.53   25.52
  -3   4  10   76.77   22.47
   3   4  11 1132.70   63.41
   3   4  11 1208.41   84.15
  -3   4 -11 1085.44   78.30
  -3   4 -11 1158.62   57.96
   3  -4 -11 1227.95   74.78
   3  -4 -11 1231.87   62.21
  -3  -4 -11 1090.82   43.01
  -3  -4 -11 1043.56   38.88
   3   4 -11 1047.49   39.02
   3   4 -11 1024.42   53.37
   3   4 -11 1018.84   44.14
   3  -4  11 1037.38   79.16
   3  -4  11 1025.09   71.52
  -3   4  11 1112.56   73.18
  -3   4  11 1026.41   94.39
   3   4  12  218.42   37.36
   3   4  12  210.97   36.43
  -3   4 -12  230.45   22.60
  -3   4 -12  208.05   18.74
   3  -4 -12  175.35   46.13
   3  -4 -12  234.84   19.61
  -3  -4 -12  171.16   10.83
  -3  -4 -12  177.94    7.18
   3   4 -12  180.00   20.27
   3   4 -12  174.35   10.10
   3   4 -12  181.19   21.74
   3   4 -12  183.12   14.29
  -3   4  12  176.74   27.98
   3  -4  12  175.88   34.96
   3  -4  12  180.00   19.34
  -3   4  12  204.46   28.05
   3   4  13 1638.59   88.40
   3   4  13 1645.84   89.87
  -3   4 -13 1609.88   86.94
  -3   4 -13 1615.20   97.24
   3  -4 -13 1793.33   86.61
   3  -4 -13 1670.03   99.17
  -3  -4 -13 1741.49   75.04
  -3  -4 -13 1676.22   67.93
   3   4 -13 1550.12   59.62
   3   4 -13 1565.54   85.55
   3   4 -13 1617.39   65.21
   3   4 -13 1642.85   85.68
  -3   4  13 1759.50   84.88
   3  -4  13 1598.18   81.56
   3  -4  13 1635.80  110.54
  -3   4  13 1621.71   98.37
   3   4  14   54.31   29.91
   3   4  14   61.75   16.42
  -3   4 -14   80.43   29.38
  -3   4 -14   63.08   12.83
   3  -4 -14   81.16   20.41
   3  -4 -14   61.68   23.06
  -3  -4 -14   95.32   11.17
  -3  -4 -14   90.53    8.77
   3   4 -14   91.26   17.88
  -3   4  14   98.51   12.50
   3   4 -14   88.14   19.01
   3  -4  14   90.13   15.69
   3  -4  14   81.62   16.88
  -3   4  14   85.55   23.86
   3   4  15 1320.21   74.84
   3   4  15 1434.14   81.49
  -3   4 -15 1390.00   78.70
  -3   4 -15 1397.71   70.72
   3  -4 -15 1562.42   73.32
   3  -4 -15 1546.47  127.22
  -3  -4 -15 1496.62   68.93
  -3  -4 -15 1442.38   56.76
   3   4 -15 1425.03   80.83
   3   4 -15 1364.14   82.36
   3  -4  15 1388.80   77.10
   3  -4  15 1418.25   75.04
  -3   4  15 1452.95  127.09
  -3   4  15 1571.19   85.48
   3   4  16  169.83   38.95
   3   4  16  185.12   37.89
  -3   4 -16  169.50   17.15
  -3   4 -16  174.08   25.52
   3  -4 -16  191.30   15.02
  -3  -4 -16  196.48   11.77
   3   4 -16  191.50   45.73
   3   4 -16  203.99   26.72
   3  -4  16  193.16   22.40
   3  -4  16  218.15   38.75
  -3   4  16  183.12   33.10
  -3   4  16  206.05   22.87
   3   4  17 1283.18   75.58
   3   4  17 1280.79   70.59
   3  -4 -17 1349.85  122.37
  -3   4 -17 1237.59   62.15
  -3   4 -17 1340.41   78.77
   3   4 -17 1252.14   82.42
   3   4 -17 1281.66   78.97
   3  -4  17 1263.18   91.20
   3  -4  17 1389.87   98.44
  -3   4  17 1312.16   88.54
  -3   4  17 1357.16   70.52
   3   4  18   55.30   17.28
  -3   4 -18   60.89   18.88
  -3   4 -18   67.93   20.21
   3  -4 -18   61.02   42.14
   3   4 -18   74.91   23.20
   3   4 -18   62.08   36.76
  -3   4  18   57.96   44.20
   3  -4  18   73.91   17.75
   3  -4  18   78.50   16.82
   3   4  19 1640.72  118.91
  -3   4 -19 1844.05  100.17
  -3   4 -19 1684.66  101.30
   3  -4 -19 1777.51  115.72
   3   4 -19 1659.47  148.69
   3   4 -19 1638.59  139.45
   3  -4  19 1773.86   98.51
   3  -4  19 1692.50   96.38
  -3   4  19 1701.01  114.13
   3   4  20  101.56   19.81
  -3   4 -20  100.63   19.01
  -3   4 -20  133.67   40.55
   3  -4 -20  135.20   33.83
   3   4 -20   92.46   29.31
   3   4 -20   90.73   27.85
   3  -4  20  137.32   37.89
   3  -4  20   97.58   30.84
   3   4  21  919.53   80.56
  -3   4 -21  911.69   93.59
   3  -4 -21 1096.94  129.75
   3   4 -21  887.43   72.05
   3   4 -21  840.17   74.11
   3  -4  21  974.10   63.41
   3  -4  21  961.41   58.16
   3   4  22   63.88   24.53
  -3   4 -22   64.61   19.34
   3  -4 -22   59.76   28.12
   3  -4 -22    1.26   15.49
   3   4 -22   23.86   23.06
   3  -4  22   39.15   17.68
  -3  -5   0 1750.59  113.60
   3   5   0 1826.10  100.17
  -3  -5   0 1857.88   77.10
   3   5   0 1891.18   77.70
   3  -5   0 1817.13  100.77
   3  -5   0 1948.34  110.41
  -3   5   0 1858.07  103.96
  -3   5   0 1772.00  102.10
   3   5   1 2130.73   87.87
  -3  -5   1 2066.19   88.14
  -3  -5   1 1900.75   99.37
   3   5   1 2201.59  141.71
   3  -5  -1 2151.87  117.65
  -3   5  -1 2249.24  121.77
  -3   5  -1 1973.80  112.27
   3  -5  -1 2073.90  116.12
  -3  -5  -1 2145.22   94.72
   3   5  -1 2013.15  133.07
   3   5  -1 2049.37   95.38
  -3  -5  -1 1830.42  119.44
   3  -5   1 2030.76  144.97
   3  -5   1 2014.21  109.28
  -3   5   1 2066.85  112.60
  -3   5   1 2019.59  144.50
   3   5   2 1313.63   51.91
   3   5   2 1366.67   77.10
  -3  -5   2 1197.44   63.68
  -3  -5   2 1382.89   65.54
   3  -5  -2 1408.41   81.29
  -3   5  -2 1276.94   75.97
  -3   5  -2 1340.75   76.64
   3  -5  -2 1367.67   80.83
  -3  -5  -2 1102.19   63.81
   3   5  -2 1241.44   52.11
   3   5  -2 1203.82   70.52
  -3  -5  -2 1213.66   47.13
   3  -5   2 1210.93   70.46
   3  -5   2 1196.71   75.44
  -3   5   2 1253.67   77.17
  -3   5   2 1292.49  102.10
   3   5   3 2293.98  124.70
  -3  -5   3 2017.47  103.69
  -3  -5   3 2223.32   98.71
   3  -5  -3 2470.99  168.57
  -3   5  -3 2317.84  125.03
   3   5   3 2278.03  105.35
  -3   5  -3 2216.34  123.43
   3  -5  -3 2331.00  159.79
  -3  -5  -3 2290.66   92.66
   3   5  -3 2330.74  101.50
   3   5  -3 2302.15  147.36
  -3  -5  -3 2167.02  115.12
   3  -5   3 2239.81  118.31
   3  -5   3 2262.14  126.36
  -3   5   3 2310.99  158.99
  -3   5   3 2399.60  130.81
   3   5   4 1580.30   90.33
  -3  -5   4 1816.20   87.21
  -3  -5   4 1359.22   70.52
   3   5   4 1621.58   70.86
  -3   5  -4 1504.79  115.66
   3  -5  -4 1619.25  123.17
  -3   5  -4 1506.05  113.46
   3  -5  -4 1626.36   94.65
  -3  -5  -4 1545.87   64.21
   3   5  -4 1553.45   87.14
   3   5  -4 1570.13   68.26
  -3  -5  -4 1513.90  108.08
   3  -5   4 1460.59   80.43
   3  -5   4 1429.95  111.54
  -3   5   4 1720.88  125.29
  -3   5   4 1594.46  116.72
   3   5   5 1516.56  114.19
  -3  -5   5 1394.39   63.61
  -3   5  -5 1493.89   83.88
  -3  -5   5 1244.70   63.61
   3   5   5 1406.42   60.42
  -3   5  -5 1382.49   80.16
   3  -5  -5 1513.96   87.87
   3  -5  -5 1471.56  112.93
  -3  -5  -5 1444.50   58.03
   3   5  -5 1423.17   62.68
   3   5  -5 1363.81   78.63
  -3  -5  -5 1353.71   77.30
   3  -5   5 1352.71   80.83
   3  -5   5 1438.85  101.63
  -3   5   5 1556.04  112.47
  -3   5   5 1603.83   89.40
   3   5   6  914.08   83.35
   3   5   6  876.79   37.95
  -3  -5   6  883.11   45.40
  -3  -5   6  968.32   58.03
   3  -5  -6 1049.55   67.80
  -3   5  -6  967.12   58.56
  -3   5  -6  920.40   57.50
   3  -5  -6 1053.00   64.67
  -3  -5  -6  893.34   58.16
  -3  -5  -6  936.42   37.09
   3   5  -6  915.74   54.50
   3   5  -6  892.01   76.57
   3  -5   6  818.17   74.25
   3  -5   6  902.98   60.62
  -3   5   6 1039.91   63.54
  -3   5   6 1051.14   65.01
   3   5   7 1994.87  140.38
  -3  -5   7 1910.98   92.26
  -3  -5   7 1932.25   93.46
   3  -5  -7 2144.76  155.74
  -3   5  -7 1827.23  129.55
   3   5   7 2067.05   81.62
  -3   5  -7 2038.94  110.54
   3  -5  -7 2210.63  120.64
  -3  -5  -7 2251.50   91.13
   3   5  -7 1957.51  129.88
   3   5  -7 2090.78   96.91
  -3  -5  -7 2043.99  143.37
   3  -5   7 1977.72  131.08
   3  -5   7 2082.14  116.65
  -3   5   7 2378.93  126.49
  -3   5   7 2407.91  127.55
   3   5   8 1106.38   44.33
  -3  -5   8 1047.02   53.97
  -3   5  -8 1047.29   63.94
   3   5   8 1118.01   69.13
  -3  -5   8 1062.57   62.95
   3  -5  -8 1169.32   75.91
  -3   5  -8 1101.33   64.87
   3  -5  -8 1180.09   69.99
  -3  -5  -8 1304.92   49.45
  -3  -5  -8 1164.14   70.59
   3   5  -8 1129.84   81.96
   3   5  -8 1140.28   68.99
   3  -5   8 1084.44   86.68
   3  -5   8 1189.99   72.19
  -3   5   8 1392.59   76.11
  -3   5   8 1392.59   80.36
   3   5   9  730.69   28.98
   3   5   9  752.76   53.04
  -3  -5   9  765.79   43.01
  -3   5  -9  685.76   69.93
  -3  -5   9  741.79   44.87
  -3   5  -9  753.96   69.33
   3  -5  -9  733.42   83.55
   3  -5  -9  837.78   72.98
  -3  -5  -9  930.90   35.03
  -3  -5  -9  786.73   54.57
   3   5  -9  736.81   58.83
   3   5  -9  786.86   41.41
   3  -5   9  789.78   48.46
   3  -5   9  795.43   54.77
  -3   5   9  893.54   59.89
  -3   5   9  912.15   54.24
   3   5  10  615.24   45.66
   3   5  10  629.86   67.60
  -3  -5  10  622.48   28.78
  -3  -5  10  643.62   38.29
   3  -5 -10  641.23   52.18
  -3   5 -10  610.12   44.14
  -3   5 -10  644.08   42.14
   3  -5 -10  697.99   65.07
  -3  -5 -10  652.19   22.80
   3   5 -10  558.34   34.96
   3   5 -10  528.76   32.70
   3  -5  10  572.70   39.81
   3  -5  10  623.28   71.99
  -3   5  10  685.76   44.40
  -3   5  10  601.68   50.72
   3   5  11 1403.29  110.41
  -3  -5  11 1412.53   69.13
  -3   5 -11 1350.52  108.15
  -3  -5  11 1432.41   97.78
   3   5  11 1370.39   84.22
   3  -5 -11 1476.08   93.12
  -3   5 -11 1412.20   76.77
   3  -5 -11 1623.77  112.00
  -3  -5 -11 1594.19   59.02
  -3  -5 -11 1436.86   58.89
   3   5 -11 1397.64   81.23
   3   5 -11 1449.29   93.79
   3  -5  11 1444.04  112.80
   3  -5  11 1418.85   78.10
  -3   5  11 1703.33   90.20
  -3   5  11 1587.21  128.82
   3   5  12  437.70   60.69
   3   5  12  479.11   62.02
  -3  -5  12  425.40   19.48
  -3  -5  12  437.23   33.97
  -3   5 -12  433.18   37.55
   3  -5 -12  466.94   75.24
  -3   5 -12  440.02   48.46
   3  -5 -12  514.14   36.76
  -3  -5 -12  479.18   21.14
  -3  -5 -12  439.83   21.14
   3   5 -12  464.55   33.10
   3   5 -12  457.44   23.60
   3  -5  12  440.49   33.97
   3  -5  12  484.89   39.48
  -3   5  12  554.35   36.69
  -3   5  12  478.58   47.46
   3   5  13  223.40   29.51
  -3  -5  13  251.59   25.99
  -3  -5  13  224.80   11.10
  -3   5 -13  235.63   28.85
   3   5  13  236.16   29.31
  -3   5 -13  234.57   22.47
   3  -5 -13  267.67   38.15
   3  -5 -13  299.97   37.49
  -3  -5 -13  221.01   13.29
   3   5 -13  238.03   24.93
   3   5 -13  240.88   18.15
  -3  -5 -13  212.43   13.49
   3  -5  13  219.21   24.86
   3  -5  13  253.78   28.52
  -3   5  13  273.65   24.00
  -3   5  13  247.20   34.30
   3   5  14  374.42   36.09
   3   5  14  394.03   58.23
   3  -5 -14  445.67   45.00
  -3   5 -14  377.88   58.43
  -3   5 -14  368.50   28.18
   3  -5 -14  414.83   46.40
   3   5 -14  356.87   32.57
   3   5 -14  343.31   34.96
   3  -5  14  332.41   49.92
   3  -5  14  383.92   35.56
  -3   5  14  361.46   41.88
  -3   5  14  430.45   44.33
   3   5  15  481.30   41.34
   3   5  15  509.42   43.01
  -3   5 -15  495.26   32.84
   3  -5 -15  558.80   48.99
  -3   5 -15  495.86   41.88
   3  -5 -15  526.04   83.75
   3   5 -15  435.44   41.34
   3   5 -15  472.66   39.42
   3  -5  15  446.07   37.42
   3  -5  15  461.43   40.01
  -3   5  15  457.04   75.58
  -3   5  15  550.90   47.66
   3   5  16  146.43   43.27
   3  -5 -16  145.97   27.12
   3   5  16  124.16   19.81
  -3   5 -16  128.02   28.98
  -3   5 -16  136.66   26.52
   3  -5 -16  165.77   56.23
   3   5 -16  164.18   25.99
   3   5 -16  170.56   47.39
   3  -5  16  150.29   23.26
   3  -5  16  169.36   24.79
  -3   5  16  162.25   32.44
  -3   5  16  213.83   18.01
   3   5  17   -0.66   15.69
  -3   5 -17   54.70   19.87
   3   5  17   62.61   18.61
  -3   5 -17   57.89   19.14
   3  -5 -17   64.61   10.77
   3  -5 -17   60.02   24.00
   3   5 -17   55.10   19.01
   3   5 -17   63.28   20.47
   3  -5  17    2.86   28.12
   3  -5  17   51.11   17.02
  -3   5  17   49.19   22.60
  -3   5  17   14.36   13.09
   3   5  18   96.78   36.03
  -3   5 -18  110.01   24.33
  -3   5 -18   95.38   13.83
   3  -5 -18   96.65   23.26
   3   5 -18   71.65   44.47
   3   5 -18   82.16   24.33
   3  -5  18   95.65   36.69
   3  -5  18   94.05   21.27
  -3   5  18   78.30   27.65
   3   5  19  167.24   26.72
  -3   5 -19  184.12   30.64
  -3   5 -19  168.17   16.48
   3   5 -19  150.29   30.91
   3   5 -19  148.76   33.77
   3  -5  19  162.05   27.58
   3  -5  19  162.92   25.66
  -3   5  19  146.63   57.43
   3   5  20   32.17   16.09
   3   5  20   -0.47   13.69
  -3   5 -20   36.09   19.08
  -3   5 -20   36.62    8.77
   3  -5 -20    0.33    9.77
   3   5 -20   40.81   20.14
   3   5 -20   44.80   21.60
   3  -5  20   53.24   25.26
   3  -5  20   39.68   17.22
  -3   5  20   37.95   21.47
   3   5  21    9.44   16.15
   3   5  21   -0.53    4.45
  -3   5 -21    2.66   11.70
   3  -5 -21    8.44   15.29
   3  -5 -21    1.26    6.05
   3  -5  21   14.29   18.68
   3   6   0   54.70    7.78
  -3  -6   0   56.96   12.03
   3   6   0   49.39   19.87
  -3   6   0   67.60   19.81
  -3  -6   0   53.97   17.02
   3  -6   0   57.43   19.08
   3  -6   0   64.94   39.81
  -3   6   0   56.23   37.16
  -3  -6   1  145.90   11.63
   3   6   1  137.92   17.61
   3   6   1  150.55   45.13
  -3  -6   1  135.20   22.47
  -3   6  -1  160.19   28.25
  -3   6  -1  151.48   29.65
   3  -6  -1  158.20   31.64
   3  -6  -1  151.22   27.39
   3   6  -1  192.83   19.08
   3   6  -1  208.05   28.12
  -3  -6  -1  189.10   25.13
  -3  -6  -1  207.85   11.77
  -3   6   1  205.72   27.65
   3  -6   1  209.24   26.72
   3  -6   1  215.89   32.90
  -3   6   1  223.34   30.71
  -3  -6   2   84.48   15.95
   3   6   2   82.89   23.46
   3   6   2   82.22    9.04
  -3  -6   2   69.39   30.31
  -3   6  -2   82.36   38.22
  -3   6  -2   92.86   25.39
   3  -6  -2   90.40   45.00
   3  -6  -2   81.29   38.15
  -3  -6  -2  107.88   21.40
   3   6  -2  119.84   10.30
   3   6  -2  108.94   39.28
  -3   6   2  121.64   37.75
  -3  -6  -2  116.32   13.16
   3  -6   2  102.69   22.40
   3  -6   2  133.60   27.65
  -3   6   2  174.35   25.59
  -3  -6   3   56.50    8.18
  -3  -6   3   49.39   23.20
   3   6   3   47.86    7.11
   3   6   3   52.58   19.67
  -3   6  -3   47.86   33.77
  -3   6  -3   56.83   18.35
   3  -6  -3   55.57   18.28
   3  -6  -3   60.09   20.27
  -3  -6  -3   33.17   29.25
   3   6  -3   35.03   18.28
  -3  -6  -3   28.45    9.17
   3   6  -3   31.11    7.84
  -3   6   3   31.84   31.17
   3  -6   3   25.19   30.38
   3  -6   3   30.11   36.82
  -3   6   3   33.23   33.23
  -3  -6   4  221.67   15.69
  -3  -6   4  194.22   35.49
   3   6   4  220.94   51.18
   3   6   4  221.28   18.15
  -3   6  -4  213.43   28.05
  -3   6  -4  203.79   30.31
   3  -6  -4  233.04   29.84
   3  -6  -4  236.43   52.51
  -3  -6  -4  161.32   27.72
  -3  -6  -4  177.21   10.30
   3   6  -4  180.06   28.12
   3  -6   4  161.25   25.86
   3   6  -4  166.37   14.02
   3  -6   4  167.04   31.64
  -3   6   4  206.32   50.65
  -3   6   4  182.66   27.98
   3   6   5  204.92   53.04
  -3  -6   5  222.34   17.28
  -3  -6   5  197.08   35.76
   3   6   5  235.63   18.35
  -3   6  -5  189.64   49.45
  -3   6  -5  200.20   51.05
   3  -6  -5  207.65   50.25
   3  -6  -5  235.30   32.30
  -3  -6  -5  227.39   31.24
  -3  -6  -5  248.06   16.62
   3   6  -5  196.81   24.79
   3   6  -5  236.30   48.92
   3  -6   5  227.72   28.65
  -3   6   5  270.60   32.10
   3  -6   5  237.69   34.70
  -3   6   5  261.82   30.51
   3   6   6  304.49   36.29
   3   6   6  319.58   14.96
  -3  -6   6  282.69   38.09
  -3  -6   6  306.16   32.64
  -3   6  -6  317.12   34.43
  -3   6  -6  313.00   35.30
   3  -6  -6  333.14   34.10
   3  -6  -6  334.87   58.96
   3   6  -6  271.46   32.84
  -3  -6  -6  298.51   18.35
  -3  -6  -6  268.47   57.36
  -3   6   6  313.60   35.10
   3   6  -6  267.54   19.67
   3  -6   6  274.38   30.24
   3  -6   6  285.95   38.15
  -3   6   6  307.09   34.10
  -3  -6   7   64.74   11.70
  -3  -6   7   64.87   20.34
   3   6   7   70.79   20.87
   3   6   7   59.02    5.92
  -3   6  -7   71.45   19.54
  -3   6  -7   66.07   32.90
   3  -6  -7   79.10   35.10
   3  -6  -7   74.91   20.21
   3   6  -7   38.15   10.57
   3   6  -7   38.62   17.35
  -3  -6  -7   53.18   20.67
  -3   6   7   44.00   19.21
  -3  -6  -7   42.87    8.64
   3  -6   7   42.41   17.55
   3  -6   7   41.34   22.07
  -3   6   7   47.59   20.34
   3   6   8  590.24   24.00
  -3  -6   8  537.20   33.43
  -3  -6   8  653.66   51.98
   3   6   8  608.26   50.65
  -3   6  -8  612.51   47.79
  -3   6  -8  610.72   47.72
   3  -6  -8  650.93   50.72
   3  -6  -8  657.31   49.85
  -3  -6  -8  616.23   23.93
   3   6  -8  562.93   48.26
  -3  -6  -8  585.46   51.31
   3  -6   8  541.52   66.40
   3   6  -8  567.05   62.35
   3  -6   8  593.44   53.24
  -3   6   8  649.93   49.32
   3   6   9  273.79   35.30
  -3  -6   9  254.04   20.80
   3   6   9  278.31   12.50
  -3  -6   9  304.30   24.93
  -3   6  -9  247.86   33.17
  -3   6  -9  268.73   31.31
   3  -6  -9  310.41   54.11
   3  -6  -9  268.20   61.28
   3   6  -9  269.66   42.01
  -3  -6  -9  318.85   13.36
  -3   6   9  336.47   38.88
   3   6  -9  302.10   23.26
  -3  -6  -9  280.03   60.89
   3  -6   9  248.53   52.31
   3  -6   9  340.92   64.08
  -3   6   9  342.25   33.37
  -3  -6  10  701.65   38.88
  -3  -6  10  798.89   65.74
   3   6  10  766.19   60.35
  -3   6 -10  773.63   57.50
  -3   6 -10  781.68   80.56
   3  -6 -10  853.46   59.56
   3  -6 -10  806.53   62.41
   3   6 -10  749.97   64.21
   3   6 -10  790.91   45.66
  -3  -6 -10  837.04   64.94
  -3  -6 -10  904.91   34.23
  -3   6  10  954.36   66.73
   3  -6  10  802.15   55.04
   3  -6  10  927.51   99.30
  -3   6  10  959.55   60.29
   3   6  11  117.12   25.52
   3   6  11   -0.20   25.26
  -3  -6  11  115.99   18.74
  -3  -6  11  108.74   18.74
  -3   6 -11   90.80   42.47
  -3   6 -11  112.13   21.47
   3  -6 -11  126.29   46.00
   3  -6 -11  137.59   23.20
   3   6 -11  121.77   29.58
  -3   6  11  138.12   27.78
   3  -6  11  151.48   46.73
   3   6 -11  100.57   14.62
   3  -6  11  112.80   22.53
  -3   6  11  136.20   22.20
   3   6  12  897.07   67.27
   3   6  12  869.48   64.67
  -3  -6  12  899.72   56.43
  -3  -6  12  849.54   40.81
  -3   6 -12  881.71   64.21
  -3   6 -12  866.22   79.63
   3  -6 -12  985.27   62.02
   3  -6 -12  982.48   72.19
   3   6 -12  865.56   46.00
   3   6 -12  912.55   54.90
   3  -6  12  852.33   59.09
   3  -6  12  987.93  102.96
  -3   6  12 1125.72   65.67
  -3   6  12 1054.20   73.85
   3   6  13  244.01   33.50
  -3  -6  13  275.05   29.58
  -3  -6  13  239.16   21.47
   3   6  13  265.74   36.23
  -3   6 -13  231.18   35.10
  -3   6 -13  263.35   44.00
   3  -6 -13  275.05   44.60
   3  -6 -13  265.88   39.15
   3   6 -13  237.23   27.58
   3   6 -13  229.32   23.53
  -3   6  13  254.91   65.14
   3  -6  13  197.21   50.72
   3  -6  13  236.96   35.96
  -3   6  13  247.60   23.26
   3   6  14  718.93   59.76
   3   6  14  739.67   86.61
  -3  -6  14  783.94   55.83
  -3   6 -14  745.38   90.13
  -3   6 -14  729.10   49.25
   3  -6 -14  859.91   75.31
   3  -6 -14  806.40   98.44
   3   6 -14  747.84   52.38
  -3   6  14  841.50   68.20
   3  -6  14  700.58   54.04
   3  -6  14  823.48   63.48
   3   6  15  262.69   34.96
   3   6  15   22.40   39.15
  -3   6 -15  235.17   58.29
  -3   6 -15  252.18   25.92
   3  -6 -15  297.58   67.53
   3  -6 -15  287.74   43.07
   3   6 -15  248.59   30.64
   3  -6  15  228.06   31.84
   3  -6  15  265.01   35.76
  -3   6  15  306.42   40.41
   3   6  16 1004.88   75.04
  -3   6 -16 1000.96   75.58
  -3   6 -16 1005.01   79.16
   3  -6 -16 1254.20   91.26
   3   6 -16  998.70   73.78
   3   6 -16 1010.86   70.66
   3  -6  16  997.97   98.24
   3  -6  16 1103.58   79.23
  -3   6  16 1175.44  122.50
   3   6  17  206.98   33.23
  -3   6 -17  197.88   33.90
  -3   6 -17  193.96   35.36
   3  -6 -17  233.04   34.70
   3   6 -17  173.28   55.83
   3   6 -17  160.92   31.71
   3  -6  17  152.01   29.58
   3  -6  17  187.18   51.51
  -3   6  17  174.28   64.34
   3   6  18  808.33   65.54
  -3   6 -18  805.94   68.26
  -3   6 -18  785.60   47.86
   3   6 -18  819.43   66.27
   3   6 -18  784.87   69.19
   3  -6  18  956.29   98.64
   3  -6  18  815.04   64.01
  -3   6  18  934.95   77.04
   3   6  19  228.59   54.90
  -3   6 -19  196.75   20.54
  -3   6 -19  207.98   38.55
   3   6 -19  218.35   37.02
   3  -6  19  213.50   34.96
   3  -6  19  241.88   34.17
  -3   6  19  229.45   39.55
   3   7   0 2025.98  109.14
  -3  -7   0 2042.93  109.14
   3  -7   0 2220.60  133.07
  -3  -7   0 2065.59  126.42
   3   7   0 2030.36  134.13
   3  -7   0 2236.62  146.70
  -3   7   0 2190.09  133.20
  -3   7   0 2415.55  192.69
  -3  -7   1   14.02    7.78
   3   7   1   21.00   20.47
   3   7   1   14.56   13.09
   3  -7  -1   16.42   38.55
  -3  -7   1   19.14   28.58
  -3   7  -1   97.11   20.47
  -3   7  -1   24.59   21.47
  -3  -7  -1   17.22    7.11
   3   7  -1   20.61   34.83
  -3  -7  -1   28.12   18.54
   3   7  -1   29.78    7.98
   3  -7   1   20.07   18.94
   3  -7   1   18.35   22.67
  -3   7   1   23.26   19.01
  -3   7   1   24.19   21.47
   3   7   2 2331.87  151.02
  -3  -7   2 2341.90  173.35
  -3  -7   2 2332.86  128.82
   3   7   2 2359.72  112.86
   3  -7  -2 2475.31  157.40
  -3   7  -2 2478.30  153.08
  -3   7  -2 2533.80  161.79
   3  -7  -2 2606.18  152.81
   3  -7   2 2271.05  175.28
  -3  -7  -2 2401.39  122.64
   3   7  -2 2340.11  149.89
   3   7  -2 2269.58  110.80
  -3  -7  -2 2362.04  145.97
   3  -7   2 2488.47  211.97
  -3   7   2 2775.95  168.23
  -3   7   2 2435.09  143.91
  -3  -7   3   44.67   10.97
   3   7   3   54.70   43.54
   3  -7  -3  138.39   25.59
  -3  -7   3   41.61   33.70
   3   7   3   53.11   16.15
  -3   7  -3  168.57   43.67
  -3   7  -3   52.44   45.80
   3  -7  -3   68.46   26.59
   3   7  -3   -1.73   41.14
  -3  -7  -3   54.90   41.81
  -3  -7  -3   43.27   14.09
   3   7  -3   48.79   10.97
   3  -7   3   94.59   24.06
   3  -7   3   66.73   28.91
  -3   7   3  146.30   43.07
  -3   7   3   58.49   43.94
  -3  -7   4 1962.90   99.17
   3   7   4 2193.74   99.50
   3   7   4 1977.52  133.34
  -3  -7   4 1957.45  145.23
   3  -7  -4 2238.61  169.36
  -3   7  -4 2070.91  130.01
  -3   7  -4 2005.70  133.94
   3  -7  -4 2144.89  180.13
  -3  -7  -4 2227.58   99.24
   3  -7   4 2089.85  128.62
   3   7  -4 2062.53  133.47
   3   7  -4 2046.78  101.17
  -3  -7  -4 2132.13  173.48
   3  -7   4 2188.69  147.69
  -3   7   4 2338.11  135.40
  -3   7   4 2623.33  194.62
   3   7   5   40.15   24.79
  -3  -7   5   33.83   11.23
   3   7   5   46.66   12.56
  -3  -7   5   46.59   27.92
  -3   7  -5   52.91   23.26
  -3   7  -5   39.95   23.86
   3  -7  -5   52.31   21.93
   3  -7  -5   46.06   23.80
  -3  -7  -5   45.53   23.40
  -3  -7  -5   42.34   11.90
   3   7  -5   34.50   18.01
   3   7  -5    1.20   35.49
   3  -7   5   37.42   21.87
   3  -7   5   49.32   26.65
  -3   7   5   54.64   23.00
  -3   7   5   51.58   20.67
   3   7   6 1790.28   86.87
   3   7   6 1486.18  108.28
  -3  -7   6 1443.91   76.37
  -3  -7   6 1351.38  107.55
   3  -7  -6 1561.02  141.18
  -3   7  -6 1479.67   99.17
  -3   7  -6 1400.64  100.10
   3  -7  -6 1510.51  130.88
  -3  -7  -6 1615.13  109.28
   3   7  -6 1507.25   77.50
   3   7  -6 1629.49  105.15
  -3  -7  -6 1709.58   72.98
   3  -7   6 1503.33  132.41
   3  -7   6 1722.15  164.44
  -3   7   6 1862.46  115.72
  -3   7   6 1709.18  103.43
  -3  -7   7   34.23   12.03
   3   7   7   40.15    6.78
   3   7   7   34.17   23.33
   3  -7  -7   31.44   20.94
  -3  -7   7   25.66   23.53
  -3   7  -7   33.97   21.80
  -3   7  -7   33.04   21.34
   3  -7  -7   41.41   20.74
   3   7  -7   37.75   11.17
  -3  -7  -7   21.80   40.28
  -3  -7  -7   21.14   10.10
   3   7  -7   23.00   18.74
   3  -7   7   25.66   19.54
   3  -7   7   28.32   42.01
  -3   7   7   39.55   21.14
  -3   7   7   19.81   36.09
  -3  -7   8 1248.49   92.39
  -3  -7   8 1342.61   74.38
   3   7   8 1339.88   97.64
   3  -7  -8 1521.68   99.17
  -3   7  -8 1394.52   94.92
  -3   7  -8 1294.15   90.46
   3  -7  -8 1387.01  125.16
   3   7  -8 1350.12   90.46
  -3  -7  -8 1332.90   56.83
   3   7  -8 1403.96   88.80
  -3  -7  -8 1461.92  103.36
   3  -7   8 1349.79   89.13
   3  -7   8 1492.10  148.76
  -3   7   8 1694.10  104.22
  -3   7   8 1620.58   99.84
  -3  -7   9   19.61   11.50
  -3  -7   9   22.53   21.47
   3   7   9   42.14   21.74
  -3   7  -9   15.15   20.54
  -3   7  -9   43.87   19.08
   3  -7  -9   16.95   20.47
   3  -7  -9   29.11   19.28
  -3  -7  -9   32.30   22.47
   3   7  -9   28.98   11.63
   3   7  -9   29.84   25.86
   3  -7   9   26.85   33.37
   3  -7   9   28.05   23.26
  -3   7   9   -0.07   18.48
  -3   7   9   32.10   20.01
   3   7  10 1275.47   94.32
  -3  -7  10 1163.21   65.27
  -3  -7  10 1276.60   73.98
   3  -7 -10 1354.31   89.80
  -3   7 -10 1258.32   88.14
  -3   7 -10 1238.32   85.08
   3  -7 -10 1397.91   92.06
  -3  -7 -10 1265.30  136.66
   3   7 -10 1187.93   99.30
   3   7 -10 1147.45   66.54
   3  -7  10 1157.49   82.09
   3  -7  10 1335.83   99.57
  -3   7  10 1474.42   87.61
  -3   7  10 1372.39   91.20
   3   7  11   23.80   20.01
  -3  -7  11   22.60    9.51
   3  -7 -11   25.52   19.54
  -3  -7  11  107.02   19.87
  -3   7 -11   39.08   31.64
  -3   7 -11   24.59   28.45
   3  -7 -11   31.44   28.12
   3   7 -11   14.22   18.81
   3   7 -11   15.69   21.47
  -3  -7 -11   21.87   21.74
   3  -7  11   17.55   20.87
   3  -7  11   24.26   17.55
  -3   7  11    0.00    7.18
  -3   7  11   13.43   33.23
   3   7  12  711.22   64.54
  -3  -7  12  677.98   50.25
   3  -7 -12  808.66   85.75
  -3   7 -12  673.07   58.89
  -3   7 -12  675.46   54.11
   3  -7 -12  787.72   63.34
   3   7 -12  656.32   46.40
   3   7 -12  603.01   54.44
   3  -7  12  639.76   55.97
   3  -7  12  777.16  101.23
  -3   7  12  804.87   64.81
   3   7  13   43.14   25.59
   3   7  13   46.73   25.46
  -3  -7  13   48.66    9.77
  -3   7 -13   46.26   24.66
  -3   7 -13   44.33   19.21
   3  -7 -13   76.31   21.27
   3  -7 -13   56.96   19.94
   3   7 -13   75.44   18.28
   3  -7  13   68.33   39.62
   3  -7  13   86.21   44.87
  -3   7  13   95.38   26.72
   3   7  14  403.33   49.79
  -3   7 -14  409.12   78.77
  -3   7 -14  396.82   60.49
   3  -7 -14  459.23   40.81
   3   7 -14  423.54   39.55
   3  -7  14  398.35   45.07
   3  -7  14  461.96   82.09
  -3   7  14  494.99   51.78
   3   7  15   -1.26    7.51
   3  -7 -15   -0.60    6.91
  -3  -7  15    0.66    5.78
   3   7  15   33.37   16.42
  -3   7 -15   35.56   11.77
  -3   7 -15   36.43   29.18
   3  -7 -15   42.27   21.00
   3   7 -15   27.19   13.56
   3  -7  15   20.47   15.22
   3  -7  15   31.31   29.65
  -3   7  15    0.93    9.31
   3   7  16  222.07   40.48
  -3   7 -16  226.93   41.61
  -3   7 -16  238.49   28.58
   3  -7 -16  303.17   51.65
   3   7 -16  280.10   59.42
   3  -7  16  288.21   63.48
   3  -7  16  331.55   44.33
  -3   7  16  333.21   45.07
   3   7  17   23.33   17.35
   3   7  17   -0.27   14.96
  -3   7 -17   24.33   18.21
  -3   7 -17   19.28   18.54
   3  -7 -17    1.06    8.77
   3  -7 -17   32.70   20.07
   3   7 -17   20.47   26.32
   3  -7  17   44.20   17.55
  -3   7  17   38.68   18.61
  -3   7  17    0.73    5.65
   3   8   0    1.93   10.50
  -3  -8   0    3.99    9.97
  -3  -8   0    5.65   14.96
   3   8   0    1.86   16.48
   3  -8   0    7.31   14.69
   3  -8   0    2.99   30.18
  -3   8   0    4.79   14.42
  -3   8   0    1.46   30.91
   3   8   1   36.82   10.30
   3   8   1   32.64   47.06
  -3  -8   1   33.63   23.06
  -3   8  -1   33.90   24.39
  -3  -8   1   40.15   10.04
   3  -8  -1   39.75   39.22
  -3   8  -1   46.99   28.71
   3  -8  -1   40.21   27.78
   3   8  -1   48.12   26.59
  -3  -8  -1   52.58   25.32
  -3  -8  -1   54.84    9.64
   3   8  -1   54.04   18.15
   3  -8   1   57.96   22.93
   3  -8   1   53.71   28.32
  -3   8   1   61.95   41.08
  -3   8   1   59.62   28.45
   3   8   2   30.91    9.17
   3   8   2   31.04   26.65
  -3  -8   2   30.84   36.69
  -3  -8   2   79.10   15.82
  -3   8  -2   32.97   41.01
  -3   8  -2   42.74   28.38
   3  -8  -2   42.01   22.13
   3  -8  -2   35.56   26.45
  -3  -8  -2   34.17   14.56
   3   8  -2   35.96   17.95
   3   8  -2   -0.60   43.47
  -3  -8  -2   39.02   24.73
   3  -8   2   34.70   39.28
   3  -8   2   38.49   26.65
  -3   8   2   38.42   21.54
  -3   8   2   42.81   26.85
  -3  -8   3   80.23   41.21
   3   8   3   76.51   30.71
  -3   8  -3   91.79   28.25
   3   8   3   83.62   17.02
  -3  -8   3   46.40    9.51
   3  -8  -3   81.49   42.07
  -3   8  -3   80.16   54.04
   3  -8  -3   84.02   51.78
  -3  -8  -3   69.19   49.05
  -3  -8  -3   68.13    9.64
   3   8  -3   60.22   12.23
   3   8  -3   -0.53   27.58
   3  -8   3   68.93   26.06
   3  -8   3   67.27   52.31
  -3   8   3   73.32   24.53
  -3   8   3   81.49   29.51
   3   8   4  123.23   18.28
  -3  -8   4  119.05   45.00
   3   8   4  117.32   35.89
  -3   8  -4  121.70   34.50
  -3   8  -4  106.35   51.51
   3  -8  -4  129.75   32.50
   3  -8  -4  119.11   28.65
   3   8  -4   -0.33   53.57
  -3  -8  -4  101.63   55.77
  -3  -8  -4   99.17   17.41
   3   8  -4   84.48   14.36
   3  -8   4   94.45   61.48
   3  -8   4   91.06   29.31
  -3   8   4   97.11   48.32
  -3   8   4  123.43   57.03
   3   8   5   10.50   34.50
  -3   8  -5    4.99   17.15
  -3  -8   5   -0.60    4.25
  -3  -8   5    5.12   24.06
  -3   8  -5    6.71   19.21
   3  -8  -5    7.44   18.28
   3  -8  -5   13.09   28.32
  -3  -8  -5   21.54    9.11
   3   8  -5   18.54    8.24
   3   8  -5    1.06   16.88
  -3  -8  -5   23.00   19.01
   3  -8   5   18.35   29.38
   3  -8   5   20.34   20.61
  -3   8   5   26.39   32.24
  -3   8   5   25.39   15.42
  -3  -8   6  227.46   51.58
   3  -8  -6  268.27   37.69
   3   8   6  218.08   78.70
  -3   8  -6  212.37   65.60
  -3   8  -6  223.40   70.59
   3  -8  -6  244.27   70.99
   3   8  -6  260.23   64.94
  -3  -8  -6  236.76   44.93
   3   8  -6  219.61   35.49
   3  -8   6  233.90   39.55
   3  -8   6  237.69   46.53
  -3   8   6  265.21   43.27
  -3   8   6  224.73   37.22
  -3  -8   7  180.20   44.07
  -3   8  -7  189.24   38.22
   3   8   7  202.66   44.20
  -3   8  -7  216.22   39.68
   3  -8  -7  174.75   57.70
   3  -8  -7  219.55   39.48
  -3  -8  -7  188.97   72.72
   3   8  -7  167.57   20.94
   3   8  -7  209.38   35.30
   3  -8   7  158.46   37.29
   3  -8   7  194.82   43.54
  -3   8   7  224.20   39.02
  -3   8   7  163.11   58.29
  -3  -8   8  207.38   45.60
   3   8   8  240.88   47.53
  -3   8  -8  214.10   69.66
  -3   8  -8  238.69   66.93
   3  -8  -8  246.67   68.26
   3  -8  -8  252.91   39.08
   3   8  -8  217.82   39.75
  -3  -8  -8  260.23   47.46
   3   8  -8  272.59   36.76
   3  -8   8  231.58   40.88
   3  -8   8  261.62   47.66
  -3   8   8  243.14   31.11
  -3   8   8  275.58   39.22
  -3  -8   9   94.45   21.27
  -3   8  -9   97.38   34.50
   3   8   9  126.62   37.49
  -3   8  -9  112.27   32.24
   3  -8  -9  132.41   30.04
   3  -8  -9  131.61   32.90
   3   8  -9  121.24   20.07
  -3  -8  -9  149.02   39.28
   3   8  -9  143.84   45.93
   3  -8   9  130.28   33.30
   3  -8   9  146.36   38.49
  -3   8   9  141.58   31.71
  -3  -8  10  467.94   38.55
   3   8  10  487.08   63.54
  -3   8 -10  525.84   60.09
  -3   8 -10  481.70   84.02
   3  -8 -10  539.13   54.77
   3   8 -10  523.71   60.89
  -3  -8 -10  557.61  109.34
   3   8 -10  520.85   44.80
   3  -8  10  597.62   66.47
   3  -8  10  538.20   91.26
  -3   8  10  631.66   57.36
  -3  -8  11  146.43   21.47
   3   8  11  159.26   40.61
  -3   8 -11  134.33   63.48
  -3   8 -11  152.41   33.63
   3  -8 -11  183.99   56.76
   3   8 -11  162.98   24.53
  -3  -8 -11  208.25   44.14
   3   8 -11  168.23   24.59
   3  -8  11  196.68   41.41
   3  -8  11  169.63   36.82
  -3   8  11  182.39   61.82
   3   8  12  480.24   53.64
  -3  -8  12  400.87   45.53
  -3   8 -12  416.10   55.17
  -3   8 -12  419.42   47.86
   3  -8 -12  512.34   49.92
   3   8 -12  391.17   34.63
   3   8 -12  417.69   39.42
  -3  -8 -12  468.27   64.28
   3  -8  12  493.80   59.62
   3  -8  12  431.45   51.91
  -3   8  12  507.03   53.71
   3   8  13  121.97   36.29
  -3   8 -13  114.53   37.62
  -3   8 -13  162.25   49.85
   3  -8 -13  153.94   48.46
   3   8 -13  128.42   25.79
   3  -8  13  103.43   58.23
   3  -8  13  151.02   37.89
  -3   8  13  131.08   35.16
   3   8  14  616.63   69.19
  -3   8 -14  665.49   70.12
  -3   8 -14  630.99   56.90
   3  -8 -14  724.98   88.20
   3   8 -14  608.19   80.89
   3  -8  14  712.28   71.59
  -3   8  14  764.99  104.16
  -3   9   0  431.18   91.39
   3   9   0  342.65   28.38
   3   9   0  382.20   59.42
  -3  -9   0  380.20   58.83
   3  -9   0  431.58   55.37
  -3   9   0  447.07   64.74
   3  -9   0  362.92  101.10
   3   9   1  833.92   87.94
  -3  -9   1  887.10   84.48
   3   9   1  785.07   46.59
  -3   9  -1  871.61   82.22
  -3   9  -1 1039.38   99.30
   3  -9  -1  996.77   80.10
   3  -9  -1  907.10   91.00
   3   9  -1  876.26   85.81
   3  -9   1  932.76   82.69
   3   9  -1  761.73   47.26
  -3  -9  -1  914.88   90.13
   3  -9   1  866.29  142.38
  -3   9   1  889.69   80.49
  -3   9   1 1000.49  147.96
  -3  -9   2  578.28   67.20
   3   9   2  543.32  120.38
  -3   9  -2  611.58   70.92
  -3   9  -2  681.37   82.62
   3  -9  -2  718.60   70.12
   3  -9  -2  603.87   75.04
  -3   9   2  602.54  102.83
  -3  -9  -2  630.26  118.71
   3   9  -2  607.46   71.12
   3   9  -2  566.18   38.62
   3  -9   2  699.12  112.60
   3  -9   2  608.32   77.97
  -3   9   2  737.67   81.23
  -3  -9   3  676.12   70.79
   3   9   3  666.62   82.75
  -3   9  -3  684.56   76.51
  -3   9  -3  793.31  134.47
   3  -9  -3  743.26   70.72
   3  -9  -3  745.98  127.09
  -3  -9  -3  757.35  125.83
   3   9  -3  748.71   78.90
   3   9  -3  670.41   62.02
   3  -9   3  730.23   74.38
  -3   9   3  763.93   71.65
   3  -9   3  750.97   83.68
  -3   9   3  885.37   87.94
  -3  -9   4  274.98   46.99
   3   9   4  249.92   59.29
  -3   9  -4  302.17   56.57
  -3   9  -4  312.74   59.82
   3  -9  -4  380.27   50.05
   3  -9  -4  309.21   56.96
   3   9  -4  367.57   84.42
  -3  -9  -4  334.94   58.56
   3   9  -4  314.86   45.33
   3  -9   4  348.90   59.69
  -3   9   4  350.36   48.85
  -3   9   4  398.88   58.63
   3  -9   4  337.46   87.61
  -3  -9   5  813.85   71.45
   3   9   5  798.49   90.66
  -3   9  -5  864.96   85.68
  -3   9  -5  917.01   91.39
   3  -9  -5  914.15   87.54
   3  -9  -5  576.88   52.18
  -3  -9  -5  871.48   91.13
   3   9  -5  889.75   80.69
   3   9  -5  751.17   49.59
   3  -9   5  785.60   79.63
   3  -9   5  788.72   86.48
  -3   9   5  949.84   86.68
  -3   9   5  850.60  113.86
  -3  -9   6  481.83   53.04
   3   9   6  463.16   72.78
  -3   9  -6  481.30   64.74
  -3   9  -6  522.05   68.40
   3  -9  -6  543.78   67.13
   3   9  -6  466.08   54.90
   3  -9   6  496.39   64.81
   3   9  -6  604.80   96.51
  -3  -9  -6  554.09   74.64
   3  -9   6  536.07  111.67
  -3   9   6  392.70   72.38
  -3   9   6  564.19   59.36
   3   9   7  516.46  116.52
  -3  -9   7  487.08   50.92
  -3   9  -7  473.53   65.27
  -3   9  -7  524.71   67.60
   3  -9  -7  551.03   67.33
  -3  -9  -7  526.57  117.52
   3  -9   7  467.61   64.81
   3   9  -7  569.84   60.35
   3   9  -7  456.44   38.02
   3  -9   7  523.71  112.80
  -3   9   7  529.09   58.03
  -3  -9   8  238.36   34.96
   3   9   8  256.37   89.93
  -3   9  -8  190.10   79.96
  -3   9  -8  216.36   77.64
   3  -9  -8  248.26   74.98
   3   9  -8  223.20   27.72
   3   9  -8  250.39   38.75
  -3  -9  -8  270.99   55.77
   3  -9   8  225.00   48.52
   3  -9   8  291.60   88.34
  -3   9   8  265.08   73.18
  -3  -9   9  551.23   49.98
  -3   9  -9  527.90   68.66
  -3   9  -9  518.79   66.00
   3  -9  -9  625.54   66.07
  -3  -9  -9  597.22   79.23
   3   9  -9  564.12   82.82
   3   9  -9  503.30   43.34
   3  -9   9  617.23  116.72
  -3   9   9  618.89   62.61
  -3  -9  10  221.14   30.51
  -3   9 -10  215.36   69.39
   3  -9 -10  240.15   69.46
   3   9 -10  204.39   33.43
   3   9 -10  200.74   46.06
   3  -9  10  207.38   81.82
  -3   9  10  212.10   40.81
  -3 -10   0   29.84   41.34
  -3 -10   0    5.65    8.11
  -3 -10   1    0.27    3.46
  -3 -10   1    6.18   15.49
   3  10  -1   -2.53   11.43
  -3 -10   2    1.60    4.59
   3  10  -2   22.80   15.89
   4   0   0 5116.78  241.02
   4   0   0 4054.88  204.06
  -4   0   0 5075.77  239.69
   4   0   1    3.26    8.97
   4   0   1    8.44    4.25
  -4   0  -1    3.72    4.99
  -4   0  -1    9.24    3.39
   4   0  -1    2.66    4.72
  -4   0   1   10.10    7.05
  -4   0   1    3.79    4.52
   4   0   2 4047.70  191.90
  -4   0  -2 4119.48  193.09
  -4   0  -2 3984.55  188.97
   4   0  -2 4281.73  195.62
   4   0  -2 3890.70  204.72
  -4   0   2 4142.22  192.03
  -4   0   2 4334.71  198.74
   4   0   2 4220.45  197.28
  -4   0   3   24.13    5.78
   4   0   3   13.83    6.98
   4   0   3   14.96    5.72
  -4   0  -3   11.96   11.90
  -4   0  -3   18.01    3.92
   4   0  -3   10.37    8.38
   4   0  -3   29.98    7.05
  -4   0   3   12.23    4.72
   4   0   4 6470.16  324.04
   4   0   4 7313.45  379.01
  -4   0  -4 6665.91  348.56
  -4   0  -4 6572.46  331.75
   4   0  -4 6542.15  348.70
   4   0  -4 6857.54  347.50
  -4   0   4 7023.51  363.98
  -4   0   4 7131.79  359.07
   4   0   5   31.64    4.99
   4   0   5   27.25    8.44
  -4   0  -5   28.58    8.38
  -4   0  -5   28.05    8.38
   4   0  -5   25.52    4.99
   4   0  -5   26.52   14.49
  -4   0   5   24.00    7.78
  -4   0   5   46.59   12.96
   4   0   6 3780.29  180.80
   4   0   6 3828.68  167.17
  -4   0  -6 3755.90  178.74
  -4   0  -6 3546.06  173.35
   4   0  -6 3858.92  170.56
   4   0  -6 3741.81  183.39
  -4   0   6 4027.29  176.01
  -4   0   6 3820.64  182.72
  -4   0   7  254.24   18.74
   4   0   7  258.37   19.21
   4   0   7  280.77   12.89
  -4   0  -7  263.68   19.01
  -4   0  -7  251.72   17.75
   4   0  -7  266.87   16.15
   4   0  -7  252.12   20.07
  -4   0   7  261.36   15.15
   4   0   8 3532.63  152.28
  -4   0  -8 3446.29  164.71
  -4   0  -8 3270.01  154.01
   4   0  -8 3434.25  153.61
   4   0  -8 3417.84  169.70
  -4   0   8 3450.94  184.92
  -4   0   8 3622.36  152.95
   4   0   8 3462.44  166.11
   4   0   9  106.22    8.38
   4   0   9  108.28   13.76
  -4   0  -9  109.34    7.71
  -4   0  -9  107.02   22.27
   4   0  -9  109.81    8.97
   4   0  -9  109.47   26.32
  -4   0   9  108.15    5.25
  -4   0   9   98.44   14.02
   4   0 -10 1454.41   53.51
   4   0  10 1402.03   67.40
   4   0  10 1552.52   56.90
  -4   0 -10 1419.38   67.33
  -4   0 -10 1497.55   67.27
   4   0 -10 1511.97   53.18
   4   0 -10 1433.27   91.79
  -4   0  10 1361.55   48.39
   4   0 -11   38.95   11.90
   4   0  11   36.29   18.08
   4   0  11   38.02    4.25
  -4   0 -11   36.09    9.84
  -4   0 -11   35.10    9.70
   4   0 -11   36.56    3.59
   4   0 -11   34.76    5.18
   4   0 -11   34.76   12.63
   4   0  12 1228.55   62.08
   4   0  12 1330.44   56.17
  -4   0 -12 1277.14   52.78
  -4   0 -12 1200.76   59.42
   4   0 -12 1163.27   82.89
   4   0 -12 1246.36   69.06
   4   0  13   53.91    5.85
   4   0  13   40.94   11.96
  -4   0 -13   45.93   11.57
  -4   0 -13   55.83    7.18
   4   0 -13   48.46   15.22
   4   0 -13   55.30   15.95
   4   0 -14  971.31   60.22
  -4   0 -14  895.27   34.90
  -4   0 -14  997.43   51.85
   4   0 -14 1016.24   82.82
   4   0  14  906.57   65.21
   4   0  15  119.05   16.35
   4   0  15  122.90   14.42
  -4   0 -15  116.72    8.11
  -4   0 -15  130.55   10.97
   4   0 -15  134.73   23.40
   4   0 -15  128.62   22.13
   4   0  16  591.44   36.69
  -4   0 -16  602.81   32.04
  -4   0 -16  659.57   31.17
   4   0 -16  651.13   49.85
   4   0 -16  653.86   72.12
   4   0  16  580.01   33.43
   4   0  17   76.64   12.56
   4   0  17   72.65   23.86
  -4   0 -17   80.16   12.23
  -4   0 -17   93.26   17.28
   4   0 -17   90.40   22.20
   4   0 -17   87.67   23.06
   4   0 -18  309.88   60.69
   4   0  18  285.75   23.60
  -4   0 -18  266.21   14.82
  -4   0 -18  297.98   28.25
   4   0 -18  311.87   36.09
   4   0  18  271.13   20.67
   4   0  19   72.92   22.93
  -4   0 -19   66.40   13.03
  -4   0 -19   68.93   17.28
   4   0 -19   83.95   23.33
   4   0 -19   75.64   42.54
   4   0  20   29.91   11.43
  -4   0 -20   32.44   14.76
   4   0 -20   42.74   20.94
   4   0 -20   38.42   38.55
   4   0  21   79.56   24.19
  -4   0 -21   77.24   19.08
   4   0 -21  113.40   46.59
   4   0 -21   94.05   29.51
   4   0  22    2.99    5.85
   4   0  22   35.36    9.84
   4   0 -22   39.02   19.28
   4   0 -22   36.43   20.41
   4   0  23   31.31   19.14
   4   0 -23   37.22   42.67
   4  -1   0    7.71    6.18
   4  -1   0    8.77    5.45
  -4   1   0    3.32    9.51
   4   1   0    7.11    3.39
  -4  -1   0    8.77    2.53
  -4  -1   0    9.31    4.85
   4   1   0    6.45    4.79
  -4   1   0    8.31    9.04
  -4  -1   1  251.52   14.42
   4   1   1  249.26   15.22
  -4   1  -1  247.53   15.75
  -4   1  -1  212.63   15.49
   4  -1  -1  223.67   31.44
   4  -1  -1  244.47   15.29
   4   1   1  202.13   14.62
  -4  -1   1  240.02   14.62
  -4   1   1  283.42   15.35
   4  -1   1  289.34   17.08
  -4   1   1  263.82   25.52
  -4  -1  -1  290.34   12.56
  -4  -1  -1  303.56   16.55
   4   1  -1  288.48   21.54
   4   1  -1  273.72   18.21
   4  -1   1  269.66   16.88
   4   1   2   99.37    7.38
  -4   1  -2   89.27   10.37
  -4   1  -2   84.15   10.04
   4  -1  -2   89.73   13.29
   4  -1  -2   86.01   15.02
   4   1   2   94.78    9.97
  -4  -1   2   92.86    8.18
  -4  -1   2   88.47    6.51
   4  -1   2   80.69    8.97
   4  -1   2   89.07   18.21
  -4   1   2   78.30   10.30
  -4  -1  -2   86.08    5.92
  -4  -1  -2   83.02    9.84
   4   1  -2   79.36    7.71
   4   1  -2   73.32    7.31
  -4   1   2   77.30    8.38
  -4   1  -3  424.21   32.90
  -4   1  -3  428.73   32.57
   4  -1  -3  404.73   25.92
   4  -1  -3  415.56   19.81
   4   1   3  452.79   14.02
  -4  -1   3  430.85   18.61
   4   1   3  434.51   22.53
  -4   1   3  346.04   17.55
   4  -1   3  357.20   17.22
  -4   1   3  326.56   21.07
  -4  -1  -3  368.77   12.76
  -4  -1  -3  362.52   20.94
   4   1  -3  339.92   22.00
   4   1  -3  351.89   17.75
   4  -1   3  348.83   21.47
   4   1   4  824.68   24.00
  -4   1  -4  792.78   36.96
  -4   1  -4  735.08   36.29
   4  -1  -4  729.36   39.81
   4  -1  -4  734.55   31.44
   4   1   4  781.81   36.49
   4  -1   4  736.81   36.29
   4  -1   4  749.17   29.65
  -4   1   4  720.79   30.04
  -4   1   4  719.79   36.69
  -4  -1  -4  729.43   22.40
  -4  -1  -4  747.31   35.83
   4   1  -4  730.16   29.31
   4   1  -4  719.79   28.25
   4   1  -4  731.23   41.68
   4   1  -4  768.98   31.44
  -4   1  -5  268.53   19.48
  -4   1  -5  272.39   27.78
   4  -1  -5  264.35   22.53
   4  -1  -5  272.59   15.15
   4   1   5  277.84   19.81
   4  -1   5  335.80   21.34
  -4   1   5  329.75   15.02
   4  -1   5  344.71   14.49
  -4   1   5  329.35   21.60
  -4  -1  -5  355.94   21.20
  -4  -1  -5  339.32    9.37
   4   1  -5  351.16   20.41
   4   1  -5  370.96   17.95
   4   1  -5  340.25   13.76
   4   1  -5  344.31   27.72
   4   1   6  407.85   24.66
  -4   1  -6  384.66   35.16
  -4   1  -6  388.05   21.00
   4  -1  -6  386.12   18.74
   4  -1  -6  382.46   26.72
   4   1   6  452.52   11.96
  -4   1   6  442.95   18.54
   4  -1   6  450.26   17.88
   4  -1   6  450.00   25.92
  -4  -1  -6  467.14   25.92
   4   1  -6  446.34   16.62
   4   1  -6  467.54   18.41
   4   1  -6  441.22   30.31
   4   1  -6  444.41   24.00
  -4   1  -7  486.49   23.20
  -4   1  -7  459.43   25.39
   4  -1  -7  455.91   28.85
   4  -1  -7  439.56   25.26
   4   1   7  464.02   25.79
   4  -1   7  422.81   22.60
   4  -1   7  420.48   25.46
  -4   1   7  404.53   26.65
  -4  -1  -7  350.03   23.86
  -4  -1  -7  370.96   11.17
   4   1  -7  407.19   16.09
   4   1  -7  416.10   22.40
   4   1  -7  405.93   15.02
   4   1  -7  401.01   23.93
  -4   1   7  408.25   16.82
  -4   1  -8 1163.14   60.55
  -4   1  -8 1079.19   66.20
   4  -1  -8 1077.73   56.83
   4  -1  -8 1020.23   41.28
   4   1   8 1107.44   68.00
   4   1   8 1089.63   51.85
   4  -1   8 1134.36   54.84
  -4   1   8 1104.65   56.37
  -4   1   8 1156.56   48.92
  -4  -1  -8 1113.16   35.43
  -4  -1  -8 1064.57   38.42
   4   1  -8 1162.81   46.59
   4   1  -8 1127.78   51.51
   4   1  -8 1094.94   42.61
   4   1  -8 1141.07   69.13
   4  -1   8 1160.62   50.72
  -4   1  -9  238.69   22.67
  -4   1  -9  237.16   18.54
   4  -1  -9  239.02   22.40
   4  -1  -9  229.05   17.35
   4   1   9  233.77   18.28
   4   1   9  241.81   30.97
   4  -1   9  232.31   19.87
   4  -1   9  239.75   11.57
  -4   1   9  233.44   21.60
  -4  -1  -9  234.70    8.31
  -4  -1  -9  235.83   11.17
   4   1  -9  234.17    9.37
   4   1  -9  250.65   11.83
   4   1  -9  245.54   31.84
   4   1  -9  249.66   27.98
  -4   1   9  242.28   10.37
  -4   1 -10  585.99   44.53
  -4   1 -10  639.76   38.09
   4  -1 -10  581.67   55.63
   4  -1 -10  612.25   30.51
   4   1  10  581.60   33.10
   4   1  10  564.39   43.60
  -4   1  10  531.89   22.80
   4  -1  10  553.95   28.98
   4  -1  10  554.09   32.37
  -4   1  10  539.53   35.49
  -4  -1 -10  532.55   18.74
  -4  -1 -10  548.70   22.53
   4   1 -10  589.31   22.87
   4   1 -10  538.20   19.41
   4   1 -10  554.15   49.85
   4   1 -10  548.37   31.11
  -4   1 -11  315.00   21.87
  -4   1 -11  336.53   18.48
   4  -1 -11  314.53   28.05
   4  -1 -11  350.62   15.29
   4   1  11  309.68   23.00
   4   1  11  306.89   21.74
   4   1 -11  308.42   23.20
   4  -1  11  313.40   20.61
   4  -1  11  292.60   22.73
  -4   1  11  294.06   26.65
  -4  -1 -11  295.45   12.16
  -4  -1 -11  320.11   12.30
   4   1 -11  314.46   10.10
   4   1 -11  318.65   26.06
   4   1 -11  271.79   10.04
  -4   1  11  288.08   13.29
   4   1  12 1527.32   94.72
  -4   1 -12 1623.44   72.05
  -4   1 -12 1573.39   92.06
   4  -1 -12 1590.01   86.48
   4  -1 -12 1680.34   70.39
   4   1  12 1474.42   72.78
   4  -1  12 1600.44   78.97
   4  -1  12 1709.12   69.93
  -4   1  12 1575.12  106.95
  -4   1  12 1627.09   61.22
  -4  -1 -12 1703.07   71.52
  -4  -1 -12 1565.54   61.28
   4   1 -12 1565.35   78.37
   4   1 -12 1710.58   88.14
  -4   1 -13  413.37   33.30
  -4   1 -13  398.02   26.92
   4  -1 -13  386.65   15.15
   4  -1 -13  391.70   35.36
   4   1  13  360.39   37.49
   4   1  13  374.09   27.98
  -4   1  13  417.96   14.29
   4  -1  13  449.13   44.27
  -4   1  13  441.22   35.56
  -4  -1 -13  435.70   18.74
  -4  -1 -13  489.08   19.28
   4   1 -13  463.16   32.10
   4   1 -13  467.94   35.30
   4  -1  13  494.40   22.07
  -4   1 -14 1099.53   71.06
  -4   1 -14 1103.85   51.51
   4  -1 -14 1162.68   69.59
   4  -1 -14 1109.04   68.20
   4   1  14 1038.98   56.23
   4   1  14  991.65   51.91
   4  -1  14 1084.97   57.63
   4  -1  14 1182.02   49.45
  -4  -1 -14 1137.88   45.20
  -4  -1 -14 1070.15   44.20
   4   1 -14 1131.24   85.21
   4   1 -14 1145.59   92.52
   4   1  15  339.86   24.06
  -4   1 -15  369.83   25.06
  -4   1 -15  393.50   23.13
   4  -1 -15  409.71   37.82
   4   1  15  353.95   40.88
   4  -1 -15  381.73   37.42
   4  -1  15  341.38   26.45
  -4  -1 -15  387.98   24.39
  -4  -1 -15  323.04   13.56
   4   1 -15  351.95   31.64
   4   1 -15  377.28   56.50
   4  -1  15  384.26   20.54
  -4   1 -16 2428.11  118.91
  -4   1 -16 2400.20  131.08
   4  -1 -16 2527.62  141.51
   4  -1 -16 2432.70  139.52
   4   1  16 2274.44  117.38
   4   1  16 2248.45  112.60
   4  -1  16 2194.27  133.80
  -4  -1 -16 2365.63  113.86
  -4  -1 -16 2279.89  103.36
   4   1 -16 2290.92  125.96
   4   1 -16 2434.16  170.16
   4  -1  16 2546.63  129.42
  -4   1 -17  386.72   26.52
  -4   1 -17  370.37   35.76
   4  -1 -17  434.64   42.74
   4   1  17  376.55   26.52
   4   1  17  371.03   28.52
   4  -1 -17  409.78   42.01
   4  -1  17  412.71   29.05
  -4  -1 -17  434.84   20.67
  -4  -1 -17  399.55   17.15
   4   1 -17  451.52   60.29
   4   1 -17  452.19   41.68
   4  -1  17  282.83   20.87
  -4   1 -18 1092.68   49.59
  -4   1 -18 1172.65   58.83
   4  -1 -18 1253.74   82.75
   4  -1 -18 1280.46   82.55
   4   1  18 1113.82   61.55
   4   1  18 1130.57   57.36
   4  -1  18 1098.87   53.77
   4  -1  18 1101.92   60.62
  -4  -1 -18 1168.99   51.78
  -4  -1 -18 1090.82   51.18
   4   1 -18 1149.12   73.12
   4   1 -18 1201.09   80.29
  -4   1 -19  257.63   20.21
   4  -1 -19  281.76   37.62
   4  -1 -19  295.26   37.69
   4   1  19  260.03   22.73
   4   1 -19  249.99   36.23
   4  -1  19  226.33   34.03
  -4  -1 -19  216.49   14.49
  -4  -1 -19  194.62   11.30
   4   1 -19  242.88   32.44
  -4   1 -20 1306.78   68.86
   4  -1 -20 1482.99   99.64
   4  -1 -20 1437.86   97.78
   4   1  20 1264.24   70.66
   4  -1  20 1303.72   70.79
   4   1 -20 1588.21  130.28
   4   1 -20 1381.89   95.12
  -4   1 -21  293.19   24.13
   4  -1 -21  338.59   46.53
   4  -1 -21  299.11   44.53
   4   1  21  285.48   38.68
   4  -1  21  285.62   37.69
   4   1 -21  303.83   40.94
   4   1 -21  300.24   73.32
  -4   1 -22  735.35   44.00
   4  -1 -22  781.41   70.46
   4  -1 -22  870.61   73.71
   4   1  22  720.39   44.87
   4  -1  22  725.97   44.67
   4   1 -22  803.08   68.73
   4   1 -22  771.84   70.19
  -4   1 -23  147.69   29.51
   4  -1 -23  156.93   40.28
   4   1  23  138.72   29.11
   4  -1  23  152.61   30.18
   4   1 -23  158.53   36.49
   4  -2   0 3142.92  163.85
  -4   2   0 3167.58  147.49
  -4   2   0 3270.47  160.59
   4   2   0 3109.02  124.16
   4   2   0 3197.76  161.19
   4   2   0 3272.60  146.96
   4  -2   0 2649.39  135.13
   4  -2  -1 3047.07  180.26
  -4   2  -1 3301.85  155.47
  -4   2  -1 3442.63  168.50
   4  -2  -1 3298.92  154.87
   4   2   1 3349.11  152.68
   4   2   1 2772.22  120.31
   4   2   1 3109.55  125.69
   4   2   1 3314.41  154.34
   4  -2   1 3079.18  150.09
   4  -2   1 3372.90  158.26
  -4   2   1 3440.70  174.81
  -4   2   1 3203.34  180.26
   4   2  -1 3536.48  161.12
   4   2  -1 3101.78  127.95
   4   2  -1 3398.63  164.51
   4   2  -1 3470.81  148.36
   4  -2  -2 1068.22   58.76
  -4   2  -2 1076.86   54.24
   4  -2  -2 1033.39   61.62
   4   2   2 1102.46   33.23
   4   2   2 1074.47   47.92
   4   2   2 1031.93   34.03
   4   2   2 1080.59   49.98
  -4   2  -2 1069.22   64.08
   4  -2   2 1004.15   47.99
   4  -2   2 1041.64   66.67
  -4   2   2 1024.62   47.26
  -4   2   2  896.20   68.13
   4   2  -2 1044.29   42.74
   4   2  -2 1003.28   44.40
   4   2  -2 1041.10   52.38
   4   2  -2 1047.88   48.32
  -4   2  -3 2544.23  118.78
  -4   2  -3 2383.31  117.85
   4  -2  -3 2682.22  139.32
   4  -2  -3 2522.17  129.22
   4   2   3 2650.92  121.90
   4   2   3 2566.50  116.32
   4  -2   3 2622.73  122.97
   4  -2   3 2648.46  121.31
  -4   2   3 2579.99  117.85
  -4   2   3 2318.77  138.92
   4   2  -3 2746.03  132.27
   4   2  -3 2380.85  106.35
   4   2  -3 2631.18  113.46
   4   2  -3 2562.25  110.14
  -4   2  -4 2817.36  133.54
  -4   2  -4 2799.08  157.47
   4  -2  -4 2652.45  123.10
   4   2   4 2773.15  130.68
   4   2   4 2838.89  148.49
   4  -2  -4 2756.67  145.63
   4  -2   4 2877.18  136.46
   4  -2   4 2896.05  131.34
  -4   2   4 2913.07  132.61
  -4   2   4 2760.92  161.79
   4   2  -4 2768.77  123.50
   4   2  -4 2702.76  116.05
   4   2  -4 2768.10  132.27
   4   2  -4 2886.55  131.74
  -4   2  -5 3106.76  166.24
  -4   2  -5 2911.34  161.19
   4  -2  -5 2941.25  136.86
   4   2   5 3030.59  160.92
   4  -2  -5 2992.24  182.19
   4   2   5 3084.16  146.76
   4  -2   5 3181.41  152.01
   4  -2   5 3178.08  156.20
  -4   2   5 3120.12  154.61
  -4   2   5 3076.92  176.87
   4   2  -5 3197.76  141.18
   4   2  -5 3082.43  132.14
   4   2  -5 2936.73  129.55
   4   2  -5 3102.37  141.31
   4  -2  -6  900.46   74.31
  -4   2  -6  888.82   44.60
   4  -2  -6  813.65   37.62
   4   2   6  890.95   44.87
   4   2   6  885.03   44.20
  -4   2  -6  873.80   58.16
   4   2  -6  865.89   38.42
   4  -2   6  900.39   38.49
   4  -2   6  887.10   45.93
  -4   2   6  849.87   46.40
  -4   2   6  879.98   49.19
   4   2  -6  905.84   45.00
   4   2  -6  881.25   37.49
   4   2  -6  907.04   41.74
   4   2   7 1567.61   74.05
  -4   2  -7 1603.03   91.26
   4  -2  -7 1542.48   67.86
   4  -2  -7 1566.48   82.49
   4   2   7 1563.88   73.58
  -4   2  -7 1586.75   88.94
   4   2  -7 1522.74   63.15
   4  -2   7 1515.89   73.98
   4  -2   7 1552.32   93.59
  -4   2   7 1452.28   71.12
  -4   2   7 1466.44   77.17
   4   2  -7 1530.25   62.35
   4   2  -7 1443.77   63.21
   4   2  -7 1592.20   87.47
   4  -2  -8 1545.60  107.15
  -4   2  -8 1816.07  100.37
  -4   2  -8 1638.66   77.97
   4  -2  -8 1613.14   82.16
   4   2   8 1624.44   94.52
   4   2   8 1583.89   76.71
   4  -2   8 1664.32   70.46
   4  -2   8 1674.62  101.30
  -4   2   8 1610.28   76.04
  -4   2   8 1646.24   85.94
   4   2  -8 1643.38   92.26
   4   2  -8 1641.65   73.05
   4   2  -8 1625.57   65.27
   4   2  -8 1652.22   73.58
  -4   2  -9 1656.61   98.04
   4  -2  -9 1720.15   77.10
   4   2   9 1679.27   99.44
   4   2   9 1597.72   97.84
   4  -2  -9 1628.16   90.07
  -4   2  -9 1764.62   83.42
   4  -2   9 1785.89   76.31
   4  -2   9 1785.82  107.21
  -4   2   9 1735.84   91.26
  -4   2   9 1715.96   71.19
   4   2  -9 1762.56  101.63
   4   2  -9 1796.66   65.60
   4   2  -9 1782.03   95.72
   4   2  -9 1798.25   72.72
  -4   2 -10  541.12   31.91
  -4   2 -10  589.51   31.77
   4  -2 -10  568.97   37.02
   4   2  10  521.98   32.17
   4   2  10  527.90   33.43
   4  -2 -10  556.01   61.68
   4  -2  10  591.77   51.71
   4  -2  10  626.60   37.22
  -4   2  10  587.72   60.75
  -4   2  10  562.86   23.06
   4   2 -10  648.47   45.33
   4   2 -10  607.53   50.52
   4   2 -10  602.34   21.87
   4   2 -10  535.67   26.19
   4   2  11  708.09   38.95
  -4   2 -11  748.71   50.65
   4  -2 -11  703.38   47.13
   4  -2 -11  789.78   34.50
   4   2  11  716.74   40.94
  -4   2 -11  723.05   38.49
   4  -2  11  678.98   40.15
   4  -2  11  665.22   40.15
  -4   2  11  658.71   46.40
  -4   2  11  657.91   31.84
   4   2 -11  624.01   35.49
   4   2 -11  631.12   25.92
   4   2 -11  678.12   22.40
   4  -2 -12  605.80   45.07
  -4   2 -12  603.27   34.76
  -4   2 -12  649.54   34.96
   4  -2 -12  654.39   28.65
   4   2  12  590.05   49.25
   4   2  12  599.55   54.11
   4  -2  12  606.66   28.98
   4  -2  12  574.96   37.16
  -4   2  12  597.69   44.73
  -4   2  12  596.23   23.00
  -4  -2 -12  593.50   20.21
  -4  -2 -12  583.40   19.94
   4   2 -12  561.40   34.43
   4   2 -12  612.31   59.16
   4  -2 -13 1130.51   70.52
  -4   2 -13 1095.74   55.57
   4  -2 -13 1194.71   55.97
   4   2  13 1100.20   59.96
   4   2  13 1056.33   56.17
  -4   2 -13 1145.39   70.99
   4  -2  13 1129.31   50.52
   4  -2  13 1106.38   60.42
  -4   2  13 1144.40   97.64
  -4   2  13 1099.40   45.73
  -4  -2 -13 1079.32   40.01
  -4  -2 -13 1220.44   45.93
   4   2 -13 1090.16   58.23
   4   2 -13 1145.46   65.67
  -4   2 -14  326.30   35.23
   4  -2 -14  290.93   32.10
   4   2  14  266.87   22.20
   4   2  14  282.23   25.19
   4  -2 -14  288.34   16.22
  -4   2 -14  300.51   21.74
   4  -2  14  269.40   17.75
   4  -2  14  245.74   23.46
  -4   2  14  231.91   31.64
  -4   2  14  244.47   12.50
  -4  -2 -14  244.21   11.70
  -4  -2 -14  272.19   10.83
   4   2 -14  263.62   39.81
   4   2 -14  262.69   28.71
  -4   2 -15  325.03   24.00
   4  -2 -15  326.63   57.83
   4   2  15  307.69   41.88
   4   2  15  304.16   36.82
  -4   2 -15  345.04   36.76
   4  -2  15  354.94   21.14
   4  -2  15  315.20   40.08
  -4   2  15  317.12   36.03
  -4   2  15  316.59   10.57
  -4  -2 -15  299.64   11.63
  -4  -2 -15  347.17   18.08
   4   2 -15  321.98   29.38
   4   2 -15  330.15   33.30
   4  -2 -16    3.39   30.04
   4   2  16  174.55   19.08
  -4   2 -16  149.36   18.01
  -4   2 -16  164.91   28.58
   4  -2 -16  152.75   49.72
   4   2  16  147.23   20.67
   4  -2  16  228.32   21.54
   4  -2  16  246.87   26.12
  -4   2  16  212.90   31.71
  -4  -2 -16  182.99    8.31
  -4  -2 -16  202.73   10.17
   4   2 -16  196.55   24.86
   4   2 -16  206.19   28.58
  -4   2 -17  439.89   30.04
   4  -2 -17  524.44   50.78
   4  -2 -17  466.15   71.99
   4   2  17  421.55   30.11
   4   2  17  430.99   49.52
  -4   2 -17  484.49   44.33
   4  -2  17  473.59   33.10
   4  -2  17  515.40   39.68
   4   2 -17  515.33   40.68
   4   2 -17  493.86   69.06
   4  -2 -18  146.10   53.77
  -4   2 -18  132.14   15.55
   4   2  18   49.92   19.14
  -4   2 -18  131.34   16.75
   4  -2 -18  131.28   48.39
   4   2  18  123.63   18.88
   4  -2  18  145.23   15.02
   4  -2  18  134.60   29.11
   4   2 -18  129.28   41.21
   4   2 -18  132.47   48.06
  -4   2 -19   62.75   13.83
   4  -2 -19   78.10   26.79
   4  -2 -19   59.29   42.67
   4   2  19   55.77   25.66
  -4   2 -19   69.26   12.36
   4  -2  19   52.31   14.36
   4  -2  19   56.90   12.10
   4   2 -19   59.29   21.20
   4   2 -19   53.91   24.06
  -4   2 -20   70.86   14.82
   4  -2 -20   64.21   45.93
   4  -2 -20   80.03   49.12
   4   2  20   64.94   15.82
   4  -2  20   68.00   14.76
   4   2 -20   80.43   23.53
   4   2 -20   72.38   26.39
  -4   2 -21   31.91   12.63
   4  -2 -21   33.70   23.20
   4  -2 -21   33.70   25.52
   4   2  21   32.57   21.74
   4  -2  21   36.62   21.07
   4   2 -21   38.15   36.76
   4   2 -21   28.58   40.55
  -4   2 -22  116.99   18.41
   4  -2 -22  138.65   60.55
   4  -2 -22  118.71   31.37
   4   2  22  108.54   17.88
   4  -2  22   80.83   16.68
   4   2 -22   83.15   29.65
   4   2 -22   79.63   54.70
  -4   2 -23    1.00    3.12
  -4   2 -23   29.25    8.71
   4   2  23    2.73    3.66
   4   2  23   26.39   14.02
   4  -2  23    0.60    2.73
   4  -2  23   18.81   13.23
  -4   3   0  321.24   35.23
   4  -3   0  305.89   23.13
  -4   3   0  329.15   27.39
   4   3   0  317.59   19.94
   4   3   0  319.85   10.50
   4   3   0  312.14   33.50
   4   3   0  316.79   15.95
   4  -3   0  270.06   24.59
  -4   3  -1   41.94   10.90
  -4   3  -1   31.11   12.76
   4  -3  -1   29.25   12.83
   4  -3  -1   35.69   10.44
   4   3   1   28.38    9.64
   4   3   1   29.45    9.04
   4   3   1   30.51    2.13
   4   3   1   31.31    4.92
   4  -3   1   39.02   19.81
   4  -3   1   44.67   11.17
  -4   3   1   57.89   10.57
  -4   3   1   45.13   13.23
   4   3  -1   44.27    4.65
   4   3  -1   49.52    9.37
   4   3  -1   46.86    3.59
   4   3  -1   46.66    8.31
  -4   3  -2  204.72   18.74
  -4   3  -2  199.74   20.87
   4  -3  -2  202.00   22.53
   4  -3  -2  180.53   16.95
   4   3   2  190.90    5.58
   4   3   2  203.13   16.22
   4   3   2  192.56   16.95
   4   3   2  183.72    6.38
  -4   3   2  137.19   15.95
   4  -3   2  136.39   27.32
  -4   3   2  143.24   20.34
   4   3  -2  131.48   13.83
   4   3  -2  138.92    7.44
   4   3  -2  134.73   22.53
   4   3  -2  134.73   12.50
   4  -3   2  140.71   29.51
  -4   3  -3  459.57   32.77
  -4   3  -3  441.82   29.31
   4  -3  -3  422.61   26.59
   4  -3  -3  474.12   35.10
   4   3   3  451.59   28.12
   4   3   3  455.78   26.85
   4  -3   3  409.78   29.05
   4  -3   3  429.86   26.85
  -4   3   3  396.09   25.86
   4   3  -3  403.60   23.73
   4   3  -3  436.30   19.61
   4   3  -3  428.26   21.34
   4   3  -3  436.83   17.08
  -4   3   3  429.46   32.44
  -4   3  -4  207.32   21.40
  -4   3  -4  214.83   20.80
   4  -3  -4  224.07   26.39
   4  -3  -4  207.72   18.81
   4   3   4  210.18   19.74
   4   3   4  220.68   19.41
   4  -3   4  225.26   21.67
  -4   3   4  212.04   27.39
   4  -3   4  219.35   17.55
  -4   3   4  212.17   23.06
   4   3  -4  220.41   19.61
   4   3  -4  209.24   19.08
   4   3  -4  211.24   15.29
   4   3  -4  229.52   24.19
  -4   3  -5  197.21   20.67
  -4   3  -5  192.89   19.67
   4  -3  -5  203.33   45.46
   4  -3  -5  184.25   28.52
   4   3   5  186.11   19.48
   4   3   5  191.96   31.57
   4  -3   5  215.29   34.17
   4  -3   5  225.00   26.52
  -4   3   5  212.90   27.12
  -4   3   5  204.19   23.33
   4   3  -5  217.15   14.56
   4   3  -5  228.45   20.61
   4   3  -5  207.85   11.57
   4   3  -5  211.57   11.77
  -4   3  -6  103.56   24.26
  -4   3  -6  112.66   14.02
   4  -3  -6  115.66   20.41
   4  -3  -6   95.58   20.21
   4   3   6  106.48   13.89
   4   3   6  102.63   14.36
  -4   3   6   57.30   10.70
   4  -3   6   57.70   24.26
   4  -3   6   57.83   18.08
  -4   3   6   44.00   15.89
   4   3  -6   53.51    6.45
   4   3  -6   55.30   12.96
   4   3  -6   67.40   15.35
   4   3  -6   56.57    8.57
  -4   3  -7 1088.96   75.51
  -4   3  -7 1021.50   70.12
   4  -3  -7 1025.09   65.27
   4  -3  -7  976.83   63.74
   4   3   7  988.53   53.04
   4   3   7  993.58   52.64
   4  -3   7 1020.83   47.19
  -4   3   7  938.54   46.40
   4  -3   7 1001.09   54.17
  -4   3   7  923.12   78.50
   4   3  -7 1017.18   61.55
   4   3  -7  987.06   44.00
   4   3  -7  982.28   53.57
   4   3  -7  988.46   53.37
  -4   3  -8  391.30   27.85
  -4   3  -8  367.04   26.79
   4  -3  -8  359.66   59.16
   4  -3  -8  366.31   36.69
   4   3   8  367.77   28.05
   4   3   8  359.33   27.39
   4  -3   8  393.83   29.58
  -4   3   8  362.85   52.18
   4   3  -8  410.38   37.29
   4   3  -8  376.15   19.74
   4   3  -8  394.76   28.05
   4   3  -8  383.46   21.34
  -4   3   8  359.46   22.00
   4  -3   8  386.18   22.60
  -4   3  -9  860.44   47.06
  -4   3  -9  835.52   45.80
   4  -3  -9  814.31   57.23
   4  -3  -9  901.32   60.29
   4   3   9  819.03   46.86
   4   3   9  829.07   64.87
   4  -3   9  881.18   41.88
   4  -3   9  855.85   49.32
  -4   3   9  805.34   38.82
  -4   3   9  846.15   56.23
   4   3  -9  902.12   46.66
   4   3  -9  834.19   34.43
   4   3  -9  888.69   42.14
   4   3  -9  803.68   36.16
  -4   3 -10  133.60   23.73
  -4   3 -10   85.15   13.49
   4  -3 -10   91.26   34.43
   4  -3 -10   97.78   11.57
   4   3  10   90.53   14.76
   4   3  10   83.49   13.69
   4  -3  10   67.53   17.95
   4  -3  10   47.79   14.62
  -4   3  10   46.99   18.21
   4   3 -10   45.73   13.23
   4   3 -10   41.81    6.31
   4   3 -10   46.46   11.17
   4   3 -10   40.15    6.91
  -4   3  10   47.19   13.83
  -4   3 -11 1549.66   77.17
  -4   3 -11 1542.35   78.43
   4  -3 -11 1466.11   88.60
   4  -3 -11 1609.61   74.71
   4   3  11 1413.86   92.66
   4   3  11 1457.27   76.37
  -4   3  11 1447.83   86.54
   4  -3  11 1473.02   83.88
  -4   3  11 1289.30   67.86
   4   3 -11 1474.95   77.04
   4   3 -11 1474.48   55.57
   4   3 -11 1499.94   72.38
   4   3 -11 1377.84   63.74
   4  -3  11 1474.48   79.03
  -4   3 -12  315.99   39.15
  -4   3 -12  258.76   37.95
   4  -3 -12  259.16   34.83
   4  -3 -12  281.23   28.58
   4   3  12  257.70   41.68
   4   3  12  245.87   42.14
   4  -3  12  375.28   33.83
  -4   3  12  254.64   14.62
   4   3 -12  305.56   27.65
   4   3 -12  324.83   11.23
   4   3 -12  320.91   24.73
   4   3 -12  303.76   13.49
   4  -3  12  310.28   27.65
  -4   3  12  307.55   57.50
  -4   3 -13 1483.32   78.30
  -4   3 -13 1457.93   74.45
   4  -3 -13 1463.32   91.79
   4  -3 -13 1584.36   71.79
   4   3  13 1447.36   78.30
   4   3  13 1387.27   76.64
   4  -3  13 1543.01   87.01
   4  -3  13 1506.65  101.17
  -4   3  13 1555.71   95.12
  -4   3  13 1266.97   54.64
   4   3 -13 1519.75  107.02
   4   3 -13 1528.79   98.77
  -4   3 -14   82.29   14.89
  -4   3 -14   61.22   12.96
   4  -3 -14   71.72    8.38
   4  -3 -14   60.29   37.22
   4   3  14   49.05   14.82
   4   3  14   62.95   26.92
  -4   3  14   39.15   21.67
   4  -3  14   39.75   25.92
  -4   3  14   27.58    9.64
   4   3 -14   34.30   29.91
   4   3 -14   34.83   25.86
   4  -3  14   69.86   19.61
  -4   3 -15 1287.31   87.41
  -4   3 -15 1264.17   83.75
   4  -3 -15 1370.19   65.07
   4  -3 -15 1338.82  119.11
   4   3  15 1335.89   75.18
   4   3  15 1248.49   88.94
   4  -3  15 1256.20   70.79
  -4   3  15 1157.49   54.31
   4   3 -15 1265.37   77.24
   4   3 -15 1256.60   71.39
   4  -3  15 1240.71   61.35
  -4   3  15 1317.95  123.50
  -4   3 -16  277.64   25.79
  -4   3 -16  251.78   22.33
   4  -3 -16  247.53   38.22
   4   3  16  248.00   27.85
   4   3  16  243.48   24.99
   4  -3  16  326.89   23.40
   4  -3  16  283.03   26.92
  -4   3  16  270.73   38.88
   4   3 -16  284.95   33.63
   4   3 -16  287.61   29.98
   4  -3 -17 1451.82   96.58
  -4   3 -17 1340.48   75.24
  -4   3 -17 1319.48   69.46
   4   3  17 1286.04   70.06
   4   3  17 1337.56   78.37
   4  -3  17 1393.86   71.52
   4  -3  17 1282.45   73.71
  -4   3  17 1333.24   91.66
   4   3 -17 1312.90   84.88
   4   3 -17 1311.77   80.16
  -4   3 -18   25.06   11.83
  -4   3 -18   22.73   16.15
   4  -3 -18   25.13   19.48
   4  -3 -18   -4.25   20.07
   4   3  18   -0.93    7.64
   4   3  18   21.80   12.36
   4  -3  18   -0.07   19.87
   4  -3  18   25.52   10.04
  -4   3  18   22.33   19.14
   4   3 -18   25.06   14.82
  -4   3 -19 1191.32   70.86
  -4   3 -19 1197.64   62.81
   4  -3 -19 1320.07   95.32
   4  -3 -19 1465.58  104.16
   4   3  19 1176.24   71.79
   4  -3  19 1163.27   68.73
   4   3 -19 1139.35  110.14
   4   3 -19 1141.41   84.28
   4  -3  19 1294.35   88.67
  -4   3 -20  151.02   37.42
  -4   3 -20  143.04   16.35
   4  -3 -20  106.62   65.67
   4  -3 -20  113.66   35.96
   4   3  20  150.09   37.09
   4  -3  20  133.54   20.54
   4   3 -20  150.55   50.85
   4   3 -20  130.94   33.17
   4  -3  20  178.67   32.30
  -4   3 -21 1239.65  101.37
  -4   3 -21 1187.54   62.08
   4  -3 -21 1554.18  114.92
   4  -3 -21 1361.68  102.96
   4   3  21 1235.92   76.31
   4  -3  21 1305.32   96.85
   4  -3  21 1349.65   76.17
   4   3 -21 1324.46   93.32
   4   3 -21 1260.32  136.66
  -4   3 -22   36.16   17.35
  -4   3 -22    0.93    3.06
  -4   3 -22   -0.53    5.85
   4  -3 -22   23.13   18.28
   4   3  22    1.40    3.99
   4  -3  22   17.02    8.51
   4   3 -22   12.36   15.02
   4  -4   0  250.92   37.82
  -4   4   0   92.33   18.61
  -4   4   0  246.87   38.29
   4   4   0   86.28   15.95
   4   4   0   80.83   14.29
   4   4   0   93.39    8.31
   4  -4   0  104.49   32.44
   4  -4  -1 3965.21  211.64
  -4   4  -1 4059.26  245.34
  -4   4  -1 3907.31  244.21
   4  -4  -1 3780.76  241.68
   4   4   1 3989.54  178.47
   4   4   1 4022.57  204.19
   4   4   1 4006.95  209.64
   4   4   1 4218.92  191.83
   4  -4   1 3998.58  246.27
   4  -4   1 3921.47  209.24
  -4   4   1 4598.33  243.21
  -4   4   1 4059.00  216.62
   4   4  -1 4262.26  202.73
   4   4  -1 4152.19  238.82
   4   4  -1 4181.10  208.51
   4   4  -1 4357.91  199.27
  -4   4  -2  467.68   39.02
  -4   4  -2  439.09   34.96
   4  -4  -2  579.61   63.28
   4  -4  -2  433.51   53.04
   4   4   2  453.05   50.32
   4   4   2  461.29   17.61
   4   4   2  428.53   45.66
   4   4   2  456.97   17.55
   4  -4   2  433.11   35.23
   4  -4   2  500.98   55.30
  -4   4   2  498.19   39.22
   4   4  -2  448.00   30.64
   4   4  -2  467.74   27.45
   4   4  -2  459.17   27.12
   4   4  -2  478.91   18.68
  -4   4  -3 2971.10  158.26
  -4   4  -3 2734.60  142.58
   4  -4  -3 2871.73  156.20
   4  -4  -3 2600.73  136.73
   4   4   3 2618.21  151.82
   4   4   3 2641.08  158.40
   4   4   3 2579.20   98.71
   4   4   3 2793.69  104.76
  -4   4   3 2614.16  137.92
   4  -4   3 2513.13  156.07
  -4   4   3 3082.23  159.66
   4   4  -3 2749.16  131.01
   4   4  -3 2745.44  128.29
   4   4  -3 2667.80  113.06
   4   4  -3 2863.48  165.18
   4  -4   3 2632.90  163.45
  -4   4  -4  150.55   20.47
  -4   4  -4  146.70   19.28
   4  -4  -4  144.84   24.00
   4  -4  -4  142.64   18.81
   4   4   4  141.65   18.28
   4   4   4  140.78   17.35
   4  -4   4   77.44   29.65
   4  -4   4   65.34   18.41
  -4   4   4   83.35   20.87
   4   4  -4   76.90   17.88
   4   4  -4   79.30    7.78
   4   4  -4   68.26   14.96
   4   4  -4  103.43   15.02
  -4   4   4   68.86   17.08
  -4   4  -5 2703.49  142.71
  -4   4  -5 2580.79  135.20
   4  -4  -5 2724.37  153.01
   4  -4  -5 2485.14  153.48
   4   4   5 2526.55  130.61
   4   4   5 2514.46  132.34
   4  -4   5 2698.18  154.21
  -4   4   5 2986.59  156.80
   4  -4   5 2570.56  135.13
  -4   4   5 2563.58  134.67
   4   4  -5 2812.77  139.39
   4   4  -5 2614.36  125.23
   4   4  -5 2622.93  129.08
   4   4  -5 2609.37  132.14
  -4   4  -6  220.54   47.13
  -4   4  -6  237.83   40.88
   4  -4  -6  220.15   54.50
   4  -4  -6  246.67   24.79
   4   4   6  233.71   24.86
   4   4   6  242.35   25.86
   4  -4   6  249.26   22.33
   4  -4   6  243.61   26.52
  -4   4   6  233.37   23.26
  -4   4   6  264.75   31.44
   4   4  -6  257.70   25.92
   4   4  -6  256.37   15.22
   4   4  -6  252.52   14.76
   4   4  -6  254.31   20.87
  -4   4  -7 2044.65  107.68
  -4   4  -7 1909.39   99.64
   4  -4  -7 2012.42  117.25
   4  -4  -7 1954.79  102.89
   4   4   7 1873.16  122.04
   4   4   7 1843.65   98.64
   4  -4   7 1889.25  127.82
  -4   4   7 1747.07  112.53
   4  -4   7 1810.62   89.87
  -4   4   7 1994.67  142.91
   4   4  -7 1824.44   93.72
   4   4  -7 1885.06   88.67
   4   4  -7 1882.93   79.76
   4   4  -7 1818.39   91.00
  -4   4  -8   93.99   17.95
  -4   4  -8   85.41   16.95
   4  -4  -8   67.27   43.80
   4  -4  -8   70.86   15.95
   4   4   8   64.28   17.48
   4   4   8   74.31   17.75
   4  -4   8   80.16   13.83
   4  -4   8   85.08   31.71
  -4   4   8   71.72   21.80
   4   4  -8   75.84   10.83
   4   4  -8   82.55   12.83
   4   4  -8   76.71   12.16
   4   4  -8   79.50   12.56
  -4   4   8   73.45   24.19
  -4   4  -9 2406.91  151.35
  -4   4  -9 2305.15  119.31
   4  -4  -9 2427.85  126.03
   4  -4  -9 2518.71  147.69
   4   4   9 2304.88  122.90
   4   4   9 2265.06  120.31
  -4   4   9 2190.02  132.21
   4  -4   9 2201.65  144.70
  -4   4   9 2275.70  130.15
   4   4  -9 2334.99  110.01
   4   4  -9 2261.81  112.40
   4   4  -9 2283.21  103.36
   4   4  -9 2012.28  101.10
   4  -4   9 2299.69  113.06
  -4   4 -10  173.42   23.86
  -4   4 -10  208.11   23.06
   4  -4 -10  154.34   58.69
   4  -4 -10  203.26   20.80
   4   4  10  192.89   42.21
   4   4  10  185.52   24.46
   4  -4  10  216.69   20.34
   4  -4  10  200.27   41.54
  -4   4  10  224.20   31.51
  -4   4  10  202.60   31.31
   4   4 -10  206.45   18.68
   4   4 -10  201.27   33.70
   4   4 -10  215.89   10.17
   4   4 -10  194.36   24.53
  -4   4 -11 1253.87   91.73
  -4   4 -11 1222.43   87.74
   4  -4 -11 1312.76   88.47
   4  -4 -11 1353.97   68.53
   4   4  11 1227.82   72.58
   4   4  11 1167.33   89.73
  -4   4  11 1214.26   63.28
   4  -4  11 1225.09   95.85
   4  -4  11 1222.83   63.08
  -4   4  11 1196.04  110.34
   4   4 -11 1225.22   80.43
   4   4 -11 1166.07   43.47
   4   4 -11 1157.09   64.14
   4   4 -11 1298.27   91.53
  -4   4 -12  225.80   22.93
  -4   4 -12  229.32   24.93
   4  -4 -12  218.62   35.76
   4  -4 -12  233.51   19.87
   4   4  12  223.27   41.28
   4   4  12  219.21   26.65
   4  -4  12  191.50   42.54
   4  -4  12  197.88   20.54
  -4   4  12  165.64   54.70
   4   4 -12  195.09   34.43
   4   4 -12  176.14   10.17
   4   4 -12  194.89   24.39
   4   4 -12  198.94   17.35
  -4   4  12  187.44   18.28
  -4   4 -13 1150.31   68.13
  -4   4 -13 1158.29   84.22
   4  -4 -13 1269.36   79.03
   4  -4 -13 1245.23  124.36
   4   4  13 1094.08   67.20
   4   4  13 1117.68   94.92
  -4   4  13 1144.86   81.03
   4  -4  13 1191.46   95.65
  -4   4  13 1189.60   59.89
   4   4 -13 1201.63   86.81
   4   4 -13 1144.46   68.60
   4  -4  13 1194.98   80.23
  -4   4 -14  101.50   17.28
  -4   4 -14   97.84   34.23
   4  -4 -14  108.34   21.74
   4  -4 -14   98.97   28.58
   4   4  14   96.51   21.34
   4   4  14   94.92   20.07
   4  -4  14  117.58   20.94
   4  -4  14  128.02   28.05
  -4   4  14  120.04   28.38
  -4   4  14  122.10   20.47
   4   4 -14  117.38   32.77
   4   4 -14  122.04   36.16
  -4   4 -15  263.42   27.52
  -4   4 -15  255.17   23.40
   4  -4 -15  273.39   39.28
   4  -4 -15  289.54   18.68
   4   4  15  237.96   26.85
   4   4  15  249.52   47.92
  -4   4  15  233.71   62.68
   4  -4  15  222.67   35.89
   4  -4  15  229.92   27.52
  -4   4  15  203.99   14.49
   4   4 -15  229.98   30.58
   4   4 -15  240.62   44.53
  -4   4 -16  134.87   22.87
  -4   4 -16  143.31   30.58
   4  -4 -16  132.27   32.70
   4   4  16  122.04   24.00
   4   4  16  143.84   35.23
   4  -4  16  143.44   18.48
   4  -4  16  153.01   22.47
  -4   4  16  136.59   32.10
   4   4 -16  154.41   26.52
   4   4 -16  145.77   24.00
  -4   4  16  115.86   15.22
  -4   4 -17  310.88   31.91
  -4   4 -17  289.80   39.15
   4  -4 -17  336.73   44.80
   4   4  17  282.63   52.44
   4  -4  17  270.26   47.19
   4  -4  17  306.36   26.99
  -4   4  17  272.86   42.27
   4   4 -17  282.63   36.96
   4   4 -17  285.62   33.63
  -4   4 -18   45.53   17.68
  -4   4 -18   45.27   12.30
   4  -4 -18   47.46   25.99
   4   4  18   43.87   17.95
   4  -4  18   54.24   14.49
   4  -4  18    2.79   27.19
  -4   4  18   46.93   43.74
   4   4 -18   41.94   38.09
   4   4 -18   44.60   19.67
  -4   4 -19   52.05   31.11
  -4   4 -19   53.57   12.76
   4  -4 -19   51.11   27.72
   4   4  19   -0.80   14.29
   4   4  19   46.99   31.17
   4  -4  19   69.93   16.62
   4  -4  19   59.49   26.52
  -4   4  19   77.50   26.39
   4   4 -19   62.02   24.00
   4   4 -19   78.23   21.67
  -4   4 -20   49.85   34.43
  -4   4 -20   63.01   22.33
   4  -4 -20   99.77   30.84
   4  -4 -20   71.39   33.17
   4   4  20   58.83   20.47
   4  -4  20   61.35   28.85
   4  -4  20   69.66   17.15
   4   4 -20   59.62   26.85
   4   4 -20   71.32   24.79
  -4   4 -21   30.24   31.77
  -4   4 -21   47.46   19.34
   4  -4 -21   61.62   32.30
   4   4  21   34.56   31.17
   4  -4  21   48.72   16.48
   4  -4  21   46.20   16.95
   4   4 -21   46.33   41.54
   4  -5   0   94.98   21.60
  -4   5   0  108.68   21.47
   4  -5   0   99.90   37.42
  -4   5   0  110.01   22.20
   4   5   0  100.10   10.37
   4   5   0  114.99   32.90
  -4  -5   0  102.56   10.17
  -4  -5   0  109.14   16.68
  -4   5  -1  136.99   37.89
  -4   5  -1  121.51   40.01
   4  -5  -1  137.86   23.06
   4  -5  -1  132.67   22.40
   4   5   1  128.02   10.17
   4   5   1  125.63   20.74
  -4  -5   1  126.03   16.48
  -4  -5   1  124.16   11.83
   4  -5   1  100.90   22.20
   4  -5   1   65.94   35.30
  -4   5   1   92.92   21.47
  -4   5   1   97.11   22.07
  -4  -5  -1  126.96   18.28
  -4  -5  -1   91.59    8.71
   4   5  -1   95.91    7.05
   4   5  -1   94.12   19.48
  -4   5  -2  100.97   21.20
   4  -5  -2  103.89   21.80
   4  -5  -2  104.56   33.90
   4   5   2   -0.27   15.95
   4   5   2   92.52    8.51
   4   5   2  104.69   20.01
  -4  -5   2   90.93   14.56
  -4  -5   2  100.70   12.36
  -4   5  -2  101.96   21.74
   4  -5   2   80.96   21.07
   4  -5   2   96.65   33.77
  -4   5   2   76.71   33.10
  -4  -5  -2   80.89   16.82
  -4  -5  -2   79.96    7.11
   4   5  -2   81.96   17.95
   4   5  -2   78.70   10.90
  -4   5   2   79.50   20.87
  -4   5  -3  109.21   24.13
  -4   5  -3   97.78   23.06
   4  -5  -3   98.11   25.06
   4  -5  -3  100.63   22.67
   4   5   3   68.80   19.34
   4   5   3  100.30    8.71
   4   5   3  120.64   37.95
  -4  -5   3  105.29   15.09
  -4  -5   3   95.98   15.15
  -4   5   3  133.27   39.08
   4  -5   3  138.32   40.88
   4  -5   3  131.34   21.34
  -4   5   3  138.12   36.62
  -4  -5  -3  129.48    4.99
   4   5  -3  136.26    8.97
   4   5  -3  131.28   19.81
  -4   5  -4  275.98   49.52
   4  -5  -4  274.45   53.71
   4  -5  -4  291.00   50.58
   4   5   4  260.89   46.99
   4   5   4  263.42   27.25
   4   5   4  252.05   10.37
   4   5   4  258.56    9.11
  -4  -5   4  260.82   20.94
  -4  -5   4  273.79   16.02
  -4   5  -4  283.42   31.44
  -4   5   4  302.97   52.44
   4  -5   4  282.03   28.32
   4  -5   4  256.57   31.64
  -4   5   4  274.72   29.84
   4   5  -4  283.56   14.56
   4   5  -4  261.62   41.08
  -4   5  -5   66.14   33.17
  -4   5  -5   67.27   18.74
   4  -5  -5   80.43   21.54
   4  -5  -5   75.77   18.88
   4   5   5   71.12   18.48
   4   5   5   57.96   17.35
  -4  -5   5   65.94   11.30
  -4  -5   5   70.66    9.11
   4  -5   5   40.28   15.95
   4  -5   5   41.34   19.14
  -4   5   5   48.72   17.81
  -4   5   5   49.92   19.94
   4   5  -5   37.75   12.83
   4   5  -5   48.59   15.42
  -4   5  -6  262.88   48.46
   4  -5  -6  283.09   37.62
   4  -5  -6  272.79   30.78
   4   5   6  269.60   29.25
   4   5   6  273.85   30.97
  -4  -5   6  278.17   18.41
  -4  -5   6  259.10   18.81
  -4   5  -6  276.44   30.78
  -4   5   6  270.33   33.30
   4  -5   6  249.59   26.65
   4  -5   6  245.14   31.51
  -4   5   6  232.04   27.98
   4   5  -6  247.00   24.53
   4   5  -6  231.38   25.13
  -4   5  -7  559.93   45.00
  -4   5  -7  556.48   43.27
   4  -5  -7  580.87   50.78
   4  -5  -7  588.25   67.13
   4   5   7  546.64   44.07
   4   5   7  548.50   65.60
  -4   5   7  610.58   49.45
   4  -5   7  537.87   38.15
   4  -5   7  539.93   46.20
  -4   5   7  545.91   41.41
   4   5  -7  532.42   27.05
   4   5  -7  503.37   26.85
   4   5  -7  523.71   55.24
  -4   5  -8  307.09   51.51
   4  -5  -8  324.63   41.21
   4  -5  -8  344.24   32.37
   4   5   8  290.47   33.77
   4   5   8  295.85   33.17
  -4   5  -8  283.22   34.56
   4  -5   8  359.86   29.98
   4  -5   8  361.59   36.56
  -4   5   8  368.44   32.30
   4   5  -8  347.83   19.14
   4   5  -8  357.27   25.06
   4   5  -8  340.12   21.40
   4   5  -8  349.76   43.87
  -4   5   8  373.02   63.88
  -4   5  -9  474.52   41.61
  -4   5  -9  495.59   40.61
   4  -5  -9  505.76   50.12
   4  -5  -9  542.52   40.21
   4   5   9  472.00   41.94
   4   5   9  477.78   42.94
   4  -5   9  517.33   37.69
   4  -5   9  528.76   70.79
  -4   5   9  547.70   39.81
  -4   5   9  573.56   50.78
   4   5  -9  510.68   33.04
   4   5  -9  517.46   32.44
   4   5  -9  511.08   42.07
   4   5  -9  489.94   49.52
  -4   5 -10  542.32   62.08
   4  -5 -10  580.34   55.83
   4  -5 -10  594.30   41.48
   4   5  10  537.67   71.32
   4   5  10  540.19   44.67
  -4   5 -10  571.30   45.40
  -4   5  10  615.77   53.84
   4  -5  10  539.13   59.62
   4  -5  10  601.28   75.04
  -4   5  10  591.44   41.21
   4   5 -10  532.75   53.24
   4   5 -10  538.66   24.19
   4   5 -10  539.26   33.17
   4   5 -10  505.76   32.97
  -4   5 -11  832.92   82.49
  -4   5 -11  855.06   56.37
   4  -5 -11  955.03   74.38
   4  -5 -11  935.75   56.03
   4   5  11  840.43   59.69
   4   5  11  884.24   62.55
   4  -5  11  874.00   77.30
   4  -5  11  947.85   95.32
  -4   5  11  954.50   56.57
   4   5 -11  911.49   75.64
   4   5 -11  849.08   41.34
   4   5 -11  889.09   49.59
   4   5 -11  789.12   55.70
  -4   5  11  997.90   73.18
  -4   5 -12  468.34   37.09
   4  -5 -12  487.42   81.89
   4  -5 -12  513.14   35.89
   4   5  12  433.91   61.48
   4   5  12  450.00   43.54
  -4   5 -12  443.55   40.35
   4  -5  12  479.64   68.00
   4  -5  12  446.41   36.09
  -4   5  12  497.25   34.76
   4   5 -12  443.41   36.29
   4   5 -12  382.20   21.74
   4   5 -12  446.41   32.50
   4   5 -12  438.16   23.80
  -4   5  12  453.25   78.43
  -4   5 -13  712.48   78.30
  -4   5 -13  655.58   67.86
   4  -5 -13  809.79  107.88
   4  -5 -13  765.06   46.26
   4   5  13  714.67   83.49
   4   5  13  729.10   82.16
   4  -5  13  676.85   45.73
   4  -5  13  695.60   55.24
  -4   5  13  741.93   44.87
  -4   5  13  714.61   64.41
   4   5 -13  661.57   48.85
   4   5 -13  680.84   63.88
  -4   5 -14  445.61   35.63
   4  -5 -14  522.65   33.57
   4  -5 -14  501.71   58.36
   4   5  14  455.11   45.00
   4   5  14  485.36   44.40
  -4   5 -14  455.71   64.01
   4  -5  14  406.33   35.16
   4  -5  14  443.41   43.47
  -4   5  14  431.38   51.45
   4   5 -14  431.32   55.63
   4   5 -14  445.94   64.94
  -4   5  14  487.28   44.33
  -4   5 -15  569.11   48.59
  -4   5 -15  546.64   40.68
   4  -5 -15  640.03   38.09
   4  -5 -15  641.09   65.94
   4   5  15  569.24   77.10
   4   5  15  545.64   48.99
   4  -5  15  587.45   42.41
   4  -5  15  598.22   50.25
  -4   5  15  599.95   93.19
   4   5 -15  592.77   66.60
   4   5 -15  589.25   49.19
  -4   5 -16  327.56   46.66
   4  -5 -16  346.70   52.18
   4   5  16  310.48   38.02
  -4   5 -16  318.45   37.29
   4  -5  16  341.45   49.98
   4  -5  16  343.91   37.69
  -4   5  16  340.32   48.26
   4   5 -16  316.72   38.35
   4   5 -16  355.74   55.70
  -4   5 -17  580.27   50.58
  -4   5 -17  558.07   39.15
   4  -5 -17  670.01  108.74
   4   5  17  560.13   77.70
   4  -5  17  585.26   43.20
   4  -5  17  621.02   74.78
  -4   5  17  587.72   62.88
   4   5 -17  552.42   81.16
   4   5 -17  597.36   74.71
  -4   5 -18  392.77   31.51
   4  -5 -18  436.10   95.05
   4   5  18  406.13   43.54
  -4   5 -18  407.26   69.39
   4  -5  18  447.14   65.21
   4  -5  18  435.77   37.49
  -4   5  18  421.41   86.14
   4   5 -18  409.12   47.66
   4   5 -18  425.67   43.54
  -4   5 -19  554.95   76.51
  -4   5 -19  555.81   52.84
   4   5  19  581.80   76.84
   4  -5  19  548.44   45.20
   4  -5  19  538.86   47.86
  -4   5  19  515.00   62.61
   4   5 -19  523.51   51.51
  -4   5 -20  334.34   65.07
  -4   5 -20  332.21   41.08
   4   5  20  335.40   40.68
   4  -5  20  343.31   37.22
   4  -5  20  371.56   57.83
  -4   5  20  335.54   52.44
   4   5 -20  340.06   44.33
   4  -6   0 2084.80  123.96
  -4   6   0 2016.87  157.73
   4   6   0 2019.00   93.46
   4   6   0 1992.28  150.15
  -4  -6   0 1812.34  103.96
  -4  -6   0 1791.74   77.30
   4  -6   0 2026.04  125.09
  -4   6   0 2239.14  129.81
  -4   6  -1  540.33   77.84
  -4   6  -1  425.47   46.73
   4  -6  -1  477.98   50.05
   4  -6  -1  506.69   48.59
   4   6   1  428.53   26.12
   4   6   1  422.08   43.74
  -4  -6   1  394.36   35.49
  -4  -6   1  444.94   21.27
  -4   6   1  499.51   48.85
   4  -6   1  575.29   76.17
   4  -6   1  495.73   50.92
  -4   6   1  548.10   47.79
  -4  -6  -1  448.20   60.55
  -4  -6  -1  478.18   24.79
   4   6  -1  487.15   21.87
   4   6  -1  467.41   43.27
  -4   6  -2 1881.27  116.32
  -4   6  -2 1775.72  113.60
   4  -6  -2 1999.72  121.11
   4  -6  -2 1902.61  119.11
   4   6   2 1794.00   83.22
   4   6   2 1768.01  108.74
  -4  -6   2 1642.32   93.12
  -4  -6   2 1643.51   83.02
   4  -6   2 1752.59  108.01
  -4   6   2 1886.59  115.72
   4  -6   2 1775.32  116.39
  -4   6   2 1984.43  149.95
  -4  -6  -2 1617.79  125.69
  -4  -6  -2 1696.09   73.65
   4   6  -2 1769.34   76.51
   4   6  -2 1745.61  107.15
  -4   6  -3  395.56   44.93
  -4   6  -3  307.15   66.93
   4  -6  -3  397.42   44.53
   4  -6  -3  342.51   68.99
   4   6   3  331.28   63.68
   4   6   3  322.84   14.96
  -4  -6   3  286.41   28.38
  -4  -6   3  350.56   28.45
   4  -6   3  360.46   38.95
   4  -6   3  346.24   68.99
  -4   6   3  366.44   40.75
  -4   6   3  459.23   69.99
  -4  -6  -3  312.74   35.49
  -4  -6  -3  382.00   17.55
   4   6  -3  334.94   58.23
   4   6  -3  349.96   26.59
  -4   6  -4 1717.23  150.69
  -4   6  -4 1610.28  105.09
   4  -6  -4 1868.64  114.06
   4  -6  -4 1852.36  115.46
   4   6   4 1829.23   76.90
   4   6   4 1691.44  141.71
  -4  -6   4 1504.59   82.82
  -4  -6   4 1616.86   75.84
   4  -6   4 1645.24  107.35
   4  -6   4 1679.67  100.63
  -4   6   4 1889.38  110.67
  -4  -6  -4 1566.21   62.88
  -4  -6  -4 1555.24   97.04
   4   6  -4 1653.82   74.18
   4   6  -4 1658.80  100.97
  -4   6   4 1841.19  144.04
  -4   6  -5  463.95   45.93
  -4   6  -5  459.03   73.45
   4  -6  -5  582.14   79.83
   4  -6  -5  538.13   73.12
   4   6   5  474.19   47.33
  -4  -6   5  426.60   30.78
  -4  -6   5  478.24   26.79
   4  -6   5  456.04   47.86
  -4   6   5  487.55   46.40
  -4  -6  -5  411.58   42.54
  -4  -6  -5  396.16   12.89
   4   6  -5  434.37   23.80
   4   6  -5  446.41   40.88
  -4   6   5  494.40   70.66
   4  -6   5  433.44   43.94
  -4   6  -6 1248.55  117.98
  -4   6  -6 1257.66   84.88
   4  -6  -6 1355.24   91.66
   4  -6  -6 1370.59   89.07
   4   6   6 1304.85   90.33
  -4  -6   6 1169.59   83.02
  -4  -6   6 1286.97   77.97
  -4   6   6 1525.66  122.37
   4  -6   6 1359.29  116.52
   4  -6   6 1367.47   93.39
  -4   6   6 1486.65  128.15
   4   6  -6 1323.20   61.75
   4   6  -6 1331.44  109.94
  -4   6  -7  170.96   32.90
  -4   6  -7  178.93   30.71
   4  -6  -7  203.00   61.09
   4  -6  -7  194.55   30.18
   4   6   7  170.23   30.18
   4   6   7  167.63   33.10
  -4  -6   7  162.18   28.52
  -4  -6   7  175.48   28.71
   4  -6   7  164.98   28.78
   4  -6   7  196.88   34.90
  -4   6   7  201.87   30.11
  -4   6   7  220.08   58.63
   4   6  -7  194.29   25.32
   4   6  -7  183.32   26.99
  -4   6  -8 1487.31  131.68
  -4   6  -8 1460.32   94.19
   4  -6  -8 1643.05  106.15
   4  -6  -8 1598.38  128.48
   4   6   8 1396.18   92.33
   4   6   8 1477.07   98.84
  -4  -6   8 1414.59   71.32
  -4  -6   8 1440.52   75.84
  -4   6   8 1660.20   99.64
   4  -6   8 1445.30   88.67
   4  -6   8 1528.79  140.78
  -4   6   8 1696.95  106.62
   4   6  -8 1382.75   68.99
   4   6  -8 1394.05   86.61
  -4   6  -9  454.18   48.32
  -4   6  -9  451.46   44.27
   4  -6  -9  460.10   87.47
   4  -6  -9  501.71   44.00
   4   6   9  426.86   74.18
   4   6   9  450.26   48.12
  -4  -6   9  478.51   32.97
  -4  -6   9  436.63   26.99
   4  -6   9  423.74   41.74
  -4   6   9  466.68   51.51
   4   6  -9  431.12   28.65
   4   6  -9  430.72   36.89
  -4   6   9  515.13   43.34
  -4   6 -10 1093.75  110.54
  -4   6 -10 1115.68   75.71
   4  -6 -10 1277.80   93.12
   4  -6 -10 1236.12   77.57
   4   6  10 1107.84   80.23
   4   6  10 1175.37   85.35
  -4   6  10 1436.53   83.55
   4  -6  10 1147.65  103.23
   4  -6  10 1206.68  118.71
  -4   6  10 1368.86  128.88
   4   6 -10 1150.45   53.91
   4   6 -10 1174.64   80.03
   4   6 -10 1149.18   67.53
  -4   6 -11   84.02   26.92
  -4   6 -11   99.11   40.88
   4  -6 -11   96.98   31.84
   4  -6 -11  108.34   36.36
   4   6  11   87.21   27.19
   4   6  11   95.38   28.18
   4  -6  11   98.24   40.21
   4  -6  11  107.95   46.99
  -4   6  11  131.68   17.88
  -4   6  11  103.56   31.51
   4   6 -11  103.49   19.67
   4   6 -11   98.77    9.97
   4   6 -11   94.05   15.29
   4   6 -11  104.42   17.02
  -4   6 -12  742.59   60.95
  -4   6 -12  704.17   54.04
   4  -6 -12  794.64   70.19
   4  -6 -12  821.16   78.30
   4   6  12  711.48   92.33
   4   6  12  735.35   62.68
   4  -6  12  693.34   53.24
  -4   6  12  864.56   71.59
   4   6 -12  726.11   46.53
   4   6 -12  709.76   50.12
  -4   6 -13  235.77   58.29
  -4   6 -13  295.99   51.25
   4  -6 -13  276.51   45.00
   4  -6 -13  311.54   47.39
   4   6  13  258.70   39.08
   4   6  13  244.94   38.75
   4  -6  13  262.02   32.10
   4  -6  13  273.25   64.87
  -4   6  13  296.58   44.60
   4   6 -13  283.29   51.98
   4   6 -13  274.85   45.07
  -4   6 -14  367.44   42.74
  -4   6 -14  381.33   37.09
   4  -6 -14  457.04   35.89
   4  -6 -14  407.65   52.38
   4   6  14  373.69   46.59
   4   6  14  432.71   72.12
   4  -6  14  389.91   39.22
   4  -6  14  425.34   46.73
  -4   6  14  488.95   86.74
   4   6 -14  396.09   40.28
   4   6 -14  402.47   55.77
  -4   6 -15   32.17   21.07
  -4   6 -15   36.36   16.48
   4  -6 -15   56.03   14.56
   4  -6 -15   39.08   44.67
   4   6  15   34.50   22.73
   4   6  15    0.47   15.95
   4  -6  15   59.09   31.97
   4  -6  15   54.50   22.47
  -4   6  15   62.28   26.59
   4   6 -15   60.49   19.81
   4   6 -15   59.96   28.65
  -4   6 -16  214.10   35.96
  -4   6 -16  219.61   44.27
   4  -6 -16  327.63   73.65
   4  -6 -16  272.92   25.06
   4   6  16  208.91   37.16
   4  -6  16  187.97   30.24
   4  -6  16  213.10   35.96
  -4   6  16  219.41   43.34
   4   6 -16  207.72   48.59
  -4   6 -17  121.24   21.00
   4   6  17  118.78   50.58
  -4   6 -17  123.90   50.18
   4  -6  17  106.22   24.46
   4  -6  17  119.98   29.25
  -4   6  17  108.74   62.61
   4   6 -17   95.12   42.61
  -4   6 -18   73.45   46.33
  -4   6 -18   80.03   18.35
   4   6  18   83.09   27.52
   4  -6  18   86.14   40.81
   4  -6  18  116.19   44.93
  -4   6  18  118.51   34.90
   4   6 -18   85.88   42.74
  -4   7   0    4.45   17.55
   4  -7   0    5.98   16.09
  -4   7   0   10.10   28.65
   4   7   0    7.31    8.24
   4   7   0    5.85   15.89
  -4  -7   0    5.32   13.36
  -4  -7   0    9.04    4.52
   4  -7   0   14.42   18.54
  -4   7  -1  137.92   53.57
  -4   7  -1  141.91   30.04
   4  -7  -1  149.42   33.63
   4  -7  -1  149.62   30.58
   4   7   1  135.33   10.17
   4   7   1  134.00   30.31
  -4  -7   1  134.53   24.06
  -4  -7   1  144.10   16.22
   4  -7   1  108.61   57.89
   4  -7   1  100.24   50.25
  -4   7   1  118.78   31.51
  -4   7   1   96.85   28.65
  -4  -7  -1   96.71   25.39
  -4  -7  -1   91.00    8.57
   4   7  -1   90.46    9.97
   4   7  -1  100.37   47.92
  -4   7  -2   38.95   21.93
   4  -7  -2   33.63   34.36
   4  -7  -2   32.64   37.49
   4   7   2   21.87    9.64
   4   7   2   34.90   34.70
  -4  -7   2   30.71   15.15
  -4  -7   2   34.10   11.57
  -4   7  -2   29.58   20.94
  -4   7   2   23.66   19.61
   4  -7   2   21.93   19.54
   4  -7   2   22.87   23.33
  -4   7   2   31.44   21.07
  -4  -7  -2   25.06   18.21
  -4  -7  -2   15.35    7.78
   4   7  -2   -1.66   19.48
   4   7  -2   24.79    6.51
  -4   7  -3   98.97   54.44
  -4   7  -3  104.02   33.83
   4  -7  -3  122.57   32.70
   4  -7  -3  122.57   30.64
   4   7   3  104.89   31.51
  -4  -7   3   94.19   21.93
  -4  -7   3   98.71   12.16
   4  -7   3  156.07   30.31
   4  -7   3  154.61   36.16
  -4   7   3  175.74   53.91
  -4  -7  -3  137.66   50.05
  -4  -7  -3  160.12   12.10
   4   7  -3  145.57   12.30
   4   7  -3  133.74   29.91
  -4   7   3  172.95   52.78
  -4   7  -4  154.34   35.30
  -4   7  -4  156.67   58.49
   4  -7  -4  142.71   56.57
   4  -7  -4  152.28   57.89
   4   7   4  154.61   34.23
  -4  -7   4  127.29   22.33
  -4  -7   4  145.97   14.36
   4  -7   4  148.49   53.71
   4  -7   4  169.83   37.55
  -4   7   4  179.53   56.23
  -4  -7  -4  148.49   52.58
   4   7  -4  155.60   13.69
   4   7  -4  137.79   30.84
  -4   7   4  169.89   31.64
  -4   7  -5  146.17   58.16
  -4   7  -5  154.14   32.64
   4  -7  -5  166.04   32.04
   4  -7  -5  161.52   32.10
   4   7   5  159.33   33.90
  -4  -7   5  123.50   20.54
  -4  -7   5  167.04   23.60
   4  -7   5  111.40   30.51
   4  -7   5  136.13   35.36
  -4   7   5  134.60   32.24
  -4   7   5  132.74   30.58
  -4  -7  -5  128.68   31.37
   4   7  -5    1.00   47.99
   4   7  -5  106.82   12.96
  -4   7  -6  257.24   39.88
  -4   7  -6  238.29   67.67
   4  -7  -6  285.62   67.13
   4  -7  -6  289.61   64.14
   4   7   6  253.25   43.47
  -4  -7   6  222.01   25.13
  -4  -7   6  270.93   21.54
  -4   7   6  260.96   65.67
   4  -7   6  249.99   36.43
   4  -7   6  268.40   75.44
  -4   7   6  314.80   39.55
  -4  -7  -6  268.47   41.34
   4   7  -6  250.52   35.69
   4   7  -6  211.11   27.92
  -4   7  -7   44.67   45.46
  -4   7  -7   51.45   25.39
   4  -7  -7   57.43   26.19
   4  -7  -7   72.32   24.33
   4   7   7    3.19   25.13
   4   7   7   57.56   27.98
  -4  -7   7   50.05   14.76
  -4  -7   7   53.04   10.57
  -4   7   7   88.40   25.52
   4  -7   7   66.87   25.19
   4  -7   7   68.26   49.79
  -4   7   7   84.62   24.26
  -4  -7  -7   72.72   26.99
   4   7  -7    0.60   35.89
   4   7  -7   71.92   11.70
  -4   7  -8  565.32   56.30
   4  -7  -8  648.34   93.06
   4  -7  -8  598.09   81.49
   4   7   8  518.66   55.90
   4   7   8  562.73   95.85
  -4  -7   8  499.12   35.96
  -4   7  -8  542.59   56.23
  -4   7   8  688.15   60.29
   4  -7   8  610.92   62.68
   4  -7   8  599.02   85.08
  -4   7   8  772.77   54.50
   4   7  -8  569.97   34.23
   4   7  -8  636.44   76.84
  -4   7  -9   71.25   27.05
  -4   7  -9   80.23   26.19
   4  -7  -9   78.70   28.18
   4  -7  -9   83.22   23.80
   4   7   9   78.83   27.45
   4   7   9   80.03   49.05
  -4  -7   9   81.82   22.93
   4  -7   9   58.36   24.73
   4  -7   9   61.09   29.65
  -4   7   9   60.02   47.79
   4   7  -9   56.23   13.63
   4   7  -9   57.83   20.27
  -4   7 -10  588.32   59.09
  -4   7 -10  605.27   56.17
   4  -7 -10  663.76   93.06
   4  -7 -10  673.13   56.23
   4   7  10  602.54   60.82
   4   7  10  641.82   98.57
  -4  -7  10  574.29   35.56
   4  -7  10  607.79   55.97
   4  -7  10  647.61   66.00
   4   7 -10  538.20   53.37
   4   7 -10  605.73   45.27
  -4   7  10  697.86   64.14
  -4   7 -11   34.50   24.26
  -4   7 -11   47.53   21.27
   4  -7 -11   43.80   25.19
   4  -7 -11   43.14   33.63
   4   7  11   46.86   40.61
   4   7  11   35.23   42.01
  -4  -7  11   35.83    9.51
   4  -7  11   53.44   26.32
   4  -7  11   37.75   37.49
  -4   7  11   64.01   25.06
   4   7 -11    2.79    8.91
   4   7 -11   60.35   13.63
   4   7 -11   57.16   13.96
  -4   7 -12  798.82  109.01
  -4   7 -12  732.69   93.65
   4  -7 -12  835.71   74.78
   4  -7 -12  849.54   62.55
   4   7  12  701.12   68.86
   4   7  12  739.27   71.32
  -4   7  12  951.50  116.92
   4  -7  12  818.70   75.97
   4  -7  12  782.14   64.87
   4   7 -12  771.37   50.58
  -4   7 -13   16.35   20.14
  -4   7 -13   19.94   16.15
   4  -7 -13   17.61   21.14
   4  -7 -13   20.41   14.22
   4   7  13   18.68   34.96
   4   7  13   18.41   19.54
   4  -7  13   17.28   17.41
   4  -7  13   22.53   21.14
  -4   7  13    0.00   10.90
  -4   7  13   25.06   22.27
   4   7 -13   14.96   21.87
  -4   7 -14  602.28   78.50
   4  -7 -14  704.44   50.92
   4  -7 -14  276.98   67.67
   4   7  14  621.95   64.34
  -4   7 -14  643.02   62.81
   4  -7  14  589.38   55.04
   4  -7  14  703.64  102.36
  -4   7  14  767.05   70.79
   4   7 -14  578.75   67.20
  -4   7 -15    5.45   14.69
  -4   7 -15    8.24   10.97
   4  -7 -15   -0.93    6.25
   4  -7 -15   11.70   15.55
   4   7  15   10.04   14.69
   4   7  15   -1.26    6.31
   4  -7  15    1.86   22.07
   4  -7  15    4.45   25.86
  -4   7  15    2.13   28.18
  -4   7  15    1.26    7.44
   4   7 -15    1.33    9.70
  -4   7 -16  786.06  115.06
  -4   7 -16  746.51   58.76
   4  -7 -16  935.75   83.42
   4   7  16  761.40  113.06
   4  -7  16  895.27   81.42
  -4   7  16  941.73   85.41
   4   7 -16  773.70   59.62
  -4   8   0 1070.35   87.27
   4  -8   0 1137.35   90.73
  -4   8   0 1211.20  100.04
   4  -8   0 1089.29   96.58
   4   8   0 1076.07  134.13
  -4  -8   0 1009.66   81.09
  -4  -8   0  993.38   47.86
  -4   8  -1  251.65   80.43
   4  -8  -1  302.77   46.13
   4  -8  -1  250.06   77.37
   4   8   1  234.64   45.33
  -4  -8   1  235.90   36.56
  -4  -8   1  177.74   14.09
  -4   8  -1  272.19   45.07
   4  -8   1  266.01   49.79
   4  -8   1  345.97   76.51
  -4   8   1  288.34   49.19
  -4   8   1  280.63   44.27
  -4  -8  -1  227.19   40.08
   4   8  -1  240.88   18.15
   4   8  -1  242.68   43.74
  -4   8  -2  906.24   80.89
  -4   8  -2 1004.48   92.33
   4  -8  -2 1038.31   83.75
   4  -8  -2  938.48   87.07
   4   8   2  863.83   85.88
  -4  -8   2  832.92   68.00
   4  -8   2  929.24   81.42
   4  -8   2  920.60   90.00
  -4   8   2 1067.36   90.66
  -4   8   2  979.62   80.96
  -4  -8  -2  863.90   78.37
   4   8  -2  904.64   47.06
   4   8  -2  909.56   81.62
  -4   8  -3  389.91   55.44
  -4   8  -3  376.55   58.43
   4  -8  -3  348.10   89.33
   4  -8  -3  441.29   56.50
   4   8   3  333.61   55.37
  -4  -8   3  322.91   64.41
   4  -8   3  353.08   53.64
   4  -8   3  368.57   95.45
  -4   8   3  436.10   88.67
  -4   8   3  394.89   83.15
  -4  -8  -3  363.39   52.05
   4   8  -3  345.97   24.13
   4   8  -3  335.20   50.12
  -4   8  -4 1140.48  142.24
  -4   8  -4 1197.44  151.55
   4  -8  -4 1234.20   99.30
   4  -8  -4 1267.10   97.38
   4   8   4 1170.65  150.69
  -4  -8   4 1051.27  105.69
   4  -8   4 1146.06   96.45
   4  -8   4 1201.23  156.14
  -4   8   4 1403.03  148.96
  -4   8   4 1260.39   95.18
  -4  -8  -4 1142.40  140.18
   4   8  -4 1073.01   56.76
   4   8  -4 1104.85   91.59
  -4   8  -5  214.30   49.45
  -4   8  -5  209.91   46.59
   4  -8  -5  237.76   45.46
   4  -8  -5  242.94   46.46
   4   8   5  213.23   78.83
  -4  -8   5  187.18   30.51
  -4   8   5  271.92   44.47
   4  -8   5  235.77   44.20
   4  -8   5  250.52   51.98
  -4   8   5  286.41   46.13
  -4  -8  -5  231.25   75.91
   4   8  -5  230.38   20.07
   4   8  -5  233.57   40.21
  -4   8  -6  957.69   89.07
  -4   8  -6  895.14   84.75
   4  -8  -6  976.10  121.37
   4  -8  -6  988.73   82.42
   4   8   6  893.81   88.80
  -4  -8   6  829.27   61.62
   4  -8   6  890.55  124.03
   4  -8   6 1006.14   96.38
  -4   8   6 1011.86   73.25
  -4   8   6 1032.60  124.50
  -4  -8  -6  959.48   89.00
   4   8  -6  828.74   62.95
   4   8  -6 1007.60   79.50
  -4   8  -7  372.96   88.20
   4  -8  -7  448.07   56.43
   4  -8  -7  419.82   52.98
   4   8   7  381.00   59.76
  -4  -8   7  357.80   35.96
  -4   8  -7  381.00   57.43
   4  -8   7  361.46   54.70
   4  -8   7  406.33   63.15
  -4   8   7  435.24   54.84
  -4  -8  -7  412.77   60.42
   4   8  -7  368.77   28.52
   4   8  -7  400.94   47.33
  -4   8  -8  874.80   82.62
  -4   8  -8  827.07   79.83
   4  -8  -8  923.19   80.29
   4  -8  -8  918.00  114.39
   4   8   8  835.58   86.08
  -4  -8   8  795.30   55.10
   4  -8   8  861.70   78.43
   4  -8   8  920.53   91.13
  -4   8   8  991.39   82.09
   4   8  -8  938.87   99.57
   4   8  -8  798.09   48.19
  -4   8  -9  110.27   59.49
   4  -8  -9  101.70   57.70
   4  -8  -9  135.00   32.84
   4   8   9  113.60   35.96
   4   8   9  115.52   38.62
  -4  -8   9  108.01   32.17
  -4   8  -9  101.23   61.75
   4  -8   9   93.65   59.29
   4  -8   9  131.48   41.14
  -4   8   9   93.19   61.82
   4   8  -9  119.98   43.40
   4   8  -9  102.89   18.35
  -4   8 -10  503.44   63.81
  -4   8 -10  505.96   60.62
   4  -8 -10  627.47   62.81
   4  -8 -10  598.55   58.36
   4   8  10  502.51   67.67
   4   8  10  487.22   64.14
  -4  -8  10  528.43   54.84
   4  -8  10  580.74   63.68
   4  -8  10  643.42   73.85
  -4   8  10  671.60   65.87
   4   8 -10  618.96   50.38
   4   8 -10  527.63   56.76
  -4   8 -11  240.68   48.06
  -4   8 -11  243.28   72.92
   4  -8 -11  317.06   68.06
   4   8  11  252.58   81.36
   4   8  11  248.06   49.72
  -4  -8  11  232.58   23.60
   4  -8  11  340.72   54.37
   4  -8  11  270.06   46.00
  -4   8  11  313.33   47.86
   4   8 -11  264.15   29.25
   4   8 -11  280.43   28.32
  -4   8 -12  363.52   89.87
  -4   8 -12  382.93   49.25
   4  -8 -12  419.22   45.60
   4   8  12  349.10   54.97
   4  -8  12  391.10   60.75
  -4   8  12  421.48   90.26
   4   8 -12  361.99   34.90
  -4   8 -13   49.72   34.17
   4  -8 -13   58.03   29.71
   4  -8  13   40.55   26.45
  -4   8  13    0.00   12.70
   4   8 -13   34.76   24.53
  -4   9   0    6.51   39.55
   4  -9   0    6.91   22.07
  -4   9   0    6.38   19.21
   4   9   0    3.99   20.74
  -4  -9   0    8.77   18.68
   4  -9   0    4.25   19.01
  -4   9  -1   59.89   59.76
  -4   9  -1   51.65   29.05
   4  -9  -1   60.62   50.65
   4  -9  -1   56.83   32.84
   4   9   1   40.15   32.04
  -4  -9   1   47.59   27.45
   4  -9   1   41.34   58.09
  -4   9   1   41.21   28.78
  -4  -9  -1   35.30   28.98
   4   9  -1    0.73   52.24
  -4   9   1   46.93   33.90
   4  -9   1   41.08   50.45
  -4   9  -2   56.63   30.71
  -4   9  -2   65.14   36.56
   4  -9  -2   54.70   29.71
   4  -9  -2   58.29   33.97
   4   9   2   42.41   58.89
  -4  -9   2   46.79   27.12
   4  -9   2   63.28   35.30
  -4   9   2   68.13   34.90
  -4   9   2   63.48   30.11
   4  -9   2   72.05   31.71
  -4  -9  -2   59.29   31.77
   4   9  -2   -0.80   30.64
  -4   9  -3    7.51   20.21
  -4   9  -3   10.30   23.86
   4  -9  -3    9.64   34.23
   4  -9  -3   11.37   37.16
   4   9   3   11.23   23.06
  -4  -9   3    2.79    4.39
  -4  -9   3    6.05   16.68
   4  -9   3   16.88   23.26
  -4   9   3   25.26   21.74
  -4   9   3   23.40   19.67
   4  -9   3   29.18   35.69
  -4  -9  -3   23.00   21.87
   4   9  -3   24.33   13.83
   4   9  -3   -0.40   20.01
  -4   9  -4  101.43   39.35
  -4   9  -4   91.73   74.25
   4  -9  -4  112.66   39.08
   4  -9  -4   89.33   34.83
   4   9   4  106.48   42.87
  -4  -9   4   87.54   29.51
   4  -9   4  130.08   37.89
   4  -9   4  122.04   42.61
  -4   9   4  204.99   53.64
  -4   9   4  104.62   62.15
  -4  -9  -4  108.88   70.52
   4   9  -4  124.10   26.79
   4   9  -4    0.13   58.49
  -4   9  -5  141.98   40.81
  -4   9  -5  148.43   42.21
   4  -9  -5  125.09   59.82
   4  -9  -5  156.47   39.62
  -4  -9   5  133.74   29.11
   4  -9   5  132.87   43.94
  -4   9   5   -2.86   24.46
  -4   9   5  166.11   37.02
  -4  -9  -5  120.18   72.45
   4   9  -5  128.22   17.22
   4   9  -5  140.05   36.03
  -4   9  -6   83.15   58.23
   4  -9  -6   98.11   31.57
  -4  -9   6   83.09   22.07
  -4  -9   6   -1.26   12.76
   4  -9   6   89.67   60.69
  -4   9   6   -0.33   19.08
  -4   9   6   96.78   29.45
  -4  -9  -6   78.63   35.43
   4   9  -6   58.96   44.47
   4   9  -6   84.28   13.63
   4  -9  -7  153.88   40.28
  -4  -9   7  125.96   27.19
   4  -9   7  123.23   80.49
  -4   9   7  148.36   38.49
   4   9  -7  117.78   31.57
   4   9  -7  140.12   34.30
   4  -9  -8  105.42   62.81
  -4  -9   8  107.88   24.93
   4  -9   8  105.75   76.37
   4   9  -8  113.93   19.28
   4   9  -8  140.65   31.77
   5   0   0    2.79    4.79
   5   0   0    3.72    9.24
  -5   0   0    2.66    4.85
  -5   0   1  298.65   22.87
   5   0   1  301.70   19.54
  -5   0  -1  307.09   19.21
  -5   0  -1  297.18   19.94
   5   0  -1  261.62   30.44
   5   0  -1  305.29   18.54
  -5   0   1  302.83   17.81
   5   0   1  283.42   16.28
   5   0   2  108.21   13.03
   5   0   2  112.27   12.89
  -5   0  -2  117.25   12.30
  -5   0  -2   96.38   11.50
   5   0  -2  106.55   17.08
   5   0  -2   92.39   12.76
  -5   0   2  100.50    9.64
  -5   0   2  100.43   10.30
  -5   0   3  258.30   15.09
   5   0   3  266.87   16.22
  -5   0  -3  264.48   18.88
  -5   0  -3  246.93   16.28
   5   0  -3  258.37   15.62
   5   0  -3  249.26   19.34
  -5   0   3  240.55   23.13
   5   0   3  260.23   19.41
   5   0   4  132.67   15.02
   5   0   4  118.65    6.38
  -5   0  -4  113.79   23.60
   5   0  -4  164.31   17.55
   5   0  -4  105.29   14.36
  -5   0   4  101.50   18.81
  -5   0   4  115.39    9.84
   5   0   5  236.50   20.34
   5   0   5  228.52   12.23
  -5   0  -5  231.64   31.51
  -5   0  -5  216.95   14.96
   5   0  -5  232.71   20.21
   5   0  -5  226.86   19.54
  -5   0   5  219.55   16.75
  -5   0   5  234.57   19.54
  -5   0   6 1042.10   49.45
   5   0   6  997.50   51.51
   5   0   6 1008.87   38.49
  -5   0  -6  980.75   50.32
  -5   0  -6  902.98   40.55
   5   0  -6  996.17   40.88
   5   0  -6  999.30   67.47
  -5   0   6  998.23   62.35
   5   0   7  179.60   19.21
   5   0   7  193.09   10.24
  -5   0  -7  183.45   18.88
  -5   0  -7  161.19   13.76
   5   0  -7  176.28   16.22
   5   0  -7  193.49   19.34
  -5   0   7  174.88   16.62
  -5   0   7  190.77   10.57
   5   0   8  411.91   13.76
   5   0   8  398.15   28.32
  -5   0  -8  377.74   41.88
  -5   0  -8  344.97   16.15
   5   0  -8  382.80   22.53
   5   0  -8  408.85   43.20
  -5   0   8  390.64   37.95
  -5   0   8  408.32   21.74
   5   0   9   98.51    7.44
   5   0   9   99.84   16.15
  -5   0  -9   93.52   15.62
  -5   0  -9   91.99   12.89
   5   0  -9   94.92    6.91
   5   0  -9   87.67   16.48
  -5   0   9   94.12   14.76
  -5   0   9   94.59    9.77
   5   0 -10 1732.91   90.80
   5   0  10 1736.90   87.61
   5   0  10 1725.54   68.26
  -5   0 -10 1682.26   84.68
  -5   0 -10 1577.44   74.71
   5   0 -10 1711.11   66.07
   5   0 -10 1669.44   71.65
  -5   0  10 1505.66   58.69
   5   0 -11  203.46    9.57
   5   0  11  187.71   21.87
   5   0  11  223.07    9.17
  -5   0 -11  200.20   34.63
  -5   0 -11  195.75   11.90
   5   0 -11  204.33   11.96
   5   0 -11  212.70   23.06
   5   0 -11  208.45   24.73
   5   0  12 1089.76   39.55
  -5   0 -12  980.82   55.83
  -5   0 -12  950.77   41.14
   5   0 -12 1005.61   37.89
   5   0 -12 1013.52   81.89
   5   0 -12 1071.95   88.47
   5   0 -12 1066.50   43.67
   5   0  12  946.25   75.18
   5   0  13   75.97   29.91
   5   0  13   89.93    6.25
  -5   0 -13   75.64   16.55
  -5   0 -13   82.82    8.97
   5   0 -13   85.68   19.14
   5   0 -13   92.72   35.63
   5   0 -14 2515.85  164.44
   5   0  14 2146.68  111.14
  -5   0 -14 2139.44   87.87
  -5   0 -14 2437.68  119.05
   5   0 -14 2475.57  171.56
   5   0  14 2312.26  122.10
   5   0  15   69.26   14.69
   5   0  15   80.63   16.95
  -5   0 -15   72.52    5.65
  -5   0 -15   87.54   15.29
   5   0 -15   87.47   39.22
   5   0 -15   79.83   20.47
   5   0  16  831.00   72.52
   5   0  16  843.89   67.53
  -5   0 -16  812.78   32.04
  -5   0 -16  945.39   42.47
   5   0 -16  924.05   62.41
   5   0 -16  942.40   97.31
   5   0  17   56.90   11.17
   5   0  17   37.95   15.22
   5   0 -17   33.23   20.07
   5   0 -17   41.94   39.22
   5   0 -18 1666.64  105.02
   5   0  18 1489.37   85.94
   5   0 -18 1676.48  150.82
   5   0  19    0.00    3.39
   5   0  19   14.22   13.96
   5   0 -19   13.89   20.87
   5   0 -19   15.95   23.33
   5   0  20  737.47   50.72
   5   0 -20  839.84   69.46
   5   0 -20  840.04   73.58
   5   0  21    0.27    3.06
   5   0  21   14.02   14.42
   5   0 -21   26.79   25.59
   5   0 -21   22.60   15.49
   5   0  22 1023.16   64.47
   5  -1   0 1878.35   94.72
   5  -1   0 2212.35  116.19
   5   1   0 2344.76  103.29
  -5   1   0 2242.66  101.23
  -5   1   0 2240.87  103.03
   5   1   0 1744.48   79.10
  -5  -1   0 2371.68   99.44
  -5  -1   0 2305.08  102.36
   5  -1  -1  954.50   44.87
  -5  -1   1  936.68   41.28
  -5   1  -1  939.07   44.33
  -5   1  -1  866.42   41.61
   5  -1  -1  836.18   62.68
   5   1   1  945.92   43.67
  -5  -1   1  960.28   42.94
   5   1   1  854.66   40.08
   5  -1   1  784.67   53.84
   5  -1   1  820.49   42.27
  -5   1   1  819.50   39.68
  -5   1   1  782.47   39.88
  -5  -1  -1  859.18   30.58
  -5  -1  -1  826.14   40.61
   5   1  -1  827.81   38.82
   5   1  -1  743.72   42.74
   5  -1  -2 4336.17  228.59
   5   1   2 4188.08  194.42
  -5   1  -2 4167.67  225.73
  -5   1  -2 4057.67  202.40
   5  -1  -2 4179.97  226.86
   5   1   2 4255.55  228.06
  -5  -1   2 4425.31  204.53
  -5  -1   2 4226.10  205.19
   5  -1   2 4448.44  220.28
  -5   1   2 4311.25  209.38
  -5   1   2 4316.70  216.69
  -5  -1  -2 4581.71  205.39
  -5  -1  -2 4467.91  219.08
   5   1  -2 4154.31  203.79
   5  -1   2 4342.29  212.17
   5  -1  -3  654.32   32.37
  -5   1  -3  620.89   48.39
  -5   1  -3  602.34   30.64
   5  -1  -3  645.55   41.81
   5   1   3  620.69   47.33
   5   1   3  728.10   25.72
  -5  -1   3  642.22   30.11
   5   1  -3  631.26   40.15
   5  -1   3  625.87   51.31
   5  -1   3  642.09   28.98
  -5   1   3  635.31   30.84
  -5   1   3  611.51   34.36
  -5  -1  -3  653.52   23.80
  -5  -1  -3  649.00   34.76
   5   1  -3  642.02   29.51
   5  -1  -4 1939.50  100.63
   5   1   4 2001.45  112.07
  -5   1  -4 1947.74   93.72
  -5   1  -4 1857.61   87.34
   5  -1  -4 1944.35  102.76
   5   1   4 1941.56   71.25
   5  -1   4 2114.11   96.85
  -5   1   4 2082.74   90.53
  -5   1   4 1997.06  112.27
  -5  -1  -4 2113.32   78.10
  -5  -1  -4 2077.56   97.31
   5   1  -4 2097.70   90.73
   5   1  -4 1982.11   95.05
   5   1  -4 2021.26   91.79
   5   1  -4 1988.29   84.75
   5  -1   4 2055.89  117.05
  -5   1  -5  700.25   38.75
  -5   1  -5  689.28   34.17
   5  -1  -5  651.40   58.96
   5  -1  -5  681.91   41.68
   5   1   5  749.90   21.67
   5   1   5  694.87   53.64
   5   1  -5  650.73   28.98
   5  -1   5  657.38   38.55
   5  -1   5  672.27   34.43
  -5   1   5  627.80   29.25
  -5   1   5  616.17   51.78
  -5  -1  -5  654.25   20.14
  -5  -1  -5  651.60   37.49
   5   1  -5  633.91   27.58
   5   1  -5  650.67   34.30
   5   1  -5  662.70   30.44
   5  -1  -6 3258.78  163.45
  -5   1  -6 3166.98  180.20
  -5   1  -6 3293.81  159.86
   5  -1  -6 3333.42  174.55
   5   1   6 3353.10  186.84
   5  -1   6 3386.60  157.80
   5  -1   6 3352.70  167.10
  -5   1   6 3343.52  168.43
  -5   1   6 3371.37  153.74
  -5  -1  -6 3338.87  165.31
   5   1  -6 3411.19  151.22
   5   1  -6 3207.93  167.44
   5   1  -6 3410.39  184.92
   5   1  -6 3455.13  156.20
   5  -1  -7  710.75   40.28
  -5   1  -7  727.84   41.08
  -5   1  -7  677.59   46.13
   5  -1  -7  714.28   45.46
   5   1   7  741.40   58.49
   5  -1   7  727.90   28.38
   5  -1   7  720.52   41.88
  -5   1   7  710.09   58.23
  -5   1   7  733.62   38.29
  -5  -1  -7  587.32   38.29
   5   1  -7  781.21   38.95
   5   1  -7  734.22   28.85
   5   1  -7  735.28   40.15
   5   1  -7  748.84   36.49
  -5   1  -8 1247.96   63.54
  -5   1  -8 1263.84   71.72
   5  -1  -8 1346.00   94.65
   5   1   8 1288.37   65.41
   5   1   8 1289.03   84.95
   5  -1  -8 1244.77   60.55
   5  -1   8 1289.90   56.57
   5  -1   8 1215.45   64.34
  -5   1   8 1243.57   66.14
  -5   1   8 1235.86   57.43
   5   1  -8 1269.16   60.09
   5   1  -8 1242.44   55.83
   5   1  -8 1216.45   46.79
   5   1  -8 1255.53   64.28
  -5   1  -9  604.87   53.71
  -5   1  -9  579.08   40.75
   5  -1  -9  574.62   40.61
   5  -1  -9  556.41   24.13
   5   1   9  576.75   36.03
   5   1   9  577.22   37.16
   5   1  -9  583.33   27.98
   5  -1   9  551.03   36.82
   5  -1   9  587.92   29.18
  -5   1   9  547.84   37.75
  -5   1   9  554.29   22.67
   5   1  -9  631.32   48.85
   5   1  -9  558.14   25.26
   5   1  -9  586.92   52.44
   5  -1 -10 1505.86   71.12
  -5   1 -10 1533.84   79.10
  -5   1 -10 1557.70   84.28
   5  -1 -10 1549.86   86.21
   5   1  10 1521.61   79.10
   5   1  10 1419.58   73.91
   5   1 -10 1596.92   61.82
   5  -1  10 1528.52   79.63
  -5   1  10 1590.34  108.48
  -5   1  10 1561.22   67.40
   5   1 -10 1538.16   57.63
   5   1 -10 1575.32   82.02
   5   1 -10 1584.89   77.30
   5  -1  10 1591.53   63.01
   5  -1 -11  281.83   20.34
  -5   1 -11  277.31   40.48
  -5   1 -11  313.80   20.01
   5  -1 -11  276.64   49.05
   5   1  11  285.15   39.95
   5   1  11  275.45   26.26
   5  -1  11  319.98   14.56
   5  -1  11  285.35   42.41
  -5   1  11  295.06   28.91
  -5   1  11  273.25   16.02
   5   1 -11  320.11   14.29
   5   1 -11  322.04   28.52
   5   1 -11  308.55   24.99
   5   1 -11  328.42   12.70
  -5   1 -12 1010.13   55.30
  -5   1 -12 1045.23   47.86
   5  -1 -12 1007.94   87.07
   5   1  12  961.01   74.64
   5   1  12  926.25   52.05
   5  -1 -12 1088.70   49.12
   5  -1  12  906.30   74.64
  -5   1  12  848.14   77.04
  -5   1  12  801.08   33.90
  -5  -1 -12  847.41   33.23
  -5  -1 -12  893.41   30.24
   5   1 -12 1034.32   74.05
   5   1 -12  959.68   31.77
   5   1 -12  942.60   57.36
   5   1 -12  941.07   34.96
   5  -1  12  916.47   43.27
   5   1  13  237.76   22.80
  -5   1 -13  254.71   26.45
  -5   1 -13  252.85   38.09
   5  -1 -13  277.24   31.31
   5  -1 -13  287.81   15.82
   5   1  13  252.78   41.21
   5   1 -13  247.86   25.26
   5  -1  13  257.30   19.94
   5  -1  13  233.24   25.19
  -5   1  13  230.05   28.45
  -5   1  13  231.38    8.44
  -5  -1 -13  190.83   10.83
  -5  -1 -13  229.25    7.44
   5   1 -13  244.67   28.18
  -5   1 -14  754.29   37.89
  -5   1 -14  728.04   44.67
   5  -1 -14  773.37   54.84
   5   1  14  674.53   60.29
   5   1  14  705.50   46.59
   5  -1 -14  758.15   56.37
   5  -1  14  826.28   41.01
  -5  -1 -14  674.99   26.19
  -5  -1 -14  626.47   23.33
   5   1 -14  788.46   49.25
   5   1 -14  787.26   53.51
   5  -1  14  753.16   47.59
   5   1  15  142.44   19.41
  -5   1 -15  155.40   23.80
  -5   1 -15  151.42   33.23
   5  -1 -15  166.57   28.65
   5  -1 -15  157.80   29.05
   5   1  15  149.29   21.80
   5  -1  15  172.15   18.08
   5  -1  15  156.47   21.80
   5   1 -15  170.36   27.58
   5   1 -15  187.91   39.68
   5  -1 -16  373.09   43.14
  -5   1 -16  380.67   24.79
  -5   1 -16  371.10   30.38
   5  -1 -16  393.70   42.07
   5   1  16  334.14   43.54
   5   1  16  348.03   50.18
   5  -1  16  412.17   28.25
   5  -1  16  352.88   48.59
   5   1 -16  369.83   35.36
   5   1 -16  388.25   40.48
  -5   1 -17   94.65   12.50
  -5   1 -17   86.74   16.35
   5  -1 -17   93.99   25.86
   5  -1 -17   92.92   26.19
   5   1  17   81.49   17.75
   5   1  17   98.17   13.63
   5  -1  17   41.34    8.71
   5  -1  17   91.53   17.81
   5   1 -17  100.50   24.93
   5   1 -17   90.86   21.40
  -5   1 -18   93.26   22.80
   5  -1 -18  107.35   30.11
   5  -1 -18  104.09   28.91
   5   1  18  103.43   32.90
   5  -1  18  103.82   19.54
   5   1 -18  113.73   41.48
   5   1 -18  129.48   28.58
  -5   1 -19  101.96   21.60
   5  -1 -19  117.65   32.10
   5  -1 -19  109.74   31.11
   5   1  19   96.51   20.14
   5  -1  19  109.87   32.30
   5   1 -19  121.97   26.39
   5   1 -19  105.22   51.51
   5  -1 -20   89.67   52.71
   5  -1 -20   96.05   31.11
   5   1  20   93.72   18.68
   5  -1  20   74.25   18.28
   5   1 -20   60.55   44.93
   5   1 -20   61.02   52.78
   5  -1 -21   63.81   31.11
   5  -1 -21   62.35   30.58
   5   1  21   70.72   17.75
   5  -1  21   67.20   17.15
   5   1 -21   76.11   26.99
   5   1 -21   66.67   30.24
   5   1  22    2.19    6.78
   5   1  22   22.47   11.17
   5  -1  22    0.73    6.12
   5  -1  22   36.36   10.97
   5   2   0   52.84    3.52
   5  -2   0   56.96   11.43
  -5   2   0   48.59   12.43
   5   2   0   58.63   10.50
   5   2   0   54.37   16.42
   5   2   0   49.79    8.97
   5  -2   0   49.19   12.50
  -5   2   0   57.10   18.01
  -5   2  -1  158.93   16.15
  -5   2  -1  153.54   17.55
   5  -2  -1  164.24   19.81
   5  -2  -1  164.91   27.12
   5   2   1  170.23    7.51
   5   2   1  165.31   14.82
   5   2   1  135.66   10.77
   5   2   1  162.52   16.09
  -5   2   1  143.04   24.19
   5  -2   1  131.81   26.65
   5  -2   1  139.52   16.75
  -5   2   1  134.00   17.48
   5   2  -1  139.92   14.16
   5   2  -1  142.31   21.54
   5   2  -1  143.57   14.62
   5   2  -1  171.02   10.44
  -5   2  -2  353.88   24.66
  -5   2  -2  385.12   26.92
   5  -2  -2  365.18   29.91
   5  -2  -2  350.03   23.46
   5   2   2  406.06   13.03
   5   2   2  350.36   22.80
   5   2   2  378.47   11.17
   5   2   2  371.96   24.86
  -5   2   2  312.47   21.34
   5  -2   2  317.79   22.33
   5   2  -2  332.54   30.78
   5  -2   2  311.94   38.09
  -5   2   2  289.87   25.59
   5   2  -2  315.40   18.94
   5   2  -2  320.51   16.75
   5   2  -2  320.78   13.23
  -5   2  -3  203.99   29.51
  -5   2  -3  222.94   19.41
   5  -2  -3  206.72   22.93
   5  -2  -3  189.17   16.22
   5   2   3  198.14   18.21
   5   2   3  189.37   17.22
   5  -2   3  167.37   19.21
   5  -2   3  170.23   15.22
  -5   2   3  163.65   14.56
  -5   2   3  158.20   19.14
   5   2  -3  165.77   13.89
   5   2  -3  164.98   12.43
   5   2  -3  164.58    9.17
   5   2  -3  168.23   12.03
  -5   2  -4  164.58   16.88
  -5   2  -4  171.56   16.55
   5  -2  -4  162.65   22.20
   5  -2  -4  160.26   21.93
   5   2   4  162.85   16.62
   5   2   4  151.88   15.49
  -5   2   4   92.52   11.43
   5  -2   4  101.43   16.68
   5   2  -4   91.99   10.30
   5  -2   4   91.93   18.48
  -5   2   4   87.74   27.65
   5   2  -4   96.85   15.29
   5   2  -4   97.51    7.78
   5   2  -4   98.57   16.02
  -5   2  -5  474.72   31.24
  -5   2  -5  473.46   44.53
   5  -2  -5  457.57   37.42
   5  -2  -5  440.42   24.99
   5   2   5  472.33   30.24
   5   2   5  464.29   29.51
   5  -2   5  439.29   22.73
  -5   2   5  404.46   31.04
   5   2  -5  415.76   19.21
   5   2  -5  412.51   19.01
   5   2  -5  415.10   22.53
   5   2  -5  401.41   20.94
  -5   2   5  406.72   22.47
   5  -2   5  435.84   31.24
  -5   2  -6  483.16   49.52
  -5   2  -6  473.46   47.06
   5  -2  -6  514.47   62.81
   5  -2  -6  457.97   25.72
   5   2   6  469.20   32.24
   5   2   6  485.82   48.06
   5  -2   6  521.25   34.03
  -5   2   6  493.20   25.13
   5  -2   6  518.86   52.58
  -5   2   6  512.87   36.62
   5   2  -6  530.69   32.44
   5   2  -6  526.77   28.18
   5   2  -6  522.18   24.00
   5   2  -6  523.38   37.89
  -5   2  -7  332.88   27.32
  -5   2  -7  326.16   41.68
   5  -2  -7  322.57   33.97
   5  -2  -7  309.08   20.14
   5   2   7  320.45   27.85
   5   2   7  326.83   43.40
   5  -2   7  430.19   20.67
   5  -2   7  431.18   47.92
  -5   2   7  412.24   20.74
  -5   2   7  438.50   32.70
   5   2  -7  410.45   26.19
   5   2  -7  422.61   22.40
   5   2  -7  427.06   21.80
   5   2  -7  422.41   25.26
  -5   2  -8  365.78   29.18
  -5   2  -8  402.34   41.08
   5  -2  -8  365.91   21.74
   5   2   8  358.33   29.31
   5   2   8  366.31   29.51
   5  -2   8  409.65   50.05
  -5   2   8  407.19   27.85
   5   2  -8  427.99   26.52
   5   2  -8  418.02   21.60
   5   2  -8  429.86   23.73
   5   2  -8  433.31   27.45
   5  -2   8  429.59   28.91
   5  -2  -9  536.21   43.47
  -5   2  -9  529.56   52.58
  -5   2  -9  537.53   32.70
   5  -2  -9  500.91   25.99
   5   2   9  509.75   34.83
   5   2   9  519.79   35.83
   5  -2   9  540.13   33.63
   5  -2   9  523.71   56.10
  -5   2   9  496.32   38.95
  -5   2   9  491.74   30.11
   5   2  -9  534.08   30.38
   5   2  -9  523.91   24.53
   5   2  -9  538.47   30.18
   5   2  -9  517.86   48.32
   5  -2 -10  809.13   57.03
  -5   2 -10  809.26   44.47
  -5   2 -10  770.77   46.40
   5  -2 -10  757.08   46.00
   5   2  10  720.46   62.61
   5   2  10  755.89   47.19
   5  -2  10  779.62   69.79
   5  -2  10  803.74   35.83
  -5   2  10  761.80   52.44
  -5   2  10  779.42   32.90
   5   2 -10  771.31   27.52
   5   2 -10  814.38   42.34
   5   2 -10  806.00   64.94
   5   2 -10  819.56   39.55
  -5   2 -11  829.00   60.89
  -5   2 -11  839.50   70.66
   5  -2 -11  899.79   42.41
   5   2  11  813.05   49.65
   5   2  11  850.47   52.38
   5  -2 -11  864.16   89.00
   5  -2  11  928.57   78.03
   5  -2  11  964.00   41.81
  -5   2  11  943.99   87.94
  -5   2  11  925.18   44.47
   5   2 -11 1138.75   69.13
   5   2 -11  912.02   31.31
   5   2 -11  973.31   75.58
   5   2 -11  977.83   44.20
  -5   2 -12  193.76   18.74
  -5   2 -12  192.49   21.87
   5  -2 -12  207.92   30.91
   5  -2 -12  212.30   21.40
   5   2  12  183.65   22.20
   5   2  12  180.33   39.15
   5  -2  12  219.95   21.40
   5  -2  12  190.50   24.73
  -5   2  12  200.14   29.18
  -5   2  12  196.88   10.57
   5   2 -12  192.03   20.21
   5   2 -12  191.50    7.84
   5   2 -12  194.89   11.57
   5   2 -12  216.36   40.81
  -5   2 -13  960.88   66.14
  -5   2 -13 1054.00   79.70
   5  -2 -13 1079.99   53.91
   5   2  13  929.84   55.44
   5   2  13  958.82   59.29
   5  -2 -13 1041.70   72.52
   5  -2  13  998.96   54.70
   5  -2  13  995.97   61.09
  -5   2  13  977.16   95.18
  -5   2  13  990.52   43.07
   5   2 -13  970.18   55.50
   5   2 -13 1012.26   86.81
   5  -2 -14  814.44   63.48
  -5   2 -14  775.89   43.54
  -5   2 -14  754.16   47.33
   5   2  14  763.00   50.85
   5   2  14  730.03   66.93
   5  -2  14  744.25   49.72
  -5   2  14  767.98   59.56
  -5   2  14  703.64   30.11
   5   2 -14  756.22   47.79
   5   2 -14  781.34   78.30
   5  -2  14  803.28   46.40
  -5   2 -15  920.46   67.00
  -5   2 -15  903.45   74.71
   5  -2 -15  901.32  105.42
   5   2  15  809.19   51.85
   5   2  15  874.20   81.49
   5  -2  15  913.15   56.83
   5  -2  15  964.93   54.90
   5   2 -15  943.66   79.76
   5   2 -15  966.46   91.66
  -5   2  15  945.32   68.66
  -5   2 -16  439.69   29.98
  -5   2 -16  426.27   32.50
   5  -2 -16  445.74   76.64
   5   2  16  431.98   36.29
   5   2  16  411.24   32.64
   5  -2  16  393.56   32.64
   5  -2  16  355.68   53.37
  -5   2  16  371.10   45.93
   5   2 -16  372.16   35.49
   5   2 -16  378.47   40.81
  -5   2 -17  769.25   44.93
  -5   2 -17  768.65   48.12
   5  -2 -17  897.20   71.92
   5  -2 -17  840.23  104.09
   5   2  17  757.68   51.78
   5  -2  17  692.61   49.72
   5  -2  17  764.73   49.65
   5   2 -17  716.34   53.44
   5   2 -17  719.99   61.02
  -5   2 -18  633.45   40.68
  -5   2 -18  619.49   60.49
   5  -2 -18  762.00  106.15
   5  -2 -18  692.74  100.63
   5   2  18  607.59   46.59
   5  -2  18  725.78   36.96
   5  -2  18  625.67   45.73
   5   2 -18  654.32   52.11
   5   2 -18  677.65   59.29
  -5   2 -19  658.11   59.09
  -5   2 -19  665.49   44.33
   5  -2 -19  706.50  106.42
   5  -2 -19  787.79   72.72
   5   2  19  643.49   48.79
   5  -2  19  769.78   40.48
   5  -2  19  673.13   69.79
   5   2 -19  739.33   87.41
   5   2 -19  729.43   64.14
  -5   2 -20  301.37   40.68
   5  -2 -20  385.12   86.74
   5  -2 -20  332.48   80.63
   5   2  20  302.77   50.65
   5  -2  20  275.51   30.38
   5   2 -20  293.59   40.35
   5   2 -20  290.14   72.85
  -5   2 -21  534.94   51.78
   5  -2 -21  683.57   70.92
   5   2  21  546.64   44.27
   5  -2  21  482.63   40.41
   5   2 -21  526.17   55.17
   5  -3   0   64.87   27.98
  -5   3   0   58.69   13.83
   5  -3   0   51.18   24.99
  -5   3   0   61.48   16.35
   5   3   0   54.57   12.76
   5   3   0   53.24   11.50
   5   3   0   62.02    3.59
   5   3   0   55.24    7.98
  -5   3  -1 2830.25  142.38
  -5   3  -1 3143.19  160.66
   5  -3  -1 2722.70  173.95
   5  -3  -1 2724.43  137.46
   5   3   1 2913.60  164.31
   5   3   1 2783.26  133.74
   5   3   1 3214.64  123.23
   5   3   1 2304.95   98.44
  -5   3   1 2693.46  157.07
   5  -3   1 2603.66  133.00
  -5   3   1 2917.26  178.74
   5   3  -1 2657.30  112.33
   5   3  -1 2607.85  129.42
   5   3  -1 2743.38  146.70
   5   3  -1 2905.56  131.87
   5  -3   1 2567.83  160.99
  -5   3  -2  358.40   28.32
  -5   3  -2  385.99   30.71
   5  -3  -2  399.81   56.50
   5  -3  -2  332.01   41.88
   5   3   2  328.89   40.48
   5   3   2  347.57   24.99
   5  -3   2  301.04   27.65
   5  -3   2  340.65   43.14
  -5   3   2  332.15   25.99
  -5   3   2  345.11   51.71
   5   3  -2  303.96   34.50
   5   3  -2  296.72   30.38
   5   3  -2  320.91   22.00
   5   3  -2  325.70   13.09
  -5   3  -3 3212.58  191.76
  -5   3  -3 3479.92  183.79
   5  -3  -3 3250.80  215.56
   5  -3  -3 3097.32  159.59
   5   3   3 3266.75  167.70
   5   3   3 3185.26  160.79
   5  -3   3 3566.59  211.17
   5  -3   3 3460.64  176.08
  -5   3   3 3546.25  189.64
   5   3  -3 3411.19  161.59
   5   3  -3 3498.93  172.09
   5   3  -3 3293.74  151.48
   5   3  -3 3505.04  171.29
  -5   3   3 3502.12  176.34
  -5   3  -4  126.49   20.67
  -5   3  -4  186.25   39.02
   5  -3  -4  130.28   25.72
   5  -3  -4  120.71   16.75
   5   3   4  130.41   19.74
   5   3   4  130.41   18.41
   5  -3   4  138.59   21.87
   5  -3   4  169.89   17.61
  -5   3   4  152.95   23.80
   5   3  -4  143.37   23.53
   5   3  -4  153.41   12.36
   5   3  -4  157.33    9.31
   5   3  -4  167.24   12.43
  -5   3   4  143.77   17.02
  -5   3  -5 2531.14  128.22
  -5   3  -5 2468.86  156.20
   5  -3  -5 2600.67  145.63
   5  -3  -5 2262.54  129.75
   5   3   5 2540.11  149.49
   5   3   5 2450.98  124.90
   5  -3   5 2379.26  124.90
   5  -3   5 2500.63  120.77
  -5   3   5 2233.82  124.70
   5   3  -5 2366.96  111.34
   5   3  -5 2428.84  118.25
   5   3  -5 2276.50  107.55
   5   3  -5 2416.81  123.43
  -5   3   5 2278.49  113.33
  -5   3  -6  211.77   24.79
  -5   3  -6  223.93   26.85
   5  -3  -6  192.16   56.57
   5  -3  -6  228.19   20.61
   5   3   6  212.83   24.73
   5   3   6  223.60   39.08
   5  -3   6  238.56   26.39
  -5   3   6  222.94   18.94
  -5   3   6  199.21   46.13
   5   3  -6  253.65   25.46
   5   3  -6  233.37   13.16
   5   3  -6  251.65   14.42
   5   3  -6  232.18   25.19
   5  -3   6  240.75   19.28
  -5   3  -7 2489.13  129.55
  -5   3  -7 2556.33  135.07
   5  -3  -7 2665.81  155.01
   5  -3  -7 2399.53  122.30
   5   3   7 2488.47  128.35
   5   3   7 2418.08  127.62
   5  -3   7 2490.66  134.33
  -5   3   7 2391.82  116.85
   5  -3   7 2523.16  132.94
  -5   3   7 2359.58  161.92
   5   3  -7 2402.32  112.73
   5   3  -7 2483.35  112.60
   5   3  -7 2779.80  139.32
   5   3  -7 2428.18  117.92
  -5   3  -8   80.23   21.67
  -5   3  -8   18.01   22.07
   5  -3  -8   16.35   18.01
   5  -3  -8   18.41    9.51
   5   3   8   17.88   12.96
   5   3   8   20.34   12.96
   5  -3   8   15.89   15.15
   5  -3   8   22.20   13.69
  -5   3   8   20.41   15.42
   5   3  -8   21.00    4.65
   5   3  -8   24.00    7.44
   5   3  -8   20.21    9.31
   5   3  -8   37.55   12.50
  -5   3   8   21.80    7.71
  -5   3  -9 1663.45   87.67
  -5   3  -9 1653.02   86.87
   5  -3  -9 1655.61   80.29
   5  -3  -9 1752.92  107.08
   5   3   9 1591.67  108.94
   5   3   9 1614.53   86.21
   5  -3   9 1483.79   70.39
  -5   3   9 1376.97   65.47
   5  -3   9 1518.22   85.68
  -5   3   9 1445.97   89.27
   5   3  -9 1474.42   58.09
   5   3  -9 1478.94   70.52
   5   3  -9 1592.80   71.65
   5   3  -9 1484.52   76.11
  -5   3 -10  191.70   22.47
  -5   3 -10  177.34   38.55
   5  -3 -10  166.97   53.31
   5  -3 -10  182.46   17.88
   5   3  10  190.30   39.62
   5   3  10  160.99   40.21
   5  -3  10  198.88   16.42
   5  -3  10  184.58   25.46
  -5   3  10  176.08   20.54
  -5   3  10  176.54   50.18
   5   3 -10  186.25   12.50
   5   3 -10  196.15   17.75
   5   3 -10  186.25   19.94
   5   3 -10  189.77   21.07
  -5   3 -11 1577.91  105.69
  -5   3 -11 1445.04   79.10
   5  -3 -11 1550.59   99.37
   5  -3 -11 1582.36   90.40
   5   3  11 1408.01   78.90
   5   3  11 1424.03   81.29
   5  -3  11 1392.86   66.93
  -5   3  11 1242.17   66.20
   5   3 -11 1421.64   57.16
   5   3 -11 1476.01   73.12
   5   3 -11 1367.33   68.20
   5   3 -11 1456.73   78.83
  -5   3  11 1459.79   91.59
   5  -3  11 1429.42   82.49
  -5   3 -12  120.24   18.15
  -5   3 -12  109.47   32.30
   5  -3 -12  120.71   28.98
   5  -3 -12  134.80   21.20
   5   3  12  112.47   19.28
   5   3  12  114.79   21.60
  -5   3  12  112.40   26.32
   5  -3  12  104.76   21.47
   5  -3  12  108.88   12.70
  -5   3  12   93.59    9.37
   5   3 -12  106.42   16.22
   5   3 -12   94.32   19.61
  -5   3 -13  480.57   50.72
  -5   3 -13  450.99   35.16
   5  -3 -13  463.62   80.83
   5  -3 -13  522.31   27.58
   5   3  13  454.32   59.56
   5   3  13  426.73   35.49
  -5   3  13  454.52   74.58
   5  -3  13  434.91   38.02
  -5   3  13  417.36   27.58
   5   3 -13  435.90   32.30
   5   3 -13  433.44   37.49
   5  -3  13  430.12   25.99
  -5   3 -14  176.48   20.74
  -5   3 -14  163.18   36.56
   5  -3 -14  175.35   56.90
   5  -3 -14  188.57   12.76
   5   3  14  169.89   37.02
   5   3  14  173.02   25.46
   5  -3  14  139.05   24.59
  -5   3  14  153.28   32.30
  -5   3  14  137.32    9.84
   5   3 -14  151.88   21.67
   5   3 -14  160.52   25.32
   5  -3  14  151.62   15.09
  -5   3 -15  553.22   39.42
  -5   3 -15  538.86   39.68
   5  -3 -15  600.55   60.35
   5   3  15  549.37   43.07
   5   3  15  582.27   46.73
   5  -3  15  605.13   67.00
  -5   3  15  613.84   85.68
   5   3 -15  626.74   63.88
   5   3 -15  631.85   75.04
   5  -3  15  613.04   32.97
  -5   3 -16  108.34   30.91
  -5   3 -16  115.66   19.21
   5   3  16  123.10   20.61
   5   3  16  116.92   39.68
   5  -3 -16  113.20   32.70
   5  -3  16   98.91   36.96
   5  -3  16  105.49   13.89
  -5   3  16   81.76   30.44
   5   3 -16   99.44   36.36
   5   3 -16   92.72   43.54
  -5   3 -17  152.15   35.03
  -5   3 -17  160.72   22.00
   5  -3 -17  174.48   39.22
   5   3  17  143.11   26.99
   5  -3  17  190.97   17.88
   5  -3  17  179.13   25.79
  -5   3  17  183.45   36.96
   5   3 -17  178.54   26.99
   5   3 -17  197.48   32.10
  -5   3 -18  117.25   19.87
  -5   3 -18  119.38   19.61
   5  -3 -18    2.19   36.49
   5  -3 -18  118.45   36.82
   5   3  18  111.14   23.93
   5  -3  18  152.48   26.06
  -5   3  18  142.71   35.36
   5   3 -18  140.45   26.06
   5   3 -18  144.10   30.38
   5  -3  18  130.41   22.67
  -5   3 -19  149.22   21.87
  -5   3 -19  148.29   34.10
   5  -3 -19  181.66   43.27
   5  -3 -19  155.67   41.08
   5   3  19  144.64   26.32
   5  -3  19  135.53   40.28
   5  -3  19  170.76   27.85
   5   3 -19  152.08   29.38
   5   3 -19  150.29   34.23
  -5   3 -20   44.67   14.22
  -5   3 -20   42.81   12.76
   5  -3 -20   52.84   52.38
   5   3  20   43.34   17.28
   5   3  20    0.93   12.50
   5  -3  20   51.05   11.37
   5  -3  20   -1.66   16.28
   5   3 -20   43.20   35.76
   5   3 -20   42.94   40.94
  -5   3 -21   17.75    9.37
  -5   3 -21    4.39    8.18
   5   3  21   -0.33    4.39
   5   3  21    4.59   11.63
   5  -3  21   -0.27    7.51
   5  -3  21   14.62   10.44
   5  -4   0  114.13   19.74
   5  -4   0  111.14   36.29
  -5   4   0  135.00   20.61
   5   4   0  120.11   18.01
   5   4   0  128.09   16.48
   5   4   0  127.75    7.25
   5   4   0  134.13    7.05
  -5   4   0  135.86   22.87
  -5   4  -1  196.02   25.59
   5  -4  -1  180.60   25.79
   5  -4  -1  154.41   22.93
   5   4   1  175.08    7.58
   5   4   1  173.68   19.48
   5   4   1  180.13   21.67
   5   4   1  189.84    7.31
  -5   4  -1  170.03   38.22
  -5   4   1  204.59   26.19
   5  -4   1  160.26   39.88
   5  -4   1  176.08   38.35
  -5   4   1  185.18   22.93
   5   4  -1  184.78   34.03
   5   4  -1  190.03   18.35
   5   4  -1  199.21    7.78
   5   4  -1  189.17   14.62
  -5   4  -2  270.99   27.58
  -5   4  -2  283.22   48.12
   5  -4  -2  276.51   30.84
   5  -4  -2  268.53   26.99
   5   4   2  271.59   25.92
   5   4   2  279.77   23.86
  -5   4   2  240.48   47.99
   5  -4   2  222.87   27.19
   5  -4   2  234.10   42.34
  -5   4   2  227.12   25.13
   5   4  -2  236.83   19.67
   5   4  -2  242.94   13.89
   5   4  -2  234.64   22.67
   5   4  -2  242.94   12.83
  -5   4  -3   23.26   13.29
  -5   4  -3   22.93   14.09
   5  -4  -3   27.05   15.89
   5  -4  -3   25.52   12.50
   5   4   3   23.80   21.93
   5   4   3   23.46   11.63
   5  -4   3   14.89   13.49
   5  -4   3   10.24   21.60
  -5   4   3   26.65   20.27
   5   4  -3   16.62    9.17
   5   4  -3   16.42   16.95
   5   4  -3   20.87    8.04
   5   4  -3   20.67    6.51
  -5   4   3   18.48   14.82
  -5   4  -4  174.55   39.48
  -5   4  -4  183.72   25.72
   5  -4  -4  188.51   49.59
   5  -4  -4  166.04   21.54
   5   4   4  174.68   38.49
   5   4   4  193.09   21.87
   5  -4   4  151.68   41.74
   5  -4   4  161.85   36.29
  -5   4   4  148.43   34.23
  -5   4   4  173.88   26.45
   5   4  -4  152.01   17.95
   5   4  -4  155.60   12.23
   5   4  -4  161.98   14.36
   5   4  -4  156.73   14.22
  -5   4  -5  595.70   46.93
   5  -4  -5  588.25   50.65
   5  -4  -5  529.89   55.37
   5   4   5  559.67   63.01
   5   4   5  565.19   40.08
  -5   4  -5  549.37   42.41
  -5   4   5  596.09   48.12
   5  -4   5  581.40   56.57
   5  -4   5  544.05   42.74
  -5   4   5  538.86   54.44
   5   4  -5  556.61   28.05
   5   4  -5  560.60   24.33
   5   4  -5  555.28   37.55
   5   4  -5  588.65   51.38
  -5   4  -6  170.23   25.32
  -5   4  -6  167.90   46.53
   5  -4  -6  188.04   31.84
   5  -4  -6  167.63   22.27
   5   4   6  154.67   41.61
   5   4   6  179.73   24.19
   5  -4   6  194.36   34.30
   5  -4   6  195.09   26.72
  -5   4   6  185.58   20.87
   5   4  -6  200.14   23.66
   5   4  -6  201.73   19.08
   5   4  -6  191.23   12.96
   5   4  -6  206.19   29.91
  -5   4   6  202.00   48.59
  -5   4  -7  319.65   33.17
  -5   4  -7  313.14   31.71
   5  -4  -7  290.27   64.54
   5  -4  -7  315.06   28.71
   5   4   7  317.72   50.38
   5   4   7  302.83   52.38
  -5   4   7  337.99   37.95
   5  -4   7  333.81   42.07
   5  -4   7  360.26   34.50
  -5   4   7  325.03   26.52
   5   4  -7  342.78   32.24
   5   4  -7  321.18   16.95
   5   4  -7  335.20   19.08
   5   4  -7  349.16   24.53
  -5   4  -8  200.20   42.34
  -5   4  -8  198.08   25.99
   5  -4  -8  215.49   34.90
   5  -4  -8  199.34   36.96
   5   4   8  184.12   42.94
   5   4   8  193.76   42.61
   5  -4   8  194.62   33.43
   5  -4   8  197.55   27.85
  -5   4   8  182.99   19.94
  -5   4   8  194.29   30.91
   5   4  -8  196.08   28.18
   5   4  -8  184.05   11.57
   5   4  -8  187.97   15.15
   5   4  -8  196.81   17.41
  -5   4  -9  981.68   62.88
  -5   4  -9  985.47   85.75
   5  -4  -9  974.90  110.94
   5  -4  -9 1052.34   79.36
   5   4   9  948.91   87.41
   5   4   9  944.33   62.68
   5  -4   9 1021.63   72.12
   5  -4   9 1019.90   66.27
  -5   4   9  961.01   69.13
   5   4  -9 1016.71   71.19
   5   4  -9  980.62   46.99
   5   4  -9 1039.84   51.98
   5   4  -9 1011.79   62.41
  -5   4   9 1047.35   73.12
  -5   4 -10  121.70   23.13
  -5   4 -10  126.56   22.53
   5  -4 -10  132.47   34.50
   5  -4 -10  137.72   31.04
   5   4  10  122.97   40.48
   5   4  10  126.49   24.39
  -5   4  10  127.02   51.25
   5  -4  10  152.68   30.04
   5  -4  10  163.45   26.19
  -5   4  10  127.69   25.39
   5   4 -10  144.04   18.94
   5   4 -10  151.22   22.27
   5   4 -10  136.26   12.36
   5   4 -10  145.50   25.32
  -5   4 -11  674.93   72.32
   5  -4 -11  723.25   68.86
   5  -4 -11  735.55   60.62
   5   4  11  658.04   50.65
   5   4  11  648.87   76.17
  -5   4 -11  684.90   50.18
  -5   4  11  755.02   62.55
   5  -4  11  740.27   58.49
   5  -4  11  789.85   55.70
  -5   4  11  671.74   49.19
   5   4 -11  736.01   46.79
   5   4 -11  726.44   31.97
   5   4 -11  737.54   36.89
   5   4 -11  781.94   42.67
  -5   4 -12  167.83   37.55
  -5   4 -12  147.10   22.87
   5  -4 -12  141.05   59.62
   5  -4 -12  180.80   28.12
   5   4  12  150.29   24.39
   5   4  12  156.27   26.39
   5  -4  12  131.54   26.39
   5  -4  12  138.72   28.78
  -5   4  12  117.05   30.24
  -5   4  12  110.14   12.63
   5   4 -12  127.95   21.20
   5   4 -12  131.14   17.61
  -5   4 -13  894.87   57.30
  -5   4 -13  890.68   78.70
   5  -4 -13  962.60   79.30
   5  -4 -13  959.01   49.19
   5   4  13  834.65   57.56
   5   4  13  871.74   61.75
  -5   4  13  651.93   33.90
   5  -4  13  834.05   60.15
   5  -4  13  821.16   46.06
  -5   4  13  813.25  104.42
   5   4 -13  849.34   56.17
   5   4 -13  874.80   50.52
  -5   4 -14   81.96   20.74
  -5   4 -14   82.49   19.74
   5  -4 -14   88.74   34.23
   5  -4 -14  108.34   13.83
   5   4  14   83.62   21.47
   5   4  14   80.83   40.55
   5  -4  14   98.51   15.49
   5  -4  14   97.84   23.46
  -5   4  14   79.90   29.58
   5   4 -14   79.76   21.74
   5   4 -14  101.96   18.35
  -5   4  14   81.42   15.29
  -5   4 -15  959.08   85.21
  -5   4 -15  974.50   61.22
   5  -4 -15 1135.02   92.66
   5   4  15  965.79   69.13
   5   4  15  959.15   91.20
   5  -4  15 1027.61   56.23
   5  -4  15 1024.29   96.45
  -5   4  15  993.25  119.78
   5   4 -15  983.28   96.38
   5   4 -15 1025.22   86.08
  -5   4 -16  118.71   21.80
  -5   4 -16  112.73   33.70
   5  -4 -16  122.24   66.20
   5   4  16  116.45   25.66
   5  -4  16  108.15   16.55
   5  -4  16    0.66   40.41
  -5   4  16   89.07   32.97
   5   4 -16  104.56   37.16
   5   4 -16  110.27   44.40
  -5   4 -17 1013.25   66.60
  -5   4 -17  983.87   61.02
   5  -4 -17 1047.29  138.26
   5   4  17 1008.40  103.36
   5  -4  17  940.40   66.80
   5  -4  17 1004.88   56.76
  -5   4  17  930.57   83.35
   5   4 -17  998.10   95.18
   5   4 -17  991.12   74.64
  -5   4 -18   27.98   14.36
  -5   4 -18   26.99   21.00
   5  -4 -18   32.97   42.47
   5   4  18   28.25   16.62
   5   4  18    0.66   11.96
   5  -4  18    0.13   19.21
   5  -4  18    0.33   14.82
  -5   4  18   21.34   39.22
   5   4 -18   22.60   16.15
   5   4 -18   24.46   18.41
  -5   4 -19 1088.56   99.77
  -5   4 -19 1075.00   87.01
   5   4  19 1114.95  110.67
   5  -4  19 1133.96   83.95
   5  -4  19 1048.88   72.78
  -5   4  19 1058.45   94.05
   5   4 -19 1128.98   80.03
   5   4 -19 1018.31   82.82
  -5   4 -20   81.09   37.36
  -5   4 -20   75.84   17.68
   5   4  20   77.97   25.19
   5  -4  20   91.79   37.29
   5  -4  20   96.31   17.68
   5  -5   0 1105.51   74.64
   5  -5   0 1054.80   71.32
  -5   5   0 1093.81   72.25
   5   5   0 1035.39   89.00
   5   5   0 1059.78   41.01
   5   5   0 1066.23   38.75
   5   5   0 1054.66   81.62
  -5   5   0 1250.61  110.07
  -5   5  -1 1406.22  117.12
  -5   5  -1 1599.58   95.85
   5  -5  -1 1502.93   93.59
   5  -5  -1 1366.27   86.14
   5   5   1 1366.20   83.09
   5   5   1 1382.62  100.37
   5   5   1 1453.28   57.16
   5   5   1 1422.37   57.63
   5  -5   1 1367.60  117.38
   5  -5   1 1415.19  122.83
  -5   5   1 1343.47   84.81
  -5   5   1 1666.71   99.30
   5   5  -1 1378.57   94.78
   5   5  -1 1345.40   62.41
   5   5  -1 1384.42   58.49
   5   5  -1 1434.40   84.55
  -5   5  -2  866.96   63.34
   5  -5  -2  809.92   63.01
   5  -5  -2  783.00   85.81
   5   5   2  733.95   70.92
   5   5   2  790.72   27.72
   5   5   2  723.85   53.57
   5   5   2  770.71   26.32
  -5   5  -2  730.63   56.76
   5  -5   2  781.21   59.76
   5  -5   2  766.92   56.70
  -5   5   2  729.43   55.10
   5   5  -2  747.11   61.55
   5   5  -2  756.09   32.70
   5   5  -2  783.47   30.18
   5   5  -2  776.16   52.38
  -5   5   2  859.38   60.75
  -5   5  -3 1439.72   90.93
  -5   5  -3 1553.98  129.28
   5  -5  -3 1612.07  139.78
   5  -5  -3 1457.73   90.46
   5   5   3 1421.97   87.34
   5   5   3 1423.37   82.42
  -5   5   3 1571.59   96.85
   5  -5   3 1425.23   92.33
   5  -5   3 1416.65   86.87
  -5   5   3 1374.58  112.73
   5   5  -3 1427.02   72.78
   5   5  -3 1373.91   88.27
   5   5  -3 1505.32   60.42
   5   5  -3 1489.97  110.80
  -5   5  -4 1040.31  103.76
  -5   5  -4 1023.56   73.78
   5  -5  -4 1082.05   79.16
   5  -5  -4 1083.98  100.10
   5   5   4 1031.27   98.37
   5   5   4  969.25   63.41
  -5   5   4 1177.76  112.66
   5  -5   4 1083.38   68.00
   5  -5   4 1109.57  108.74
  -5   5   4 1023.29   94.78
   5   5  -4 1022.23   53.18
   5   5  -4 1085.97   44.14
   5   5  -4 1017.24   57.56
   5   5  -4 1067.09   65.14
  -5   5  -5  880.98   67.67
  -5   5  -5  857.18   61.82
   5  -5  -5  933.56   72.52
   5  -5  -5  851.67   59.89
   5   5   5  845.29   85.88
   5   5   5  835.18   56.96
   5  -5   5  836.18   55.63
   5  -5   5  754.62   85.28
  -5   5   5  788.26   81.03
  -5   5   5  973.04   68.33
   5   5  -5  795.17   41.61
   5   5  -5  825.28   36.16
   5   5  -5  797.23   50.78
   5   5  -5  828.07   52.51
  -5   5  -6  690.21   59.29
  -5   5  -6  680.64   54.37
   5  -5  -6  709.22   95.91
   5  -5  -6  695.00   52.05
   5   5   6  666.88   51.18
   5   5   6  665.49   79.23
  -5   5   6  775.89   62.28
   5  -5   6  675.66   49.85
   5  -5   6  642.62   53.04
  -5   5   6  648.67   49.39
   5   5  -6  691.88   35.03
   5   5  -6  646.21   39.55
   5   5  -6  663.76   46.79
   5   5  -6  692.74   63.01
  -5   5  -7 1402.36   90.46
  -5   5  -7 1354.70   85.15
   5  -5  -7 1490.37  103.43
   5  -5  -7 1462.05  114.13
   5   5   7 1321.27  116.65
   5   5   7 1363.41  115.59
   5  -5   7 1354.51  106.75
   5  -5   7 1286.71   84.48
  -5   5   7 1325.33   81.03
   5   5  -7 1325.86   79.83
   5   5  -7 1279.99   71.19
   5   5  -7 1321.20   60.49
   5   5  -7 1338.49   76.77
  -5   5   7 1495.35  135.20
  -5   5  -8  687.49   58.69
  -5   5  -8  704.64   55.04
   5  -5  -8  770.58  103.09
   5  -5  -8  773.57   54.17
   5   5   8  699.79   81.69
   5   5   8  696.53   82.95
  -5   5   8  803.61   66.27
   5  -5   8  676.12   73.38
   5  -5   8  696.20   56.57
  -5   5   8  713.01   50.98
   5   5  -8  691.54   32.97
   5   5  -8  697.99   47.59
   5   5  -8  682.84   53.57
   5   5  -8  732.62   46.59
  -5   5  -9  563.79   49.59
  -5   5  -9  588.52   72.85
   5  -5  -9  598.69   44.27
   5  -5  -9  601.61   60.75
   5   5   9  530.16   73.78
   5   5   9  552.69   49.65
   5  -5   9  512.48   62.88
   5  -5   9  531.82   48.66
  -5   5   9  592.50   43.60
  -5   5   9  623.48   57.16
   5   5  -9  555.95   51.31
   5   5  -9  475.39   32.44
   5   5  -9  548.50   31.24
   5   5  -9  561.80   37.75
  -5   5 -10  531.35   45.27
   5  -5 -10  564.52   59.89
   5  -5 -10  550.90   40.08
   5   5  10  518.06   71.72
   5   5  10  543.52   48.12
  -5   5 -10  510.02   47.06
  -5   5  10  532.08   88.47
   5  -5  10  503.70   38.75
   5  -5  10  481.57   46.53
  -5   5  10  519.39   57.89
   5   5 -10  486.95   52.24
   5   5 -10  463.69   21.80
   5   5 -10  473.33   30.11
   5   5 -10  485.76   48.39
  -5   5 -11  899.92   64.87
  -5   5 -11  912.62   90.20
   5  -5 -11  970.71  124.43
   5  -5 -11  914.08   75.84
   5   5  11  924.12   98.77
   5   5  11  845.22   96.85
   5  -5  11  845.49   54.37
   5  -5  11  814.31   64.81
  -5   5  11  978.29   73.32
   5   5 -11  843.36   54.44
   5   5 -11  871.87   65.07
   5   5 -11  828.60   59.36
  -5   5  11  944.72   78.97
  -5   5 -12  359.93   40.35
  -5   5 -12  341.52   36.49
   5  -5 -12  376.35   53.37
   5  -5 -12  413.77   47.66
   5   5  12  329.75   39.81
   5   5  12  343.58   40.68
   5  -5  12  365.05   41.21
   5  -5  12  359.86   31.51
   5   5 -12  355.28   32.90
   5   5 -12  363.05   43.47
  -5   5  12  390.97   49.52
  -5   5 -13  172.49   51.71
  -5   5 -13  162.98   46.86
   5  -5 -13  190.30   42.27
   5  -5 -13  185.71   35.03
   5   5  13  156.00   31.11
   5   5  13  153.54   32.17
   5  -5  13  217.82   24.13
   5  -5  13  191.23   30.84
  -5   5  13  229.65   66.27
   5   5 -13  210.11   26.79
   5   5 -13  210.51   36.96
  -5   5 -14  237.29   32.44
  -5   5 -14  221.08   29.18
   5  -5 -14  261.42   35.43
   5  -5 -14  244.54   76.04
   5   5  14  211.24   33.23
   5   5  14  221.87   58.29
   5  -5  14  198.14   24.53
   5  -5  14  193.36   32.04
  -5   5  14  218.48   43.27
   5   5 -14  199.14   47.46
   5   5 -14  207.58   24.99
  -5   5 -15  386.65   40.08
  -5   5 -15  387.12   35.43
   5  -5 -15  455.38   98.51
   5   5  15  204.59   28.45
   5   5  15  387.18   43.27
   5  -5  15  377.74   49.19
   5  -5  15  354.75   39.55
  -5   5  15  408.72   52.44
   5   5 -15  351.75   62.41
   5   5 -15  367.04   33.30
  -5   5 -16  151.02   28.91
  -5   5 -16  142.64   24.39
   5  -5 -16  174.02   46.13
   5   5  16  144.37   31.57
   5  -5  16  143.77   22.13
   5  -5  16  126.69   46.79
  -5   5  16  167.83   68.06
   5   5 -16  162.65   25.26
  -5   5 -17   45.66   34.56
  -5   5 -17   39.62   16.55
   5  -5 -17   55.77   33.10
   5   5  17   46.73   38.42
   5   5  17   -1.93   14.82
   5  -5  17   68.73   15.35
   5  -5  17   -0.73   37.16
  -5   5  17   68.40   29.11
   5   5 -17   73.05   31.97
  -5   5 -18  118.65   45.07
  -5   5 -18   84.95   36.36
   5   5  18  108.21   30.58
   5  -5  18  139.72   29.45
   5  -5  18  139.45   22.27
  -5   5  18  131.14   38.82
   5   5 -18  113.06   45.53
   5  -6   0    5.25   22.33
   5  -6   0   -0.13   13.03
  -5   6   0    9.97   21.80
  -5   6   0    1.66   22.73
   5   6   0    3.86    9.17
   5   6   0    2.26    4.59
   5   6   0    5.85   19.67
  -5   6  -1  183.39   34.30
   5  -6  -1  191.90   35.89
  -5   6  -1  219.68   35.23
   5  -6  -1  208.05   36.09
   5   6   1  175.88   26.26
   5   6   1  201.80   32.57
   5  -6   1  233.17   36.82
   5  -6   1  260.16   58.63
  -5   6   1  244.21   35.56
  -5   6   1  270.13   36.09
   5   6  -1  229.72   16.22
   5   6  -1  227.72   40.48
   5   6  -1  235.70   18.68
   5   6  -1  240.02   32.10
  -5   6  -2   71.79   26.79
   5  -6  -2   92.86   25.72
   5   6   2   61.09   20.21
   5   6   2   76.51   24.59
   5  -6  -2   87.87   47.26
  -5   6  -2   73.71   25.59
   5  -6   2   78.43   24.39
   5  -6   2   83.02   27.12
  -5   6   2   74.25   24.66
  -5   6   2   81.89   25.46
   5   6  -2   87.07    7.51
   5   6  -2   68.40   13.29
   5   6  -2   78.17   16.82
   5   6  -2   88.54   21.80
   5  -6  -3  128.75   29.71
  -5   6  -3  117.98   48.79
  -5   6  -3  111.07   28.58
   5  -6  -3  123.30   48.52
   5   6   3  103.89   22.93
   5   6   3  125.76   27.45
   5  -6   3  103.36   25.92
   5  -6   3  110.07   50.92
  -5   6   3   90.86   25.92
  -5   6   3  115.46   48.19
   5   6  -3   91.13   17.08
   5   6  -3  103.63   15.89
   5   6  -3  101.43   39.68
   5   6  -3  104.02   13.96
  -5   6  -4  121.77   30.18
  -5   6  -4  123.96   30.38
   5  -6  -4  142.31   32.10
   5  -6  -4  142.38   29.25
   5   6   4  118.38   24.33
   5   6   4  130.74   47.46
   5  -6   4  120.04   44.07
   5  -6   4  128.68   50.25
  -5   6   4  131.87   27.19
  -5   6   4  123.10   29.31
   5   6  -4  118.78   16.82
   5   6  -4  108.48   11.43
   5   6  -4  113.13   15.62
   5   6  -4  119.91   23.93
  -5   6  -5  211.57   64.94
   5  -6  -5  248.00   60.69
   5   6   5  222.41   32.90
   5   6   5  245.47   63.08
   5  -6  -5  241.22   68.53
  -5   6  -5  225.73   38.55
   5  -6   5  281.56   58.16
   5  -6   5  273.32   40.01
  -5   6   5  296.78   35.96
  -5   6   5  323.50   41.14
   5   6  -5  276.38   22.60
   5   6  -5  261.69   18.41
   5   6  -5  289.47   24.13
   5   6  -5  286.55   51.91
   5  -6  -6  257.90   44.20
  -5   6  -6  268.20   42.01
  -5   6  -6  258.70   66.00
   5  -6  -6  284.95   37.55
   5   6   6  253.38   58.36
   5   6   6  270.66   40.88
   5  -6   6  296.45   35.89
   5  -6   6  290.67   40.61
  -5   6   6  303.76   57.70
  -5   6   6  342.65   69.53
   5   6  -6  276.71   30.31
   5   6  -6  274.18   21.54
   5   6  -6  283.03   17.55
   5   6  -6  293.59   32.24
  -5   6  -7  102.50   49.85
  -5   6  -7  119.44   27.12
   5  -6  -7  133.00   24.79
   5   6   7  113.73   43.60
   5   6   7  121.70   29.45
   5  -6  -7  124.43   52.31
   5  -6   7   80.56   22.60
   5  -6   7   82.89   27.85
  -5   6   7   77.64   38.62
  -5   6   7   87.41   29.11
   5   6  -7   67.67   20.94
   5   6  -7   67.60   19.67
   5   6  -7   62.48   17.15
   5   6  -7   76.17   20.67
  -5   6  -8  494.53   51.11
  -5   6  -8  498.58   50.58
   5  -6  -8  537.34   59.09
   5  -6  -8  532.22   72.72
   5   6   8  471.20   48.59
   5   6   8  497.06   54.97
   5  -6   8  486.55   44.73
   5  -6   8  474.12   52.91
  -5   6   8  600.15   63.01
  -5   6   8  548.83   54.90
   5   6  -8  465.55   27.25
   5   6  -8  473.53   27.12
   5   6  -8  474.66   45.66
   5   6  -8  497.99   41.61
  -5   6  -9  112.20   29.31
   5  -6  -9  127.89   25.92
   5  -6  -9  118.65   35.56
   5   6   9  112.66   30.11
   5   6   9  130.08   32.57
  -5   6  -9  114.92   52.44
   5  -6   9  144.50   45.13
   5  -6   9  129.61   31.91
  -5   6   9  137.99   58.29
   5   6  -9  132.14   29.58
   5   6  -9  130.01   12.43
   5   6  -9  136.00   24.13
   5   6  -9  146.50   35.69
  -5   6 -10  456.11   49.72
   5  -6 -10  515.33   61.55
  -5   6 -10  454.98   48.92
   5  -6 -10  497.39   43.07
   5   6  10  460.83   82.09
   5   6  10  468.54   53.97
   5  -6  10  528.10   70.52
   5  -6  10  511.41   54.70
  -5   6  10  601.68   59.36
   5   6 -10  488.68   33.43
   5   6 -10  499.05   32.04
   5   6 -10  521.58   37.62
   5   6 -10  551.83   55.37
  -5   6 -11  138.85   31.37
  -5   6 -11  147.89   29.38
   5  -6 -11  159.46   39.15
   5  -6 -11  147.16   39.81
   5   6  11  146.90   32.97
   5   6  11  143.31   33.70
   5  -6  11  128.48   26.45
   5  -6  11  138.45   33.43
  -5   6  11  162.25   37.89
   5   6 -11  137.32   18.08
   5   6 -11  127.09   22.00
  -5   6 -12  618.10   54.04
   5  -6 -12  669.28   69.59
   5  -6 -12  654.12   68.26
   5   6  12  576.35   58.56
   5   6  12  606.80   92.59
  -5   6 -12  625.41   88.00
   5  -6  12  609.72   60.62
   5  -6  12  580.87   49.39
  -5   6  12  700.18  108.68
   5   6 -12  597.89   57.43
   5   6 -12  576.15   45.40
  -5   6 -13  181.59   35.69
  -5   6 -13  176.67   31.51
   5  -6 -13  171.89   76.64
   5  -6 -13  190.03   25.99
   5   6  13  181.19   62.68
   5   6  13  161.59   60.42
   5  -6  13  198.41   29.65
   5  -6  13  191.16   37.16
  -5   6  13  242.68   43.74
   5   6 -13  183.19   36.89
  -5   6 -14  530.02   48.72
   5  -6 -14  567.84   69.26
   5  -6 -14  637.11   43.80
   5   6  14  510.61   56.70
   5   6  14  580.47   75.97
  -5   6 -14  540.06   55.83
   5  -6  14  500.05   69.86
   5  -6  14  531.89   57.10
  -5   6  14  600.48  106.68
   5   6 -14  494.60   39.62
  -5   6 -15  125.03   57.10
  -5   6 -15  121.31   27.58
   5  -6 -15  145.04   42.74
   5  -6 -15  155.01   20.94
   5   6  15  117.85   34.17
   5  -6  15  139.65   26.26
   5  -6  15  143.64   33.77
  -5   6  15  167.30   42.34
   5   6 -15  141.84   23.26
  -5   6 -16  591.11   77.64
   5   6  16  593.44   96.78
  -5   6 -16  627.33   90.20
   5  -6  16  588.38   49.12
   5  -6  16  625.81   60.62
  -5   6  16  693.67   75.77
   5   6 -16  593.04   47.92
   5  -7   0 1926.80  128.62
  -5   7   0 1892.37  131.68
  -5   7   0 1873.30  168.76
   5  -7   0 1827.37  131.81
   5   7   0 1592.07  101.63
   5   7   0 1717.83  119.51
  -5   7  -1   11.50   36.62
  -5   7  -1    8.38   21.00
   5  -7  -1   21.07   38.09
   5   7   1   16.82   15.49
   5   7   1   18.74   19.41
   5  -7  -1    5.52   22.53
   5  -7   1  159.86   38.88
  -5   7   1    5.38   20.94
  -5   7   1    4.52   21.60
   5  -7   1    6.65   22.53
   5   7  -1    8.18   13.89
   5   7  -1    9.84   31.11
  -5   7  -2 1504.46  111.40
  -5   7  -2 1692.77  159.39
   5  -7  -2 1652.35  118.65
   5  -7  -2 1602.30  158.93
   5   7   2 1404.49   94.32
   5   7   2 1585.09  154.14
   5  -7   2 1542.95  109.87
   5  -7   2 1524.87  162.12
  -5   7   2 1616.59  113.93
  -5   7   2 1702.20  113.06
   5   7  -2 1351.38   84.88
   5   7  -2 1454.81  103.89
  -5   7  -3    4.25   19.34
  -5   7  -3    4.19   19.08
   5  -7  -3   13.43   18.94
   5  -7  -3    3.12   20.54
   5   7   3    3.79   26.12
   5   7   3    9.24   29.98
   5  -7   3    6.78   20.14
  -5   7   3    7.71   30.51
  -5   7   3    9.57   32.90
   5  -7   3   17.95   18.28
   5   7  -3    8.71    5.25
   5   7  -3    8.64   11.03
   5   7  -3    3.59    9.57
   5   7  -3    8.24   15.62
   5  -7  -4 1257.59  135.40
  -5   7  -4 1321.34  140.38
  -5   7  -4 1142.40   95.58
   5  -7  -4 1350.32  147.30
   5   7   4 1058.25  112.33
   5   7   4 1120.93   90.20
   5  -7   4 1139.94   87.14
   5  -7   4 1222.30   99.24
  -5   7   4 1422.64  139.39
  -5   7   4 1364.08   95.72
   5   7  -4 1156.63   53.24
   5   7  -4 1044.10   64.14
   5   7  -4 1108.37   67.33
   5   7  -4 1165.80   85.81
  -5   7  -5   12.76   36.29
  -5   7  -5    8.38   21.74
   5  -7  -5    6.85   23.06
   5   7   5   13.23   17.81
   5   7   5    9.90   20.94
   5  -7  -5    9.04   19.61
   5  -7   5   33.17   22.93
  -5   7   5   21.27   33.97
  -5   7   5   12.50   36.82
   5  -7   5   14.82   19.54
   5   7  -5   12.16   18.94
   5   7  -5   -0.73   17.15
   5   7  -5   22.87   13.36
   5   7  -5   15.62    6.65
  -5   7  -6 1193.58  138.26
  -5   7  -6 1102.39   90.86
   5  -7  -6 1291.03  143.77
   5  -7  -6 1196.44  124.63
   5   7   6 1043.36   81.96
   5   7   6 1104.91   91.73
   5  -7   6 1128.71   83.95
   5  -7   6 1141.41   96.25
  -5   7   6 1283.98   93.92
   5   7  -6 1049.68   70.79
   5   7  -6 1015.25   76.57
   5   7  -6 1138.28   82.82
   5   7  -6 1009.80   61.95
   5  -7  -7   36.23   19.67
  -5   7  -7   35.69   24.66
  -5   7  -7   33.57   38.88
   5  -7  -7   38.29   25.26
   5   7   7   34.17   20.14
   5   7   7   38.75   23.66
   5  -7   7   18.48   42.67
  -5   7   7   -0.07   10.57
  -5   7   7   23.40   23.53
   5   7  -7   15.22    9.84
   5   7  -7   20.14    9.84
   5   7  -7   39.35   29.45
   5   7  -7   18.88   14.09
   5  -7   7   18.74   35.76
  -5   7  -8  935.15  126.29
  -5   7  -8  859.24   78.57
   5  -7  -8  978.82  125.29
   5  -7  -8  979.49  107.55
   5   7   8  859.58  113.53
   5   7   8  896.14   85.61
   5  -7   8  986.33   76.97
   5  -7   8 1048.08  136.00
  -5   7   8 1163.87  130.55
   5   7  -8  927.58   54.70
   5   7  -8  920.06   50.85
   5   7  -8  931.90   48.92
   5   7  -8 1044.36   72.25
  -5   7  -9   47.66   26.52
  -5   7  -9   48.46   25.32
   5  -7  -9   53.77   28.65
   5  -7  -9   52.64   21.54
   5   7   9   47.39   42.47
   5   7   9   51.38   27.78
   5  -7   9   44.20   23.80
   5  -7   9   56.30   47.13
  -5   7   9    0.00   11.37
  -5   7   9   60.15   27.78
   5   7  -9   60.29   18.81
   5   7  -9   67.67   18.01
  -5   7 -10  738.40   71.39
  -5   7 -10  723.05   68.40
   5  -7 -10  810.06   76.57
   5  -7 -10  778.68   61.28
   5   7  10  701.58   70.72
   5   7  10  725.18   73.65
   5  -7  10  757.02   99.17
   5  -7  10  749.31  114.46
  -5   7  10  843.56   76.57
   5   7 -10  681.04   41.68
   5   7 -10  773.50   54.44
  -5   7 -11   45.66   41.48
  -5   7 -11   42.07   22.73
   5  -7 -11   50.72   49.12
   5  -7 -11   52.24   31.77
   5   7  11   49.19   25.59
   5   7  11   50.25   25.86
   5  -7  11   28.12   21.87
   5  -7  11   37.29   45.20
  -5   7  11    0.00   13.69
  -5   7  11   37.95   47.26
   5   7 -11   34.43   12.16
  -5   7 -12  533.28   61.75
  -5   7 -12  525.44   89.60
   5  -7 -12  582.00   70.46
   5  -7 -12  590.91   51.38
   5   7  12  518.52  100.24
   5   7  12  514.07   64.54
   5  -7  12  604.27  105.15
   5  -7  12  588.52   56.83
  -5   7  12  709.56   72.45
   5   7 -12  590.98   58.83
  -5   7 -13   67.07   30.38
  -5   7 -13   88.67   26.45
   5  -7 -13  104.36   21.47
   5   7  13   67.80   31.44
   5  -7  13  107.68   26.26
   5  -7  13   80.10   57.43
  -5   7  13    3.59   15.29
  -5   7  13  132.94   34.63
   5   7 -13  110.27   28.52
  -5   7 -14  369.43   83.35
  -5   7 -14  343.31   69.86
   5  -7 -14  402.74   36.96
   5  -7  14  324.57   90.80
   5   7 -14  305.76   31.64
   5  -8   0   25.86   23.53
   5  -8   0   15.35   43.87
  -5   8   0   23.00   24.53
  -5   8   0   17.48   23.06
   5   8   0   19.94   17.22
   5   8   0    0.00   22.47
   5  -8  -1  106.68   36.96
  -5   8  -1   97.38   35.56
   5  -8  -1   82.02   38.49
  -5   8  -1   82.02   38.55
   5   8   1   78.90   27.85
   5   8   1   82.29   58.36
   5  -8   1  131.87   37.29
   5  -8   1  117.52   41.01
  -5   8   1  151.15   37.49
  -5   8   1  152.41   36.16
   5   8  -1   96.65   25.99
   5   8  -1  129.88   34.70
  -5   8  -2   39.81   50.72
  -5   8  -2   32.64   26.52
   5  -8  -2   25.59   26.85
   5  -8  -2   34.17   28.52
   5   8   2   21.60   21.93
   5   8   2   30.11   26.85
   5  -8   2   44.73   26.52
   5  -8   2   47.53   31.04
  -5   8   2   51.78   46.66
  -5   8   2   41.61   25.86
   5   8  -2   33.70   18.01
   5   8  -2   -1.86   42.61
  -5   8  -3  102.30   34.76
   5  -8  -3   61.55   59.69
   5   8   3   87.07   29.45
   5   8   3  104.95   35.03
   5  -8  -3   90.66   36.03
  -5   8  -3  110.21   37.62
   5  -8   3   69.19   58.89
   5  -8   3  103.96   40.61
  -5   8   3  108.74   60.15
  -5   8   3  105.95   58.36
   5   8  -3   80.83   21.87
   5   8  -3   95.18   31.91
  -5   8  -4  101.17   35.96
   5  -8  -4  125.09   36.16
   5  -8  -4  117.38   35.83
  -5   8  -4  120.51   39.22
   5   8   4   97.64   31.51
   5   8   4  119.38   37.02
   5  -8   4   96.18   35.03
   5  -8   4   86.87   70.86
  -5   8   4  112.47   35.03
   5   8  -4   85.28   21.27
   5   8  -4  101.30   32.10
  -5   8  -5   68.26   57.76
  -5   8  -5   59.09   60.42
   5  -8  -5   69.73   54.70
   5  -8  -5   75.11   33.23
   5   8   5   58.83   51.78
   5   8   5   65.07   34.50
   5  -8   5   77.44   31.91
   5  -8   5   72.98   64.41
  -5   8   5   86.21   55.63
   5   8  -5   71.12   18.41
   5   8  -5   81.96   28.45
  -5   8  -6  143.57   41.48
   5  -8  -6  152.35   38.35
   5  -8  -6  146.17   40.61
   5   8   6  119.98   62.35
   5   8   6  127.16   74.18
  -5   8  -6  131.81   41.54
   5  -8   6  164.58   67.00
   5  -8   6  177.41   46.93
  -5   8   6  201.14   40.75
   5   8  -6  148.56   25.66
   5   8  -6  164.64   56.76
  -5   8  -7  169.16   42.01
  -5   8  -7  119.64   71.45
   5  -8  -7  168.37   42.67
   5  -8  -7  179.80   37.82
   5   8   7  166.70   39.28
   5   8   7  172.02   74.91
   5  -8   7  156.60   39.22
   5  -8   7  167.30   47.26
  -5   8   7  178.20   41.88
   5   8  -7  140.58   16.62
   5   8  -7  151.48   32.57
  -5   8  -8  195.82   46.20
  -5   8  -8  187.64   74.45
   5  -8  -8  206.59   37.49
   5   8   8  196.22   42.01
   5  -8   8  174.28   68.93
   5  -8   8  197.81   48.99
  -5   8   8  174.22   74.58
   5   8  -8  178.60   51.58
   5   8  -8  155.07   17.88
  -5   8  -9   74.11   32.90
   5  -8  -9   73.38   43.20
   5   8   9   71.52   30.04
   5  -8   9   69.06   34.50
  -5   8   9   -0.07   12.63
  -5   8   9   92.39   31.04
   5   8  -9   55.57   35.89
   5   8  -9   70.12   13.03
  -5   8 -10  358.60   91.79
   5  -8 -10  376.35   47.46
   5  -8  10  372.03   63.28
   5   8 -10  332.41   42.27
   5   9   0  190.30   38.62
   5   9   1  550.43   62.55
   5   9   2  376.02   54.97
   5   9  -2  366.91   58.56
   5   9  -3  573.30   69.86
   6   0   0 2786.91  154.27
  -6   0   0 3323.25  151.35
  -6   0   0 3376.63  163.85
   6   0   0 3495.27  189.17
   6   0  -1   16.95    8.11
   6   0   1    9.70    8.77
   6   0   1   12.36   10.44
  -6   0  -1   10.90    8.57
  -6   0  -1   13.43    8.51
   6   0  -1   15.69    8.24
  -6   0   1   10.83    9.77
  -6   0   1   10.64    7.58
   6   0  -2 1612.14   74.78
   6   0   2 1667.64   69.73
   6   0   2 1618.65   79.76
  -6   0  -2 1580.50   77.70
  -6   0  -2 1603.70   74.18
   6   0  -2 1466.97   78.57
  -6   0   2 1668.04   73.45
  -6   0   2 1631.61   75.71
   6   0   3  254.11   17.68
   6   0   3  229.92   22.40
  -6   0  -3  220.41   21.00
  -6   0  -3  228.39   12.03
   6   0  -3  220.48   22.00
   6   0  -3  223.34   17.48
  -6   0   3  232.51   25.32
  -6   0   3  219.81   17.08
   6   0  -4 3224.54  154.34
   6   0   4 3366.32  170.56
   6   0   4 3468.62  157.47
  -6   0  -4 3319.00  168.70
  -6   0  -4 3240.96  152.41
   6   0  -4 3299.19  174.75
  -6   0   4 3449.21  166.44
  -6   0   4 3473.54  165.97
   6   0   5    7.31   10.50
   6   0   5    9.70    4.65
  -6   0  -5    4.12    9.70
  -6   0  -5    8.51    6.05
   6   0  -5   11.96    6.25
  -6   0   5    9.04   12.23
  -6   0   5    7.18   10.04
   6   0  -5   14.69    9.57
   6   0  -6 2474.44  149.82
   6   0   6 2397.27   95.12
   6   0   6 2551.01  156.73
  -6   0  -6 2386.64  146.50
  -6   0  -6 2291.19  102.16
   6   0  -6 2443.40  123.77
  -6   0   6 2439.94  118.25
  -6   0   6 2531.34  125.76
   6   0   7   82.16    7.18
  -6   0  -7   77.84   17.28
  -6   0  -7   78.97    9.51
   6   0  -7   77.90   14.89
   6   0  -7   73.45   17.02
  -6   0   7   72.52   23.40
  -6   0   7   78.37    8.64
   6   0   7   78.10   31.31
   6   0  -8 2439.35  151.88
   6   0   8 2464.47   99.97
   6   0   8 2382.45  125.09
  -6   0  -8 2314.72  122.44
  -6   0  -8 2239.27   99.44
   6   0  -8 2339.44  113.46
  -6   0   8 2352.34  117.85
  -6   0   8 2345.36  111.34
   6   0   9    8.04    3.66
  -6   0  -9    8.77   11.30
  -6   0  -9   18.35    5.45
   6   0  -9   12.30    8.11
   6   0  -9    1.60    9.51
  -6   0   9   14.62    4.32
   6   0   9   12.23   11.90
   6   0  -9   10.44   11.30
   6   0 -10  996.10   84.08
   6   0  10  930.10   35.63
   6   0  10  946.92   58.89
  -6   0 -10  962.60   80.23
  -6   0 -10  848.61   38.15
   6   0 -10  952.50   45.60
   6   0 -10  924.98   37.69
   6   0 -10 1000.49   56.23
  -6   0 -11  198.88   25.32
  -6   0 -11  173.09   13.29
   6   0 -11  195.62   14.82
   6   0 -11  207.92   43.87
   6   0 -11  183.26   14.82
   6   0 -11  210.51   24.13
   6   0  11  188.11   26.39
   6   0 -12 1194.38   75.24
   6   0  12 1094.48   68.40
  -6   0 -12 1101.72   67.13
   6   0 -12 1143.93   67.20
   6   0  13  156.60   24.53
  -6   0 -13  100.57   22.87
   6   0 -13  181.46   24.46
   6   0 -13  164.44   27.32
   6   0  14  630.33   72.72
   6   0 -14  658.38   53.11
   6   0 -14  643.42   70.66
   6   0  14  575.02   42.74
   6   0  15  126.16   21.60
   6   0  15  138.45   25.26
   6   0 -15  157.93   30.11
   6   0 -15  147.96   25.72
   6   0  16  219.48   28.65
   6   0 -16  261.09   36.69
   6   0 -16  241.55   32.50
   6   0  16  177.14   20.21
   6   0  17  116.45   39.08
   6   0 -17  116.59   27.92
   6   0 -17  114.13   31.71
   6   0  18  166.77   46.06
   6   0 -18  193.69   34.70
   6   0 -18  194.22   37.89
   6   0  19   77.10   21.54
   6   0 -19   98.17   31.37
   6   0 -19   90.13   48.72
   6   0  20   -0.80    7.98
   6   0  20   15.29   19.67
   6   0 -20   16.02   16.15
   6   1   0   45.20   10.57
   6  -1   0   42.21   11.83
  -6   1   0   42.74   18.35
  -6   1   0   42.81    9.11
   6   1   0   41.41   12.23
  -6  -1   0   43.60    4.99
  -6  -1   0   46.40   10.44
   6  -1   0   42.54   10.64
  -6   1  -1  208.11   31.91
  -6   1  -1  204.33   16.35
   6  -1  -1  224.00   20.41
   6   1   1  214.89   18.15
   6   1   1  220.34   19.94
  -6  -1   1  209.24   17.95
   6  -1  -1  184.65   32.50
   6  -1   1  271.79   18.94
   6  -1   1  282.69   35.96
  -6   1   1  268.34   19.41
  -6   1   1  274.05   28.71
  -6  -1  -1  282.29   11.17
  -6  -1  -1  281.30   20.94
   6   1  -1  229.38   25.52
   6   1  -1  273.59   30.11
   6  -1  -2   95.05   27.39
  -6   1  -2   91.06   17.61
   6  -1  -2  105.55   23.13
   6   1   2   99.17    6.05
  -6  -1   2   60.09   11.43
   6   1   2   96.05   14.56
  -6   1  -2   88.94   23.93
   6  -1   2   95.12   17.61
   6  -1   2   82.02   15.35
  -6   1   2   87.34   12.23
  -6   1   2   85.88   12.76
  -6  -1  -2   88.74    5.18
  -6  -1  -2   93.39   13.96
   6   1  -2   95.72    7.91
   6   1  -2   89.53   11.96
   6   1  -2   86.08   11.57
  -6   1  -3  173.75   19.01
  -6   1  -3  146.56   20.87
   6  -1  -3  167.17   38.02
   6  -1  -3  170.49   16.15
   6   1   3  176.41   19.08
   6   1   3  177.94    9.51
   6   1  -3  188.97   11.96
   6  -1   3  178.74   20.54
   6  -1   3  191.63   13.56
  -6   1   3  179.73   15.15
  -6   1   3  178.93   17.28
  -6  -1  -3  177.27    6.78
  -6  -1  -3  171.69   18.61
   6   1  -3  188.90   15.95
   6   1  -3  173.62   14.69
   6   1  -3  175.94   15.89
  -6   1  -4  258.83   24.26
  -6   1  -4  239.69   24.33
   6  -1  -4  267.34   19.54
   6   1   4  275.25   39.15
   6   1   4  257.63    9.64
   6  -1  -4  249.92   45.86
   6   1  -4  310.81   16.68
   6  -1   4  286.61   26.45
   6  -1   4  301.04   15.62
  -6   1   4  275.31   33.97
  -6   1   4  282.16   28.25
  -6  -1  -4  289.54    8.97
  -6  -1  -4  288.61   24.33
   6   1  -4  293.93   18.88
   6   1  -4  295.65   18.48
   6   1  -4  303.50   21.74
  -6   1  -5  352.62   28.45
   6  -1  -5  362.99   33.77
  -6   1  -5  322.71   19.14
   6  -1  -5  353.15   32.50
   6   1   5  347.77   45.40
   6   1   5  338.93    9.31
   6   1   5  385.85   11.17
   6   1  -5  391.30   29.18
   6  -1   5  403.60   31.97
   6  -1   5  381.67   23.53
  -6   1   5  365.71   26.45
  -6   1   5  354.61   30.24
  -6  -1  -5  371.23   29.18
   6   1  -5  394.43   30.51
   6   1  -5  379.80   20.27
   6   1  -5  381.86   25.19
   6  -1  -6  397.48   34.63
  -6   1  -6  338.46   19.41
   6  -1  -6  385.12   22.27
   6   1   6  381.86   47.33
  -6   1  -6  367.11   46.99
   6  -1   6  352.88   16.09
   6  -1   6  349.10   31.71
  -6   1   6  333.28   27.25
  -6   1   6  344.58   28.71
   6   1  -6  358.60   20.54
   6   1  -6  346.37   19.61
   6   1  -6  353.81   19.01
   6   1  -6  349.23   38.62
   6   1   7  271.66   27.19
  -6   1  -7  252.85   16.68
   6  -1  -7  280.70   17.81
   6   1   7  283.89   27.45
  -6   1  -7  278.57   27.45
   6  -1   7  274.78   12.96
   6  -1   7  281.43   28.91
  -6   1   7  272.12   25.32
  -6   1   7  270.06   16.55
   6   1  -7  294.13   24.66
   6   1  -7  283.56   15.49
   6   1  -7  281.36   23.60
   6   1  -7  286.81   19.48
   6  -1  -8 1022.43   46.26
  -6   1  -8  996.70   59.96
  -6   1  -8  935.15   44.60
   6  -1  -8 1062.24   66.07
   6   1   8  972.31   58.76
   6   1   8  984.01   58.76
   6   1  -8 1080.65   67.33
   6  -1   8 1048.81   46.66
   6  -1   8 1024.75   61.82
  -6   1   8 1006.61   58.36
  -6   1   8 1012.59   52.91
   6   1  -8 1049.81   51.11
   6   1  -8 1071.15   77.17
   6   1  -8 1026.02   52.71
  -6   1  -9  367.37   33.63
   6   1   9  375.55   33.23
  -6   1  -9  379.87   32.70
   6  -1  -9  387.25   61.09
   6   1   9  371.63   34.17
   6  -1  -9  365.98   20.34
   6   1  -9  437.37   20.34
   6  -1   9  426.27   36.23
   6  -1   9  453.78   18.21
  -6   1   9  442.15   52.24
  -6   1   9  451.99   28.05
   6   1  -9  441.55   19.01
   6   1  -9  451.79   32.90
   6   1  -9  443.81   40.55
   6  -1 -10  374.42   26.19
  -6   1 -10  391.57   34.17
  -6   1 -10  374.02   31.77
   6  -1 -10  431.18   38.68
   6   1  10  375.75   50.65
   6   1  10  388.98   34.76
   6  -1  10  398.75   21.20
   6  -1  10  386.65   35.10
  -6   1  10  375.28   32.97
  -6   1  10  382.33   24.19
   6   1 -10  390.44   23.73
   6   1 -10  364.25   15.69
   6   1 -10  395.22   32.77
   6   1 -10  408.32   28.12
  -6   1 -11  318.32   20.47
   6  -1 -11  348.63   35.56
   6  -1 -11  328.82   16.68
   6   1  11  309.35   29.11
   6   1  11  353.02   32.17
  -6   1 -11  323.90   31.04
   6   1 -11  295.65   19.81
   6  -1  11  276.25   12.96
   6  -1  11  273.19   31.91
  -6   1  11  247.66   48.92
  -6   1  11  263.75   13.16
   6   1 -11  253.11   11.37
   6   1 -11  289.54   29.84
   6   1 -11  268.67   25.06
   6  -1 -12 1165.14   57.70
  -6   1 -12 1050.74   91.33
  -6   1 -12 1016.64   52.05
   6  -1 -12 1134.49   75.77
   6   1  12 1003.35   63.21
   6   1  12 1051.34   93.12
   6   1 -12 1240.91   86.94
   6  -1  12 1117.54   49.85
   6  -1  12 1087.17   68.53
  -6   1  12 1097.40   69.26
  -6   1  12 1063.24   41.81
   6   1 -12 1209.60   97.71
   6  -1 -13  276.84   58.56
  -6   1 -13  251.65   29.25
   6   1  13  259.43   51.65
   6   1  13  246.07   28.32
  -6   1 -13  266.34   30.11
   6  -1  13  309.61   20.67
   6  -1  13  273.32   31.64
   6   1 -13  285.62   28.52
   6   1 -13  303.63   54.04
  -6   1 -14  601.61   44.93
  -6   1 -14  606.93   34.36
   6  -1 -14  684.83   54.04
   6  -1 -14  658.84   56.03
   6   1  14  595.50   66.14
   6   1  14  608.46   48.32
   6   1 -14  642.62   45.93
   6  -1  14  607.93   71.65
   6   1  15  184.65   24.93
  -6   1 -15  199.81   26.52
   6  -1 -15  203.26   35.03
   6   1  15  203.26   28.45
   6  -1 -15  229.25   56.03
   6  -1  15  131.48   47.19
   6   1 -15  158.46   43.80
   6   1 -15  161.05   52.31
  -6   1 -16 1108.97   69.33
   6  -1 -16 1233.13   84.95
   6  -1 -16 1197.97   87.41
   6   1  16 1020.63   96.25
   6   1  16  862.57   70.99
   6  -1  16 1055.46   70.19
   6   1 -16 1149.25   73.18
   6   1 -16 1211.66  117.18
   6  -1 -17  301.57   70.59
   6  -1 -17  279.50   44.67
   6   1  17  252.05   33.10
   6  -1  17  282.49   33.50
   6   1 -17  317.19   36.49
   6  -1 -18  630.53   63.94
   6  -1 -18  663.76   61.48
   6   1  18  546.18   47.86
   6  -1  18  531.75   70.66
   6   1 -18  585.92   79.76
   6   1 -18  609.52   95.05
   6  -1 -19  194.82   40.94
   6  -1 -19  193.16   40.15
   6   1  19  160.39   46.33
   6  -1  19  150.82   46.33
   6   1 -19  164.51   32.90
   6   1 -19  184.85   65.34
   6  -1 -20  961.74   82.89
   6   1  20  784.73   60.62
   6  -1  20  783.27   59.22
   6   1 -20  840.97  104.89
   6  -2   0 1215.78   66.47
  -6   2   0 1321.14   67.67
  -6   2   0 1237.92   67.67
   6   2   0 1350.85   68.00
   6   2   0 1278.27   45.13
   6   2   0 1371.26   66.14
   6   2   0 1136.82   48.52
   6  -2   0 1310.44   68.60
   6  -2  -1 1575.78  102.16
  -6   2  -1 1517.95   98.37
  -6   2  -1 1426.62   75.97
   6  -2  -1 1381.23   78.23
   6   2   1 1505.99   77.44
   6   2   1 1518.42   56.30
   6   2   1 1548.33   76.24
   6   2   1 1491.83   61.68
   6  -2   1 1539.36   80.49
  -6   2   1 1561.02   77.97
  -6   2   1 1459.66  100.24
   6   2  -1 1855.62   72.05
   6   2  -1 1353.24   59.89
   6   2  -1 1569.07   77.24
   6   2  -1 1611.67   91.66
   6  -2   1 1472.95   77.17
  -6   2  -2  580.47   54.57
  -6   2  -2  563.72   36.62
   6  -2  -2  606.26   43.47
   6   2   2  574.43   19.08
   6   2   2  570.37   37.62
   6   2   2  574.09   35.89
   6   2   2  588.98   18.35
   6  -2  -2  576.69   36.16
   6  -2   2  601.61   35.23
   6  -2   2  596.16   59.42
  -6   2   2  588.58   35.10
  -6   2   2  549.83   37.62
   6   2  -2  588.12   47.59
   6   2  -2  591.37   44.27
   6   2  -2  582.80   35.63
   6   2  -2  595.03   22.80
   6  -2  -3 1678.94  101.96
  -6   2  -3 1588.41   82.55
  -6   2  -3 1581.16  100.90
   6  -2  -3 1572.72   91.93
   6   2   3 1627.03   84.55
   6   2   3 1637.93   82.49
   6  -2   3 1539.36   90.07
  -6   2   3 1506.79   74.18
  -6   2   3 1486.85   81.42
   6   2  -3 1561.09   91.79
   6   2  -3 1525.53   71.79
   6   2  -3 1577.84   70.52
   6   2  -3 1475.68   59.69
   6  -2   3 1535.43   83.15
  -6   2  -4 1330.71   73.25
  -6   2  -4 1376.24   90.93
   6  -2  -4 1358.63   84.15
   6  -2  -4 1330.51   67.13
   6   2   4 1365.94   74.11
   6   2   4 1375.91   72.72
   6  -2   4 1362.35   76.57
   6  -2   4 1443.18   67.47
  -6   2   4 1315.29   64.81
  -6   2   4 1318.94   97.98
   6   2  -4 1318.28   64.01
   6   2  -4 1377.90   74.84
   6   2  -4 1438.19   65.41
   6   2  -4 1312.10   54.31
  -6   2  -5 1550.12   84.81
  -6   2  -5 1652.29   84.02
   6  -2  -5 1658.87  134.67
   6   2   5 1577.11   86.01
   6   2   5 1583.23   84.55
   6  -2  -5 1539.09   76.77
   6  -2   5 1685.92   76.77
  -6   2   5 1587.61   76.24
  -6   2   5 1612.80   89.93
   6   2  -5 1681.60   91.00
   6   2  -5 1620.51   71.59
   6   2  -5 1581.70   67.73
   6   2  -5 1685.79   91.53
   6  -2   5 1679.54   91.46
   6  -2  -6  521.65   44.47
  -6   2  -6  549.70   61.15
  -6   2  -6  584.06   35.56
   6  -2  -6  588.78   50.92
   6   2   6  540.53   40.41
   6   2   6  557.74   39.81
   6  -2   6  598.82   39.22
   6  -2   6  577.62   42.94
  -6   2   6  542.72   29.91
  -6   2   6  551.03   41.34
   6   2  -6  557.34   28.71
   6   2  -6  543.05   34.43
   6   2  -6  564.12   26.45
   6   2  -6  607.06   33.37
  -6   2  -7 1145.99   66.80
  -6   2  -7 1232.53   79.96
   6  -2  -7 1204.68   80.23
   6   2   7 1187.07   67.67
   6   2   7 1126.58   66.54
   6  -2  -7 1115.88   54.37
   6  -2   7 1127.58   49.98
   6  -2   7 1127.38   68.53
  -6   2   7 1059.12   89.33
  -6   2   7 1104.65   52.44
   6   2  -7 1126.25   51.65
   6   2  -7 1114.09   46.86
   6   2  -7 1141.47   51.45
   6   2  -7 1182.82   76.71
  -6   2  -8  816.31   52.78
  -6   2  -8  861.90   62.95
   6  -2  -8  952.77   97.04
   6  -2  -8  796.17   40.08
   6   2   8  808.06   53.11
   6   2   8  852.73   54.11
   6  -2   8  826.41   37.42
   6  -2   8  805.54   55.10
  -6   2   8  799.89   55.04
  -6   2   8  780.48   48.79
   6   2  -8  880.45   50.45
   6   2  -8  828.34   34.17
   6   2  -8  808.46   40.08
   6   2  -8  848.88   48.39
  -6   2  -9 1157.56   95.72
  -6   2  -9 1137.55   62.81
   6  -2  -9 1225.95   82.75
   6   2   9 1113.42   68.20
   6   2   9 1145.59   69.33
   6  -2  -9 1169.52   56.50
   6  -2   9 1244.17   63.61
   6  -2   9 1211.13   73.98
  -6   2   9 1210.33   74.98
  -6   2   9 1205.55   54.04
   6   2  -9 1319.81   66.07
   6   2  -9 1210.20   48.26
   6   2  -9 1194.45   58.43
   6   2  -9 1230.14   67.07
   6  -2 -10  502.37   37.49
  -6   2 -10  504.23   41.08
  -6   2 -10  535.08   51.31
   6  -2 -10  547.11   51.18
   6   2  10  494.46   60.42
   6   2  10  498.85   63.41
   6  -2  10  551.76   44.80
   6  -2  10  532.48   25.13
  -6   2  10  540.13   45.66
  -6   2  10  512.54   24.99
   6   2 -10  566.71   26.06
   6   2 -10  523.38   20.87
   6   2 -10  542.59   46.46
   6   2 -10  533.75   56.57
   6  -2 -11  536.21   39.28
  -6   2 -11  498.12   61.55
  -6   2 -11  541.59   50.85
   6  -2 -11  531.02   77.17
   6   2  11  503.17   61.95
   6   2  11  517.79   64.67
   6  -2  11  482.50   43.07
   6  -2  11  470.53   22.93
  -6   2  11  478.18   44.87
  -6   2  11  469.80   29.58
   6   2 -11  641.49   50.78
   6   2 -11  490.21   56.37
  -6   2 -12  572.50   44.40
  -6   2 -12  572.17   36.76
   6  -2 -12  600.55   54.77
   6  -2 -12  632.85   31.64
   6   2  12  522.51   42.54
   6   2  12  556.01   45.40
   6  -2  12  562.13   34.43
   6  -2  12  554.35   46.13
  -6   2  12  586.06   78.03
  -6   2  12  550.10   30.84
   6   2 -12  567.78   36.76
   6   2 -12  571.90   42.87
  -6   2 -13  478.58   40.41
  -6   2 -13  521.38   50.32
   6  -2 -13  537.87   53.31
   6   2  13  457.24   39.48
   6   2  13  476.12   42.67
  -6   2  13  515.93   48.46
   6  -2  13  534.34   32.24
   6  -2  13  527.63   44.87
  -6   2  13  453.85   19.61
   6   2 -13  524.31   36.16
   6   2 -13  556.55   43.40
  -6   2 -14  274.05   31.57
  -6   2 -14  282.56   25.66
   6  -2 -14  289.01   43.87
   6   2  14  279.64   50.05
   6   2  14  262.62   34.03
   6  -2  14  300.51   34.43
   6  -2  14  326.03   25.79
  -6   2  14  271.53   60.95
   6   2 -14  291.87   28.52
   6   2 -14  334.94   35.36
  -6   2 -15  253.05   29.91
  -6   2 -15  268.73   24.66
   6   2  15  237.56   29.71
   6   2  15  244.87   54.37
   6  -2 -15  287.41   72.58
   6  -2  15  219.61   51.25
  -6   2  15  235.96   37.16
   6   2 -15  259.69   45.27
   6   2 -15  252.72   33.43
   6  -2  15  261.22   24.46
  -6   2 -16  153.21   25.26
  -6   2 -16  169.89   31.31
   6  -2 -16  137.79   36.49
   6  -2 -16  177.54   66.27
   6   2  16  165.24   28.32
   6  -2  16  162.52   46.06
   6  -2  16  174.02   21.07
   6   2 -16  165.91   25.52
   6   2 -16  162.45   30.91
  -6   2 -17  190.97   26.72
  -6   2 -17  186.78   20.67
   6  -2 -17  237.69   42.14
   6  -2 -17  218.08   72.05
   6   2  17  185.32   30.38
   6  -2  17  194.95   29.51
   6   2 -17  211.17   29.58
   6   2 -17  210.91   58.83
  -6   2 -18  132.14   22.60
   6  -2 -18  136.33   62.81
   6  -2 -18  120.57   64.28
   6   2  18  112.73   44.07
   6  -2  18  107.81   24.73
   6   2 -18  110.41   26.26
   6   2 -18   97.64   52.51
  -6   2 -19   78.77   19.48
   6  -2 -19   92.59   34.50
   6   2  19   68.73   22.67
   6  -2  19   55.90   36.09
   6   2 -19   52.98   42.34
   6   2 -19   60.69   50.52
   6   2  20    0.86    9.97
   6   2  20   35.16   23.40
   6  -2  20    1.00    5.05
   6  -2  20   49.32   13.69
  -6   3   0  303.36   41.88
   6  -3   0  291.67   44.47
  -6   3   0  335.67   47.79
   6   3   0  307.82   40.21
   6   3   0  326.70   12.70
   6   3   0  305.29   23.46
   6   3   0  262.35   12.16
   6  -3   0  287.61   28.38
  -6   3  -1   19.41   12.63
  -6   3  -1   29.05   23.33
   6  -3  -1   22.93   13.89
   6  -3  -1   17.41   12.89
   6   3   1   22.80   11.90
   6   3   1   19.28    2.99
   6   3   1   21.74   11.17
   6   3   1   25.39    2.13
  -6   3   1   31.51   20.74
   6  -3   1   37.75   12.76
   6  -3   1   31.31   13.63
  -6   3   1   44.87   14.36
   6   3  -1   36.62    3.19
   6   3  -1   35.30   11.30
   6   3  -1   35.03   17.15
   6   3  -1   37.75    8.71
  -6   3  -2  187.51   23.86
  -6   3  -2  205.85   24.53
   6  -3  -2  177.61   27.19
   6  -3  -2  183.72   22.40
   6   3   2  185.12   21.54
   6   3   2  183.59   22.80
   6  -3   2  205.32   25.39
   6  -3   2  210.97   22.40
  -6   3   2  213.76   21.93
  -6   3   2  209.24   26.79
   6   3  -2  214.96   20.21
   6   3  -2  220.68   29.05
   6   3  -2  221.47   18.74
   6   3  -2  207.72    9.17
  -6   3  -3  242.55   26.06
  -6   3  -3  267.54   26.72
   6  -3  -3  255.97   31.84
   6  -3  -3  225.40   37.36
   6   3   3  239.49   25.59
   6   3   3  236.30   24.13
   6  -3   3  229.32   44.00
   6  -3   3  229.52   22.53
  -6   3   3  208.71   45.86
   6   3  -3  206.59   31.17
   6   3  -3  222.60   17.81
   6   3  -3  226.93   10.70
   6   3  -3  237.49   14.76
  -6   3   3  215.96   21.80
  -6   3  -4  361.46   52.44
  -6   3  -4  355.21   48.99
   6  -3  -4  369.63   62.81
   6  -3  -4  349.23   28.58
   6   3   4  361.39   33.37
   6   3   4  370.96   31.44
  -6   3   4  407.59   28.38
   6  -3   4  417.89   36.29
   6  -3   4  438.50   29.25
  -6   3   4  404.86   36.49
   6   3  -4  423.08   27.78
   6   3  -4  421.48   24.00
   6   3  -4  417.69   23.60
   6   3  -4  452.79   32.17
  -6   3  -5  133.14   22.40
  -6   3  -5  142.97   20.21
   6  -3  -5  133.80   26.52
   6  -3  -5  117.12   16.88
   6   3   5  130.74   21.87
   6   3   5  124.43   20.67
   6  -3   5  127.89   23.60
  -6   3   5  115.99   15.62
   6  -3   5  138.39   15.95
  -6   3   5  115.12   22.73
   6   3  -5  117.85   23.26
   6   3  -5  117.85   18.61
   6   3  -5  127.89   14.16
   6   3  -5  129.61   20.54
  -6   3  -6  144.70   24.06
  -6   3  -6  142.84   21.40
   6  -3  -6  137.19   29.11
   6  -3  -6  146.17   30.58
   6   3   6  145.50   22.53
   6   3   6  140.12   23.00
   6  -3   6  146.70   26.32
   6  -3   6  143.64   25.13
  -6   3   6  137.59   15.75
  -6   3   6  132.81   41.88
   6   3  -6  146.03   14.29
   6   3  -6  139.19   11.30
   6   3  -6  146.10   10.64
   6   3  -6  149.49   14.02
  -6   3  -7  476.85   62.15
  -6   3  -7  439.29   53.51
   6  -3  -7  504.83   47.99
   6  -3  -7  459.83   31.24
   6   3   7  461.23   39.02
   6   3   7  472.00   60.22
   6  -3   7  496.06   42.01
   6  -3   7  471.27   41.41
  -6   3   7  456.31   43.07
   6   3  -7  481.24   37.75
   6   3  -7  452.72   28.91
   6   3  -7  474.39   23.53
   6   3  -7  473.72   28.25
  -6   3   7  427.20   27.05
  -6   3  -8  241.88   30.38
  -6   3  -8  233.37   27.45
   6  -3  -8  262.15   41.28
   6  -3  -8  230.12   21.54
   6   3   8  217.22   29.65
   6   3   8  236.90   50.25
  -6   3   8  250.52   18.88
   6  -3   8  284.29   30.84
   6  -3   8  291.53   32.84
  -6   3   8  267.60   34.90
   6   3  -8  272.32   19.94
   6   3  -8  293.00   18.15
   6   3  -8  312.01   27.52
   6   3  -8  285.95   34.03
  -6   3  -9  560.67   44.93
  -6   3  -9  576.55   63.21
   6  -3  -9  609.32   59.56
   6  -3  -9  556.88   34.90
   6   3   9  544.12   44.53
   6   3   9  556.48   46.06
   6  -3   9  591.24   32.04
  -6   3   9  543.72   39.95
   6  -3   9  582.80   48.72
  -6   3   9  609.72   80.56
   6   3  -9  581.21   24.46
   6   3  -9  592.24   31.91
   6   3  -9  594.83   52.11
   6   3  -9  685.76   44.80
  -6   3 -10   93.79   34.96
  -6   3 -10  102.76   18.68
   6  -3 -10  107.21   48.52
   6  -3 -10   99.70   13.69
   6   3  10  104.95   21.40
   6   3  10   97.84   20.54
   6  -3  10   67.33   11.17
   6  -3  10   64.94   22.13
  -6   3  10   62.41   23.93
  -6   3  10   60.42    9.84
   6   3 -10   64.61   10.17
   6   3 -10   64.28   12.43
   6   3 -10   59.96   15.62
   6   3 -10   77.30   17.28
  -6   3 -11  942.60   63.28
  -6   3 -11  987.40   60.69
   6  -3 -11 1072.15   85.41
   6  -3 -11 1042.10   54.24
   6   3  11  906.84   88.34
   6   3  11  951.50   65.87
  -6   3  11  968.52  105.95
   6  -3  11  972.38   47.79
  -6   3  11  914.48   44.40
   6   3 -11 1015.11   53.77
   6   3 -11 1004.55   59.76
   6  -3  11  969.38   68.20
  -6   3 -12  157.80   43.54
  -6   3 -12  173.48   23.26
   6  -3 -12  188.71   38.62
   6  -3 -12  175.81   26.85
   6   3  12  157.86   26.65
   6   3  12  161.59   48.26
  -6   3  12  162.58   33.10
   6  -3  12  154.01   28.78
   6  -3  12  161.39   14.62
  -6   3  12  143.71   19.14
   6   3 -12  158.46   19.21
   6   3 -12  161.59   23.53
  -6   3 -13  781.28   56.17
  -6   3 -13  824.95   72.78
   6  -3 -13  871.14  115.06
   6   3  13  767.65   57.03
   6   3  13  801.55   88.80
   6  -3  13  809.19   40.61
   6  -3  13  827.14   62.02
  -6   3  13  807.86   68.26
   6   3 -13  849.08   49.98
   6   3 -13  847.68   56.76
  -6   3  13  791.78   36.23
  -6   3 -14   68.33   31.84
  -6   3 -14   70.46   16.09
   6  -3 -14   75.18   28.91
   6   3  14   64.01   19.14
   6   3  14   69.19   20.80
   6  -3  14   -1.20   20.61
  -6   3  14   42.67   44.40
   6   3 -14   44.93   15.29
   6   3 -14   43.94   18.68
   6  -3  14   44.33    9.57
  -6   3 -15  898.86   60.95
  -6   3 -15  941.33   79.63
   6  -3 -15 1020.83   88.00
   6   3  15  866.36   65.34
   6   3  15  826.21   87.34
   6  -3  15  848.41   42.34
   6  -3  15  848.08   63.28
  -6   3  15  854.66   75.04
   6   3 -15  889.16   79.70
   6   3 -15  869.81   64.21
  -6   3 -16  133.14   42.07
  -6   3 -16  150.35   36.56
   6  -3 -16  144.84   40.88
   6   3  16  144.10   48.72
   6  -3  16  131.34   45.86
   6  -3  16  141.45   14.49
  -6   3  16  125.03   62.28
   6   3 -16  141.58   40.15
   6   3 -16  131.48   29.31
  -6   3 -17  883.71   62.02
  -6   3 -17  917.74   59.82
   6  -3 -17 1032.46   92.92
   6   3  17  858.38   67.20
   6  -3  17  919.40   46.99
   6  -3  17  872.80   66.00
  -6   3  17  886.56   81.49
   6   3 -17  893.68   62.15
   6   3 -17  923.19  105.15
  -6   3 -18   20.34   21.93
  -6   3 -18   26.59   11.70
   6  -3 -18   21.54   23.26
   6   3  18    0.60   11.17
   6   3  18   19.61   15.62
   6  -3  18   13.96   14.76
   6  -3  18   -0.40    7.78
   6   3 -18   13.76   14.36
   6   3 -18    7.91   29.58
  -6   3 -19  593.63   47.39
  -6   3 -19  612.11   64.94
   6   3  19  600.55   84.68
   6  -3  19  583.86   51.85
   6   3 -19  635.51   55.44
   6  -4   0   90.80   22.27
   6  -4   0   89.40   21.07
  -6   4   0   87.67   20.74
  -6   4   0  124.36   39.81
   6   4   0   94.72   16.82
   6   4   0   90.07   19.14
   6   4   0   79.30    5.18
   6   4   0   95.12    5.65
  -6   4  -1 2562.71  140.18
   6  -4  -1 2134.59  121.17
   6   4   1 2245.92  150.49
   6   4   1 2267.19  119.31
  -6   4  -1 2197.27  156.27
   6  -4  -1 2325.88  136.73
   6  -4   1 2152.27  124.43
   6  -4   1 2071.64  121.37
  -6   4   1 2234.75  125.69
  -6   4   1 2588.97  144.10
   6   4  -1 2211.36  120.57
   6   4  -1 2269.39  116.12
   6   4  -1 2414.09   97.91
   6   4  -1 2320.30  105.69
   6  -4  -2  230.58   35.30
  -6   4  -2  231.31   50.25
  -6   4  -2  266.74   32.84
   6  -4  -2  214.23   27.78
   6   4   2  217.35   29.45
   6   4   2  221.41   26.39
   6  -4   2  254.51   31.97
   6  -4   2  317.39   50.12
  -6   4   2  262.95   29.11
  -6   4   2  297.32   34.83
   6   4  -2  265.08   40.35
   6   4  -2  251.92   22.33
   6   4  -2  254.58   14.09
   6   4  -2  273.99   20.61
  -6   4  -3 2020.46  145.77
   6  -4  -3 1961.83  138.12
   6   4   3 1957.58  111.40
   6   4   3 1923.35  104.29
  -6   4  -3 1963.10  112.60
   6  -4  -3 1976.46  152.88
   6  -4   3 1835.28  140.78
   6  -4   3 1862.06  131.48
  -6   4   3 1820.98  102.56
  -6   4   3 2089.05  156.14
   6   4  -3 1916.37  102.03
   6   4  -3 1844.18   80.83
   6   4  -3 1879.08   93.26
   6   4  -3 1946.68   95.91
   6  -4  -4   70.66   24.39
  -6   4  -4   63.41   20.87
  -6   4  -4   82.02   20.94
   6  -4  -4   73.18   18.61
   6   4   4   67.60   20.94
   6   4   4   77.90   18.61
   6  -4   4   53.84   31.51
   6  -4   4   65.80   22.20
  -6   4   4   76.84   28.52
  -6   4   4   82.75   24.39
   6   4  -4   66.80   14.89
   6   4  -4   66.27   10.57
   6   4  -4   64.41   19.74
   6   4  -4   71.25   15.35
  -6   4  -5 1617.99  129.08
  -6   4  -5 1823.44  105.35
   6  -4  -5 1771.13  113.13
   6  -4  -5 1556.64   88.94
   6   4   5 1633.21   98.44
   6   4   5 1590.47   91.86
   6  -4   5 1646.50  114.33
   6  -4   5 1601.90   99.24
  -6   4   5 1538.09  107.28
  -6   4   5 1747.54  107.02
   6   4  -5 1555.84   65.41
   6   4  -5 1567.01   74.64
   6   4  -5 1645.91   76.37
   6   4  -5 1650.23   86.81
   6  -4  -6  161.05   35.03
  -6   4  -6  157.07   28.98
  -6   4  -6  134.60   28.65
   6  -4  -6  159.13   36.96
   6   4   6  162.98   26.52
   6   4   6  172.69   29.11
   6  -4   6  165.31   37.36
   6  -4   6  185.58   30.64
  -6   4   6  176.48   34.17
  -6   4   6  194.69   55.37
   6   4  -6  176.94   11.83
   6   4  -6  183.39   13.76
   6   4  -6  191.70   24.46
   6   4  -6  191.03   29.84
   6  -4  -7 1019.70   78.37
  -6   4  -7  938.14   65.87
  -6   4  -7  956.49   65.87
   6  -4  -7  940.40   57.96
   6   4   7  946.59   67.33
   6   4   7  919.93   63.01
   6  -4   7  946.72   74.45
   6  -4   7  940.34   67.80
  -6   4   7  891.08   70.52
  -6   4   7 1013.12   74.38
   6   4  -7  939.54   42.41
   6   4  -7  911.02   51.05
   6   4  -7  921.73   60.75
   6   4  -7 1000.69   54.17
  -6   4  -8  229.19   51.45
  -6   4  -8  178.54   49.72
   6  -4  -8  252.98   25.13
   6   4   8  241.48   32.77
   6   4   8  238.56   30.84
   6  -4  -8  253.78   39.22
   6  -4   8  170.89   36.49
   6  -4   8  160.46   33.04
  -6   4   8  192.69   32.17
  -6   4   8  187.71   36.03
   6   4  -8  190.50   23.46
   6   4  -8  180.33   12.89
   6   4  -8  184.85   18.54
   6   4  -8  209.31   19.34
  -6   4  -9 1525.60   96.45
   6  -4  -9 1650.23  115.19
   6  -4  -9 1593.99  110.67
   6   4   9 1483.12   96.25
   6   4   9 1512.37  128.02
  -6   4  -9 1516.16   95.38
   6  -4   9 1567.47  102.10
   6  -4   9 1544.34   99.64
  -6   4   9 1376.44   73.98
  -6   4   9 1616.46  148.69
   6   4  -9 1484.85   63.48
   6   4  -9 1524.67   87.07
   6   4  -9 1537.10   80.63
   6   4  -9 1641.25   81.09
  -6   4 -10  119.98   26.79
  -6   4 -10  104.62   44.93
   6  -4 -10  132.67   32.37
   6   4  10  110.94   28.25
   6   4  10  114.13   28.25
   6  -4 -10  120.77   36.43
   6  -4  10  127.49   30.84
   6  -4  10  151.15   30.18
  -6   4  10  129.95   14.82
  -6   4  10  142.44   33.10
   6   4 -10  141.05    9.31
   6   4 -10  137.66   15.35
   6   4 -10  153.61   15.29
   6   4 -10  149.69   19.61
  -6   4 -11  632.65   52.18
   6  -4 -11  681.44  106.88
  -6   4 -11  661.90   51.05
   6  -4 -11  725.11   62.41
   6   4  11  643.55   54.37
   6   4  11  639.90   54.44
   6  -4  11  670.07   56.43
   6  -4  11  639.03   55.97
  -6   4  11  610.92   94.52
   6   4 -11  647.41   38.22
   6   4 -11  651.26   44.80
  -6   4 -12  142.44   24.99
   6  -4 -12  141.05   28.65
   6   4  12  146.17   46.79
   6   4  12  132.94   28.52
   6  -4 -12  155.60   41.48
  -6   4 -12  139.45   26.26
   6  -4  12  112.20   28.91
   6  -4  12  124.03   17.22
  -6   4  12  133.80   34.10
   6   4 -12  121.44   17.48
   6   4 -12  123.90   22.33
  -6   4 -13  660.57   81.03
  -6   4 -13  667.28   74.58
   6  -4 -13  778.09   81.29
   6  -4 -13  751.70   56.70
   6   4  13  640.83   85.28
   6   4  13  652.59   88.00
   6  -4  13  683.10   59.16
   6  -4  13  665.95   39.95
  -6   4  13  669.21   66.54
   6   4 -13  690.81   43.74
   6   4 -13  687.69   50.72
  -6   4 -14   33.97   16.62
  -6   4 -14   28.52   15.95
   6  -4 -14   41.28   28.78
   6   4  14   33.10   17.75
   6   4  14   32.84   19.48
   6  -4  14    0.40   10.30
   6  -4  14   30.78   18.81
  -6   4  14   26.72   41.34
   6   4 -14   30.24   12.83
   6   4 -14   30.71   16.09
  -6   4 -15  242.01   30.38
   6  -4 -15  226.73   88.94
   6   4  15  172.62   26.19
   6   4  15  199.87   35.43
  -6   4 -15  185.05   49.92
   6  -4  15  212.97   20.21
   6  -4  15  225.53   34.70
  -6   4  15  204.59   43.01
   6   4 -15  219.08   25.92
   6   4 -15  215.76   31.97
  -6   4 -16  157.07   43.47
   6  -4 -16  186.05   81.42
   6   4  16  169.10   55.50
  -6   4 -16  149.75   26.79
   6  -4  16  147.36   17.48
   6  -4  16  147.83   30.97
  -6   4  16  122.44   66.00
   6   4 -16  153.74   41.34
   6   4 -16  157.20   30.18
  -6   4 -17  247.66   32.50
  -6   4 -17  250.59   32.57
   6   4  17  259.89   39.95
   6  -4  17  248.79   59.69
   6  -4  17  254.71   22.87
  -6   4  17  240.22   48.06
   6   4 -17  251.65   51.85
   6   4 -17  269.07   62.41
  -6   4 -18   57.36   18.81
  -6   4 -18   55.97   19.14
   6   4  18   52.05   24.19
   6  -4  18   -0.13   22.27
   6  -4  18   66.27   22.40
   6   4 -18   65.14   35.76
   6  -5   0  330.42   38.42
  -6   5   0  385.92   39.88
   6  -5   0  306.09   38.22
  -6   5   0  314.80   37.49
   6   5   0  312.40   45.80
   6   5   0  308.75   34.43
  -6   5  -1   93.79   39.28
  -6   5  -1  104.09   41.01
   6  -5  -1   97.51   24.26
   6  -5  -1   87.74   39.02
   6   5   1   86.54   30.18
   6   5   1   95.18   35.43
   6  -5   1   57.16   23.53
   6  -5   1   -0.33   37.75
  -6   5   1   65.47   21.40
  -6   5   1   66.34   40.28
   6   5  -1   56.23   26.32
   6   5  -1   52.84   18.94
  -6   5  -2  130.81   44.27
  -6   5  -2  158.20   27.32
   6  -5  -2  137.06   49.72
   6  -5  -2  138.72   25.26
   6   5   2  119.84   35.89
   6   5   2  136.00   40.41
   6  -5   2   99.77   47.59
   6  -5   2   -0.60   42.74
  -6   5   2  103.03   24.66
   6   5  -2   91.79   17.08
   6   5  -2  102.56   34.96
  -6   5   2  115.66   27.65
  -6   5  -3  220.48   34.96
  -6   5  -3  267.67   36.23
   6  -5  -3  245.87   38.55
   6  -5  -3  213.70   51.85
   6   5   3  234.90   33.04
   6   5   3  235.37   48.06
  -6   5   3  298.45   38.29
   6  -5   3  237.09   34.83
   6  -5   3  254.51   32.57
  -6   5   3  256.77   32.57
   6   5  -3  255.77   23.06
   6   5  -3  272.66   29.65
   6   5  -3  268.00   12.03
   6   5  -3  259.63   22.07
  -6   5  -4  196.22   53.97
   6  -5  -4  196.28   36.69
   6  -5  -4  175.21   30.18
   6   5   4  180.60   28.71
   6   5   4  168.76   31.64
  -6   5  -4  175.81   33.17
  -6   5   4  233.37   60.29
   6  -5   4  221.94   30.04
   6  -5   4  222.87   33.70
  -6   5   4  215.16   47.66
   6   5  -4  216.42   19.87
   6   5  -4  243.21   11.83
   6   5  -4  223.80   15.29
   6   5  -4  227.59   43.14
  -6   5  -5  130.35   48.26
  -6   5  -5  152.21   27.92
   6  -5  -5  135.60   51.91
   6  -5  -5  135.13   40.08
   6   5   5  117.38   26.79
   6   5   5  113.06   24.59
   6  -5   5  112.27   22.87
   6  -5   5  101.43   27.45
  -6   5   5  115.79   38.95
  -6   5   5  128.68   30.58
   6   5  -5  115.59   22.47
   6   5  -5  110.67    8.97
   6   5  -5  110.87   19.34
   6   5  -5  120.91   20.94
  -6   5  -6   88.27   41.21
   6  -5  -6  104.16   29.84
   6  -5  -6  110.14   22.40
   6   5   6  102.03   22.80
   6   5   6   92.52   25.13
  -6   5  -6   99.17   26.32
  -6   5   6   84.95   27.39
   6  -5   6   80.43   20.61
   6  -5   6   67.53   25.19
  -6   5   6   75.04   34.36
   6   5  -6   70.72   18.01
   6   5  -6   71.85    8.11
   6   5  -6   79.50   29.51
   6   5  -6   70.46   18.35
  -6   5  -7  304.56   40.61
  -6   5  -7  326.43   40.61
   6  -5  -7  321.51   74.84
   6  -5  -7  339.39   56.57
   6   5   7  295.72   40.68
   6   5   7  301.77   37.36
  -6   5   7  372.03   74.25
   6  -5   7  328.36   51.18
   6  -5   7  315.86   40.75
  -6   5   7  397.09   49.92
   6   5  -7  318.65   19.81
   6   5  -7  311.61   18.08
   6   5  -7  339.19   29.65
   6   5  -7  311.41   22.33
  -6   5  -8  219.02   58.09
  -6   5  -8  174.15   55.90
   6  -5  -8  223.14   43.01
   6  -5  -8  211.57   28.91
   6   5   8  201.07   32.37
   6   5   8  191.96   36.09
   6  -5   8  220.54   44.40
   6  -5   8  208.98   59.42
   6   5  -8  215.36   24.26
   6   5  -8  198.81   21.80
   6   5  -8  242.08   24.33
   6   5  -8  211.24   19.14
  -6   5   8  239.22   39.08
  -6   5  -9  214.69   34.03
  -6   5  -9  219.15   35.89
   6  -5  -9  243.14   43.54
   6  -5  -9  207.85   28.45
   6   5   9  216.82   36.62
   6   5   9  209.78   57.10
   6  -5   9  214.96   43.40
   6  -5   9  228.25   60.42
  -6   5   9  235.50   40.41
   6   5  -9  218.55   17.35
   6   5  -9  202.93   13.63
   6   5  -9  238.62   23.26
   6   5  -9  214.03   20.74
  -6   5 -10  274.45   37.75
  -6   5 -10  312.60   40.08
   6  -5 -10  298.51   50.58
   6  -5 -10  310.28   30.58
   6   5  10  282.56   39.35
   6   5  10  289.67   40.15
  -6   5  10  297.18   46.66
   6  -5  10  278.24   29.18
   6  -5  10  234.57   65.80
   6   5 -10  251.92   20.47
   6   5 -10  257.70   24.79
  -6   5 -11  490.14   50.05
  -6   5 -11  523.98   50.05
   6  -5 -11  552.09   65.67
   6  -5 -11  518.59   58.16
   6   5  11  467.61   51.38
   6   5  11  475.32   51.78
   6  -5  11  507.29   38.88
   6  -5  11  486.82   82.22
  -6   5  11  563.39   61.75
   6   5 -11  496.46   45.73
   6   5 -11  488.81   37.42
  -6   5 -12  300.84   40.61
  -6   5 -12  299.38   40.94
   6  -5 -12  312.07   54.70
   6  -5 -12  331.35   45.66
   6   5  12  288.21   42.81
   6   5  12  289.67   42.07
   6  -5  12  324.10   71.06
   6  -5  12  367.44   31.64
   6   5 -12  337.93   40.55
   6   5 -12  324.97   31.91
  -6   5 -13  370.23   43.27
  -6   5 -13  397.35   71.59
   6  -5 -13  424.01  102.96
   6  -5 -13  422.34   47.26
   6   5  13  347.03   45.13
   6   5  13  371.36   77.64
   6  -5  13  391.10   33.30
   6  -5  13  384.06   76.77
  -6   5  13  424.01   57.70
   6   5 -13  386.78   30.84
   6   5 -13  367.44   36.36
  -6   5 -14  418.29   45.86
  -6   5 -14  467.21   74.18
   6  -5 -14  489.48   69.93
   6   5  14  439.96   53.24
   6   5  14  443.35   76.71
   6  -5  14  474.52   55.04
   6  -5  14  433.91   50.52
  -6   5  14  477.38   61.82
   6   5 -14  460.23   35.83
   6   5 -14  456.31   42.41
  -6   5 -15  376.02   42.34
  -6   5 -15  415.17   46.00
   6   5  15  387.78   49.39
   6  -5  15  380.47   50.38
   6  -5  15  348.10   46.73
  -6   5  15  412.17   61.09
   6   5 -15  376.08   34.23
   6   5 -15  334.67   64.67
  -6   5 -16  260.29   34.96
  -6   5 -16  276.25   38.55
   6   5  16  260.69   72.25
   6  -5  16  249.99   26.92
   6  -5  16  228.25   39.55
   6   5 -16  254.71   30.58
   6   5 -16  270.26   61.82
  -6   6   0 1868.18  121.77
   6  -6   0 1551.25  110.34
  -6   6   0 1546.20  153.41
   6   6   0 1472.62   90.93
   6   6   0 1664.25  110.14
   6  -6   0 1639.86  113.60
  -6   6  -1  344.64   75.64
  -6   6  -1  446.54   51.25
   6  -6  -1  334.01   46.20
   6  -6  -1  411.84   51.85
   6   6   1  316.26   36.29
   6   6   1  338.06   68.26
   6  -6   1  418.89   76.71
   6  -6   1  333.28   79.30
  -6   6   1  324.63   46.00
  -6   6   1  470.80   81.89
   6   6  -1  315.99   33.37
   6   6  -1  334.67   41.94
  -6   6  -2 1294.82   97.98
  -6   6  -2 1498.61  144.30
   6  -6  -2 1376.77  141.38
   6  -6  -2 1411.67  145.63
   6   6   2 1236.19   82.09
   6   6   2 1307.05   94.45
   6  -6   2 1354.84   95.91
   6  -6   2 1289.63   96.38
  -6   6   2 1346.13   97.31
  -6   6   2 1615.66  105.95
   6   6  -2 1360.62   78.70
   6   6  -2 1383.75  123.63
  -6   6  -3  197.68   37.55
  -6   6  -3  251.92   39.28
   6  -6  -3  210.24   40.75
   6  -6  -3  193.29   36.56
   6   6   3  179.27   30.51
   6   6   3  203.33   36.43
   6  -6   3  170.89   33.50
   6  -6   3  168.90   37.36
  -6   6   3  149.42   34.63
  -6   6   3  200.01   64.08
   6   6  -3  158.73   22.47
   6   6  -3  153.41   29.51
  -6   6  -4 1022.76  120.97
  -6   6  -4 1108.37  119.51
   6  -6  -4 1068.29  132.47
   6  -6  -4  997.30  111.73
   6   6   4  955.89   70.99
   6   6   4 1025.28   81.96
  -6   6   4 1142.27   84.62
   6  -6   4  980.15   73.91
   6  -6   4  984.74   82.29
  -6   6   4  997.50   76.97
   6   6  -4  955.29   56.57
   6   6  -4  992.12   69.86
  -6   6  -5  280.57   45.20
  -6   6  -5  295.72   44.53
   6  -6  -5  285.22   49.65
   6  -6  -5  282.29   41.28
   6   6   5  268.73   37.62
   6   6   5  282.76   44.67
   6  -6   5  326.63   67.13
   6  -6   5  271.06   46.00
  -6   6   5  235.10   35.89
  -6   6   5  317.72   46.26
   6   6  -5  276.44   37.42
   6   6  -5  301.97   16.22
   6   6  -5  296.85   34.96
   6   6  -5  276.25   28.38
  -6   6  -6  941.73  110.54
   6  -6  -6 1002.02  129.88
   6  -6  -6  973.11  106.68
   6   6   6  880.91   70.39
   6   6   6  932.09   80.10
  -6   6  -6  921.86   79.83
   6  -6   6  997.10   72.58
   6  -6   6  960.01  121.37
   6   6  -6  840.43   57.10
   6   6  -6  879.25   62.61
   6   6  -6  918.54   41.68
   6   6  -6 1000.96   92.46
  -6   6   6 1092.68   85.75
  -6   6  -7  143.84   58.63
  -6   6  -7   98.31   35.10
   6  -6  -7  106.55   39.48
   6  -6  -7  145.77   30.24
   6   6   7  117.65   52.91
   6   6   7  129.42   35.89
   6  -6   7  153.41   28.32
   6  -6   7  141.18   60.62
  -6   6   7  165.77   36.43
   6   6  -7  125.36   15.35
   6   6  -7  134.20   14.69
   6   6  -7  133.34   19.01
   6   6  -7  145.83   24.93
  -6   6  -8  696.93   65.80
  -6   6  -8  756.42   67.13
   6  -6  -8  712.48  112.07
   6  -6  -8  788.32   87.34
   6   6   8  677.45   93.26
   6   6   8  755.62  110.54
   6  -6   8  698.72   57.76
   6  -6   8  668.81  106.08
  -6   6   8  783.67  109.21
   6   6  -8  606.80   38.22
   6   6  -8  644.02   46.20
   6   6  -8  665.16   34.30
   6   6  -8  721.92   52.71
  -6   6  -9  248.73   41.48
  -6   6  -9  215.63   72.05
   6  -6  -9  257.37   50.85
   6  -6  -9  256.30   54.70
   6   6   9  227.19   40.28
   6   6   9  254.78   76.90
   6  -6   9  202.20   57.16
   6  -6   9  259.16   44.67
  -6   6   9  290.54   48.59
   6   6  -9  236.63   16.88
   6   6  -9  257.43   29.31
   6   6  -9  283.96   46.86
  -6   6 -10  525.50   90.00
  -6   6 -10  558.47   61.95
   6  -6 -10  555.95   69.19
   6  -6 -10  545.78   47.66
   6   6  10  481.30   57.70
   6   6  10  514.80   61.48
   6  -6  10  584.86   50.18
   6  -6  10  561.00   63.01
  -6   6  10  669.54   68.66
   6   6 -10  572.63   33.77
  -6   6 -11   51.58   27.05
  -6   6 -11   43.34   50.25
   6  -6 -11   57.23   62.28
   6  -6 -11   57.10   19.48
   6   6  11   47.53   28.25
   6   6  11   49.45   30.04
   6  -6  11   74.91   21.87
   6  -6  11   66.00   30.11
  -6   6  11   78.43   57.89
   6   6 -11   71.39   13.29
  -6   6 -12  454.32   83.42
  -6   6 -12  476.58   54.44
   6  -6 -12  510.55   68.66
   6  -6 -12  504.03   60.42
   6   6  12  433.25   87.94
   6   6  12  449.06   57.96
   6  -6  12  436.50   57.56
   6  -6  12  427.20   42.67
  -6   6  12  491.54   65.14
   6   6 -12  421.68   47.39
  -6   6 -13  205.92   38.29
  -6   6 -13  231.31   40.48
   6  -6 -13  246.20   43.34
   6   6  13  218.95   42.21
   6  -6  13  186.84   49.32
   6  -6  13  195.68   71.32
  -6   6  13  224.47   81.62
   6   6 -13  178.47   35.96
  -6   6 -14  222.67   41.61
   6  -6  14  249.99   51.18
   6  -6  14  226.19   74.05
   6   6 -14  236.83   25.59
   6   6 -14  245.47   52.18
   6  -7   0   10.77   33.70
  -6   7   0    6.51   18.08
  -6   7   0    9.24   18.28
   6  -7   0    4.32   18.54
   6   7   0    6.25   12.76
   6   7   0    4.92   27.72
  -6   7  -1  181.66   41.14
  -6   7  -1  213.43   40.81
   6  -7  -1  190.97   42.21
   6  -7  -1  218.42   41.94
   6   7   1  174.35   30.18
   6   7   1  188.24   36.56
   6  -7   1  151.35   41.74
  -6   7   1  183.59   39.08
   6  -7   1  170.56   66.47
   6   7  -1  143.11   26.85
   6   7  -1  162.05   35.10
  -6   7   1  158.79   38.55
  -6   7  -2   21.00   40.41
  -6   7  -2   17.68   22.40
   6  -7  -2   29.05   23.33
   6  -7  -2   22.13   23.33
   6   7   2   18.61   17.35
   6   7   2   20.34   21.20
   6  -7   2   16.68   21.60
   6  -7   2   21.07   24.79
  -6   7   2   16.42   22.47
  -6   7   2   19.28   36.89
   6   7  -2   13.76   13.89
   6   7  -2   16.02   19.21
  -6   7  -3  107.55   61.82
  -6   7  -3  142.64   35.76
   6  -7  -3   73.51   62.08
   6  -7  -3  145.10   37.55
   6   7   3   98.11   28.52
   6   7   3  108.48   34.56
   6  -7   3  143.84   33.37
  -6   7   3   33.83   39.48
   6  -7   3  139.12   39.22
  -6   7   3  158.06   61.28
   6   7  -3  127.49   36.36
   6   7  -3  165.77   50.78
  -6   7  -4   91.93   33.17
  -6   7  -4   80.03   30.58
   6  -7  -4  101.43   30.78
   6  -7  -4   74.45   56.23
   6   7   4   70.92   45.07
   6   7   4   68.60   53.24
   6  -7   4   57.56   60.42
  -6   7   4   -1.46   22.13
  -6   7   4  112.40   32.04
   6   7  -4   82.62   29.91
   6   7  -4  102.43   25.79
   6  -7   4   79.70   49.59
  -6   7  -5  130.61   38.62
  -6   7  -5  135.07   62.15
   6  -7  -5  135.80   39.68
   6  -7  -5  152.61   59.09
   6   7   5  127.49   52.84
   6   7   5  162.32   62.75
   6  -7   5   91.46   65.67
  -6   7   5  110.87   63.41
   6  -7   5  107.55   32.57
   6   7  -5   93.06   30.91
   6   7  -5  122.10   47.79
  -6   7  -6  175.01   69.93
  -6   7  -6  172.75   39.42
   6  -7  -6  166.97   42.54
   6  -7  -6  169.56   36.43
   6   7   6  150.82   59.49
   6   7   6  136.26   70.12
   6  -7   6  157.73   35.76
   6  -7   6  160.59   43.54
  -6   7   6  175.68   42.27
   6   7  -6  168.37   31.44
  -6   7  -7   71.65   34.23
  -6   7  -7   63.68   58.29
   6  -7  -7   77.70   37.29
   6  -7  -7   65.67   50.12
   6   7   7   67.60   30.84
   6   7   7   63.94   35.63
   6  -7   7   98.17   51.51
   6  -7   7  106.62   36.89
  -6   7   7  114.33   35.16
   6   7  -7  111.93   25.52
  -6   7  -8  258.56   48.19
  -6   7  -8  254.44   47.72
   6  -7  -8  285.22   52.71
   6  -7  -8  272.99   40.41
   6   7   8  256.24   45.60
   6   7   8  261.02   51.98
   6  -7   8  246.93   52.31
  -6   7   8  323.70   51.78
   6   7  -8  258.17   28.71
   6   7  -8  291.93   56.63
   6  -7   8  258.10   42.14
  -6   7  -9   60.95   48.99
  -6   7  -9   63.08   28.78
   6  -7  -9   54.77   38.49
   6   7   9   61.48   28.52
   6  -7   9   58.16   32.04
  -6   7   9    0.40   12.50
  -6   7   9   60.35   31.11
   6   7  -9   65.14   10.83
   6   7  -9   69.93   19.48
   6  -7   9   56.43   25.26
  -6   7 -10  341.65   85.48
   6  -7 -10  332.35   39.81
   6   7  10  293.19   82.75
   6  -7  10  309.21   69.93
   6  -7  10  274.52   53.91
  -6   7  10  331.88   90.73
   6   7 -10  261.09   33.97
  -6   7 -11   46.86   29.58
   6  -7 -11   43.34   19.41
   6  -7  11   58.09   30.44
  -6   7  11    0.00   14.89
   6   7 -11   52.58   11.96
  -6   8   0  987.26   90.40
   6  -8   0  882.18   95.12
   6   8   0  740.13   65.80
   6   8   0  818.50   81.36
  -6   8  -1  255.77   83.15
   6  -8  -1  206.92   50.45
   6   8   1  145.90   34.90
   6   8   1  192.23   44.14
   6  -8   1  192.16   51.85
  -6   8   1  297.32   83.75
   6   8  -1  164.71   32.30
   6   8  -1  199.47   69.26
  -6   8  -2  770.58   80.49
   6  -8  -2  664.03  127.35
   6   8   2  603.34   62.95
   6   8   2  650.73  118.12
   6  -8   2  713.28  136.66
  -6   8   2  797.03   82.89
   6   8  -2  691.81   72.92
  -6   8  -3  308.42   92.86
   6  -8  -3  300.64   53.91
   6   8   3  243.94   43.14
   6  -8   3  264.88   60.09
  -6   8   3  301.10   94.45
   6   8  -3  240.75   46.46
  -6   8  -4  838.44   85.68
   6  -8  -4  780.81   83.22
   6   8   4  676.19   71.92
   6   8  -4  798.69  112.00
  -6   8  -5  132.94   74.25
   6  -8  -5  163.31   40.81
   6   8  -5  140.58   36.56
   6  -8  -6  541.06   66.34
   6   8  -6  612.11   91.93
   7   0   0    3.06    5.72
   7   0   0    4.92   13.96
  -7   0   0    3.86    7.78
  -7   0   0    8.64   12.96
   7   0  -1  302.70   23.26
   7   0   1  343.84   26.92
   7   0   1  336.27   28.65
  -7   0  -1  343.45   17.61
  -7   0  -1  336.73   42.01
   7   0  -1  342.85   26.85
  -7   0   1  345.17   19.54
  -7   0   1  325.23   24.99
   7   0   2   81.03   13.49
   7   0   2   83.68   17.41
  -7   0  -2   82.22   12.36
  -7   0  -2   81.69   16.15
   7   0  -2   74.11   23.13
   7   0  -2   78.50   14.22
  -7   0   2   84.88   10.50
  -7   0   2   80.29   13.56
   7   0  -3  294.13   41.61
   7   0   3  340.32   30.78
   7   0   3  358.00   21.54
  -7   0  -3  350.29   16.35
  -7   0  -3  327.36   28.85
  -7   0   3  341.98   30.91
  -7   0   3  339.39   23.86
   7   0   4  109.81   20.87
   7   0  -4  105.95   14.22
   7   0   4  107.02   10.57
  -7   0  -4  113.60   11.90
  -7   0  -4  109.74   18.68
   7   0  -4  105.02   32.77
  -7   0   4  109.47   13.23
  -7   0   4  109.47   13.49
   7   0  -5  246.33   29.98
   7   0   5  239.55   13.63
   7   0   5  239.29   46.26
  -7   0  -5  243.08   26.65
  -7   0  -5  250.12   16.09
   7   0  -5  246.13   27.65
  -7   0   5  251.65   31.11
  -7   0   5  238.36   18.41
   7   0   6  492.34   20.80
   7   0   6  461.89   62.61
  -7   0  -6  451.72   37.22
  -7   0  -6  442.22   17.61
   7   0  -6  495.39   38.75
   7   0  -6  459.10   26.39
  -7   0   6  445.34   29.31
  -7   0   6  457.31   36.36
  -7   0   7  304.23   24.00
   7   0   7  307.09   55.10
  -7   0  -7  291.80   30.91
  -7   0  -7  276.98   14.76
   7   0  -7  311.94   19.61
  -7   0   7  307.02   18.94
   7   0  -8  180.53   23.06
   7   0   8  373.16   58.16
  -7   0  -8  353.55   55.17
   7   0  -8  399.61   34.30
   7   0  -8  361.86   19.94
  -7   0   8  321.18   18.48
   7   0  -9  124.90   11.23
   7   0   9  120.31   43.54
  -7   0  -9  121.24   25.26
   7   0  -9  134.53   17.81
   7   0  -9  130.41   40.28
   7   0  -9  133.60   18.48
   7   0  10  762.47   57.43
  -7   0 -10  768.78   57.50
   7   0 -10  835.05   70.59
   7   0 -10  860.71   59.29
   7   0 -10  750.97   33.70
   7   0 -10  768.58   35.16
   7   0  11   79.96   23.93
  -7   0 -11   84.55   22.80
   7   0 -11   92.92   23.33
   7   0 -11   82.69   18.35
   7   0  12  496.12   47.86
   7   0 -12  577.28   51.05
   7   0 -12  559.54   43.01
   7   0  13   22.07   16.35
   7   0  13   26.52   17.81
   7   0 -13   26.85   31.64
   7   0 -13   25.52   27.25
   7   0 -14 1072.15   77.57
   7   0  14  941.53   67.13
   7   0  14  944.39   69.93
   7   0 -14 1058.78   69.79
   7   0  15   86.08   30.38
   7   0  15   75.58   43.20
   7   0 -15  107.81   28.38
   7   0 -15   88.67   24.66
   7   0 -16  703.11   86.41
   7   0  16  585.06   55.10
   7   0 -16  670.34   63.94
   7   0  17    0.13    7.05
   7   0  17    5.18   12.96
   7   0 -17    5.98   13.96
   7   0 -17    9.77   15.55
   7   0  18  851.14   68.60
   7   0 -18 1064.17  119.18
   7   1   0 1356.23   73.25
   7   1   0 1330.98   89.40
   7   1   0 1325.06   69.19
   7  -1   0 1254.74   66.27
   7   1   0 1300.53   57.83
   7  -1   0 1322.80   93.72
  -7   1   0 1337.42   90.46
  -7   1   0 1282.19   76.44
   7   1   1  458.90   35.36
   7   1   1  488.55   27.25
   7   1   1  449.60   33.70
   7   1   1  473.59   22.67
  -7   1  -1  469.01   51.11
   7  -1  -1  432.05   31.91
  -7   1  -1  451.72   26.65
   7  -1  -1  479.64   34.43
   7   1  -1  461.23   33.10
   7   1  -1  452.92   26.52
   7   1  -1  397.95   34.70
   7   1  -1  459.70   31.51
   7  -1   1  476.38   28.78
   7  -1   1  457.77   36.09
  -7   1   1  435.44   46.26
  -7   1   1  453.58   28.45
   7   1   2 2103.61   89.33
   7   1   2 1813.81   76.04
   7  -1  -2 1854.22  103.89
   7   1   2 2022.32  108.28
  -7   1  -2 2067.05  108.81
  -7   1  -2 2020.92  107.68
   7  -1  -2 2067.12  104.62
   7   1   2 2117.84  109.74
   7   1  -2 2022.19  102.76
   7   1  -2 1884.86  113.06
   7   1  -2 1844.91   89.27
   7   1  -2 2058.08  101.43
   7  -1   2 2090.72  111.47
   7  -1   2 2144.16  112.47
  -7   1   2 2027.97  116.65
  -7   1   2 2019.66  121.04
   7   1   3  373.69   34.50
  -7   1  -3  380.27   33.10
   7  -1  -3  358.33   33.97
  -7   1  -3  366.98   22.07
   7  -1  -3  391.30   44.33
   7   1   3  390.11   34.17
   7   1   3  403.73   16.68
   7   1   3  392.50   16.09
   7   1  -3  444.35   42.74
   7   1  -3  445.48   30.51
   7   1  -3  467.14   29.38
   7   1  -3  455.91   40.68
   7  -1   3  470.07   37.29
   7  -1   3  490.01   24.53
  -7   1   3  459.23   30.11
  -7   1   3  463.36   42.67
   7  -1  -4 1072.08   69.66
  -7   1  -4 1099.33   64.74
  -7   1  -4 1066.23   49.85
   7  -1  -4 1129.91   58.29
   7   1   4 1111.83   67.13
   7   1   4 1160.68   67.20
   7   1  -4 1087.63   56.30
   7   1  -4 1092.88   54.70
   7   1  -4 1122.66   49.79
   7   1  -4 1126.12   61.35
   7  -1   4 1116.01   94.39
   7  -1   4 1156.10   57.89
  -7   1   4 1087.43   75.91
  -7   1   4 1121.20   57.23
  -7   1  -5  279.70   29.25
   7   1   5  262.55   30.38
  -7   1  -5  268.60   25.86
   7  -1  -5  326.03   34.70
   7  -1  -5  274.18   21.60
   7   1   5  275.51   29.98
   7   1  -5  279.83   17.81
   7   1  -5  257.90   20.01
   7   1  -5  275.45   29.65
   7   1  -5  279.64   37.75
   7  -1   5  246.53   49.39
   7  -1   5  259.83   14.09
  -7   1   5  256.17   24.06
  -7   1   5  251.52   20.41
   7  -1  -6 1598.45  132.01
  -7   1  -6 1557.04  118.45
  -7   1  -6 1538.36   70.86
   7  -1  -6 1560.49   92.79
   7   1   6 1534.24   91.46
   7   1   6 1591.67   91.93
   7   1  -6 1728.79   91.99
   7   1  -6 1646.77   91.20
   7   1  -6 1807.82  115.46
   7   1  -6 1691.17   77.57
   7  -1   6 1594.19   73.05
   7  -1   6 1652.88  125.96
  -7   1   6 1627.63  107.81
  -7   1   6 1635.00   79.10
  -7   1  -7  238.42   51.85
   7  -1  -7  264.68   35.76
  -7   1  -7  222.07   23.53
   7  -1  -7  231.18   19.61
   7   1   7  231.31   31.57
   7   1   7  245.40   32.17
   7   1  -7  323.04   20.14
   7   1  -7  329.82   19.48
   7   1  -7  367.57   31.37
   7   1  -7  359.93   29.45
   7  -1   7  318.39   19.61
   7  -1   7  319.25   34.83
  -7   1   7  315.66   28.52
  -7   1   7  323.31   30.18
  -7   1  -8  797.83   56.90
   7  -1  -8  845.09   87.81
  -7   1  -8  724.38   42.34
   7  -1  -8  796.43   39.81
   7   1   8  757.08   81.09
   7   1   8  816.57   57.16
   7   1  -8  800.62   48.59
   7   1  -8  781.14   46.13
   7   1  -8  790.05   41.54
   7   1  -8  841.50   72.98
   7  -1   8  771.90   30.44
   7  -1   8  764.13   57.23
  -7   1   8  758.21   68.93
  -7   1   8  790.32   38.62
   7   1   9  283.16   33.10
  -7   1  -9  274.52   33.43
  -7   1  -9  245.27   15.15
   7  -1  -9  304.43   36.29
   7  -1  -9  264.68   17.48
   7   1   9  262.88   53.71
   7   1  -9  246.20   23.53
   7   1  -9  251.25   22.33
   7   1  -9  267.14   28.25
   7   1  -9  254.18   21.54
   7  -1   9  244.94   33.30
  -7   1   9  251.59   27.85
  -7   1   9  257.24   16.62
   7  -1 -10 1017.71  104.29
  -7   1 -10  871.94   92.19
   7  -1 -10  820.63   38.68
   7   1  10  854.59   62.21
   7   1  10  868.68   62.35
   7   1 -10  911.95   40.88
   7   1 -10  913.55   46.59
   7   1 -10  937.28   69.06
   7   1 -10  992.12   61.88
   7  -1  10  889.62   92.92
  -7   1  10  889.55   82.95
  -7   1  10  895.94   48.52
   7  -1 -11  397.75   43.27
   7   1  11  334.94   36.82
  -7   1 -11  343.05   38.15
   7   1  11  337.33   38.09
   7   1 -11  372.89   44.40
   7   1 -11  371.63   55.50
   7  -1  11  340.65   62.48
  -7   1  11  343.38   35.36
  -7   1  11  332.68   23.80
   7  -1 -12  619.09   55.57
  -7   1 -12  523.11   47.66
   7   1  12  512.87   45.86
   7   1  12  535.01   48.59
   7   1 -12  583.33   70.26
   7   1 -12  555.95   39.35
   7  -1  12  539.26   78.03
   7   1  13  216.09   52.44
  -7   1 -13  232.11   54.44
   7  -1 -13  270.93   39.95
   7  -1 -13  268.00   34.70
   7   1  13  240.82   55.44
   7   1 -13  221.54   26.99
   7   1 -13  226.26   32.30
   7  -1  13  205.99   33.90
  -7   1 -14  375.95   41.81
   7  -1 -14  434.57   82.29
   7  -1 -14  439.89   72.65
   7   1  14  346.84   39.02
   7   1  14  348.10   42.87
   7   1 -14  435.64   43.60
   7  -1  14  391.37   43.47
   7   1 -14  506.89   58.03
  -7   1 -15  155.94   30.44
   7  -1 -15  171.49   64.87
   7  -1 -15  167.37   33.90
   7   1  15  179.80   24.79
   7   1  15  164.11   31.77
   7   1 -15  188.57   27.58
   7   1 -15  212.70   33.37
   7  -1  15  170.76   32.17
  -7   1 -16    8.91   28.58
   7  -1 -16  244.94   68.66
   7  -1 -16  250.52   37.16
   7   1  16  220.21   33.43
   7   1 -16  214.23   30.04
   7   1 -16  218.15   35.30
   7  -1  16  195.29   32.44
   7  -1 -17  137.32   37.89
   7  -1 -17  142.38   56.10
   7   1  17  126.62   48.85
   7   1 -17  139.98   45.33
   7   1 -17  116.85   32.57
   7  -1  17   80.96   48.19
   7   1  18   92.13   28.25
   7   1 -18  113.46   27.92
   7  -1  18  113.13   28.05
   7   2   0   46.20   14.89
   7   2   0   58.23    6.45
   7   2   0   53.97    3.86
   7   2   0   63.48   24.19
  -7   2   0   48.59   22.27
   7  -2   0   55.30   27.52
   7  -2   0   52.51   14.09
  -7   2   0   62.81   14.96
   7   2   1  265.48   26.39
   7   2   1  263.48   39.48
  -7   2  -1  247.00   25.66
  -7   2  -1  242.41   21.87
   7  -2  -1  239.62   25.32
   7  -2  -1  268.87   26.45
   7   2  -1  242.15   10.17
   7   2  -1  256.57   38.02
   7   2  -1  220.28   20.80
   7   2  -1  252.32   22.33
  -7   2   1  238.96   22.93
   7  -2   1  256.11   23.13
   7  -2   1  260.03   27.92
  -7   2   1  253.31   24.26
   7   2   2  180.13   23.86
   7   2   2  200.20   38.22
  -7   2  -2  196.08   24.26
  -7   2  -2  170.16   18.94
   7  -2  -2  165.71   24.59
   7  -2  -2  181.66   22.20
   7   2  -2  203.79   13.83
   7   2  -2  204.66   34.10
   7   2  -2  201.47   19.01
   7   2  -2  187.64   14.82
  -7   2   2  190.43   35.16
   7  -2   2  208.51   26.26
   7  -2   2  219.21   19.74
  -7   2   2  197.48   33.70
   7   2   3  186.84   25.79
   7   2   3  188.77   24.73
  -7   2  -3  184.52   25.72
  -7   2  -3  164.31   29.71
   7  -2  -3  177.54   27.72
   7  -2  -3  174.22   36.96
   7   2  -3  221.28   20.87
   7   2  -3  221.54   29.98
   7   2  -3  232.18   17.28
   7   2  -3  273.52   17.61
  -7   2   3  217.15   23.86
   7  -2   3  232.64   46.99
   7  -2   3  237.69   19.34
  -7   2   3  218.15   33.10
   7   2   4  146.17   23.33
   7   2   4  164.64   22.47
  -7   2  -4  146.76   22.40
  -7   2  -4  129.61   15.55
   7  -2  -4  136.53   25.39
   7  -2  -4  148.43   18.48
   7   2  -4  126.89   15.95
   7   2  -4  128.09   14.49
   7   2  -4  134.40   14.56
   7   2  -4  134.60   15.02
   7  -2   4  121.90   41.14
   7  -2   4  142.04   23.26
  -7   2   4  125.36   16.22
  -7   2   4  122.90   20.54
   7   2   5  283.76   30.18
   7   2   5  290.27   29.38
  -7   2  -5  291.20   47.92
  -7   2  -5  257.24   31.31
   7  -2  -5  285.28   52.31
   7  -2  -5  295.26   23.53
   7   2  -5  219.28   29.51
   7   2  -5  206.92   26.45
   7   2  -5  232.18   20.01
   7   2  -5  215.43   13.56
  -7   2   5  212.57   42.74
   7  -2   5  218.02   24.99
   7  -2   5  217.22   30.58
  -7   2   5  195.22   19.41
   7   2   6  542.72   44.73
   7   2   6  550.70   44.14
  -7   2  -6  555.35   45.00
  -7   2  -6  507.76   44.33
   7  -2  -6  596.96   51.58
   7  -2  -6  567.25   49.19
   7   2  -6  530.16   30.44
   7   2  -6  550.23   28.71
   7   2  -6  578.21   34.43
   7   2  -6  549.57   26.65
  -7   2   6  511.68   31.31
   7  -2   6  575.16   28.85
   7  -2   6  541.66   46.59
  -7   2   6  524.71   41.81
   7   2   7  181.86   28.38
   7   2   7  206.98   28.18
  -7   2  -7  184.92   28.18
  -7   2  -7  182.32   17.61
   7  -2  -7  224.86   36.36
   7  -2  -7  204.26   18.74
   7   2  -7  196.88   24.99
   7   2  -7  191.63   21.87
   7   2  -7  202.00   32.30
   7   2  -7  198.28   14.56
  -7   2   7  182.92   16.75
   7  -2   7  193.09   13.49
   7  -2   7  196.15   30.44
  -7   2   7  189.97   43.94
   7   2   8  183.06   28.71
   7   2   8  203.40   28.65
  -7   2  -8  197.81   29.11
  -7   2  -8  180.66   28.78
   7  -2  -8  234.50   37.22
   7  -2  -8  185.38   17.08
   7   2  -8  176.81   22.47
   7   2  -8  174.35   19.28
   7   2  -8  192.10   23.93
   7   2  -8  190.70   21.34
   7  -2   8  179.40   19.48
   7  -2   8  173.09   30.18
  -7   2   8  178.00   27.19
  -7   2   8  168.57   24.53
   7   2   9  409.91   64.74
   7   2   9  430.65   65.80
  -7   2  -9  454.32   68.33
  -7   2  -9  438.23   28.65
   7  -2  -9  483.63   79.23
   7  -2  -9  446.54   27.92
   7   2  -9  427.73   24.33
   7   2  -9  494.20   38.22
   7   2  -9  409.38   20.14
   7   2  -9  453.12   34.17
  -7   2   9  418.69   34.43
   7  -2   9  413.50   20.94
   7  -2   9  411.38   43.34
  -7   2   9  405.66   64.21
   7   2  10  388.91   66.73
   7   2  10  388.44   66.93
  -7   2 -10  394.56   42.07
  -7   2 -10  401.41   40.35
   7  -2 -10  446.07   51.98
   7  -2 -10  396.22   25.19
   7   2 -10  448.20   40.68
   7   2 -10  458.30   54.50
  -7   2  10  426.13   23.73
   7  -2  10  408.92   43.94
   7  -2  10  434.51   20.87
  -7   2  10  437.17   42.87
   7   2  11  434.04   44.20
   7   2  11  421.55   45.13
  -7   2 -11  437.63   43.94
  -7   2 -11  432.85   29.05
   7  -2 -11  544.18   89.73
   7  -2 -11  424.60   25.39
   7   2 -11  502.90   32.04
   7   2 -11  543.92   60.55
  -7   2  11  454.98   32.37
   7  -2  11  494.86   47.99
   7  -2  11  534.54   31.91
  -7   2  11  523.58   74.05
   7   2  12  169.16   29.78
   7   2  12  186.98   31.24
  -7   2 -12  166.24   51.31
  -7   2 -12  186.64   29.58
   7  -2 -12  178.07   62.48
   7   2 -12  168.90   20.27
   7   2 -12  173.22   26.65
   7  -2  12  162.58   31.31
  -7   2  12  156.14   30.78
   7   2  13  417.09   41.54
   7   2  13  449.00   44.73
  -7   2 -13  454.38   44.93
   7  -2 -13  526.77   56.70
   7   2 -13  367.24   31.31
   7   2 -13  407.92   40.55
   7  -2  13  359.66   70.39
  -7   2  13  369.37   72.85
   7   2  14  423.87   69.66
   7   2  14  433.25   47.72
  -7   2 -14  466.88   74.31
   7  -2 -14  534.68   61.95
   7   2 -14  511.94   57.50
   7   2 -14  525.17   47.26
   7  -2  14  490.94   78.77
  -7   2  14  494.73   51.98
   7   2  15  403.33   37.75
   7   2  15  444.48   77.90
  -7   2 -15  457.17   46.33
   7  -2 -15  544.91   64.14
   7   2 -15  501.51   61.02
   7   2 -15  547.84   50.05
   7  -2  15  478.44   50.25
   7   2  16  195.82   35.56
  -7   2 -16  182.26   31.91
   7  -2 -16  233.04   43.74
   7  -2 -16  237.03   80.56
   7   2 -16  198.48   28.85
   7   2 -16  208.25   35.23
   7  -2  16  174.48   34.03
   7   2  17  428.66   49.12
  -7   2 -17  427.93   44.47
   7  -2 -17  523.31  101.50
   7   2 -17  420.75   42.27
   7   2 -17  448.27   50.72
   7  -2  17  406.39   46.99
   7   3   0    8.18   17.55
   7   3   0   10.77    9.37
   7  -3   0   -1.06   18.68
  -7   3   0    6.85   11.10
   7  -3   0    6.05   20.14
  -7   3   0    0.47   11.10
   7   3   1 1792.07   99.30
   7   3   1 1770.07   93.72
  -7   3  -1 1753.39   98.64
  -7   3  -1 1776.72  124.56
   7  -3  -1 1603.43   95.85
   7  -3  -1 1738.70   98.37
   7   3  -1 1674.89  115.99
   7   3  -1 1608.55   85.08
   7  -3   1 1600.11   96.38
   7  -3   1 1487.78  112.20
  -7   3   1 1633.14   93.39
  -7   3   1 1563.55  119.71
   7   3   2  183.19   24.99
   7   3   2  185.91   26.59
  -7   3  -2  176.94   45.66
  -7   3  -2  187.97   25.13
   7  -3  -2  193.29   28.18
   7  -3  -2  181.79   25.72
   7   3  -2  194.62   22.93
   7   3  -2  205.19   32.30
   7   3  -2  211.50   20.74
   7   3  -2  197.35   12.63
   7  -3   2  198.14   29.18
  -7   3   2  192.49   24.79
   7  -3   2  221.54   40.88
  -7   3   2  186.05   27.85
   7   3   3 1693.90  100.63
   7   3   3 1752.46   98.44
  -7   3  -3 1703.07  100.24
  -7   3  -3 1823.84  102.16
   7  -3  -3 1733.78  109.61
   7  -3  -3 1661.59  121.11
   7   3  -3 1810.82   90.40
   7   3  -3 1860.47   95.58
   7   3  -3 1787.88   94.25
   7   3  -3 1745.21   76.97
  -7   3   3 1789.68   97.91
   7  -3   3 1833.08  141.05
   7  -3   3 1916.17  123.17
  -7   3   3 1748.73  104.22
   7   3   4   32.90   17.22
   7   3   4   29.91   16.22
  -7   3  -4   30.51   17.28
  -7   3  -4   27.58   24.59
   7  -3  -4   41.54   35.03
   7  -3  -4   34.23   13.89
   7   3  -4   35.49   21.14
   7   3  -4   34.43    9.90
   7   3  -4   35.23   13.56
   7   3  -4   31.97    5.32
  -7   3   4   30.11   12.83
   7  -3   4   35.89   31.44
   7  -3   4   39.75   21.27
  -7   3   4   30.44   30.04
   7   3   5 1209.87   78.57
   7   3   5 1214.46   75.51
  -7   3  -5 1171.65   77.17
  -7   3  -5 1323.60   74.05
   7  -3  -5 1283.65   88.27
   7  -3  -5 1183.75   89.40
   7   3  -5 1240.98   65.60
   7   3  -5 1194.25   71.79
   7   3  -5 1238.52   72.38
   7   3  -5 1199.37   58.36
   7  -3   5 1275.01   82.49
   7  -3   5 1194.18   80.29
  -7   3   5 1162.08   64.87
  -7   3   5 1217.91   80.69
   7   3   6  248.73   30.97
   7   3   6  223.20   32.17
  -7   3  -6  226.26   54.04
  -7   3  -6  229.12   42.47
   7  -3  -6  248.39   38.09
   7  -3  -6  222.94   22.87
   7   3  -6  220.01   30.91
   7   3  -6  213.43   16.15
   7   3  -6  220.68   20.21
   7   3  -6  235.03   18.74
   7  -3   6  213.10   33.10
  -7   3   6  187.18   52.84
   7  -3   6  212.57   34.43
  -7   3   6  203.13   21.07
   7   3   7 1220.77   83.29
   7   3   7 1247.82   82.95
  -7   3  -7 1245.23  119.38
  -7   3  -7 1417.39   79.90
   7  -3  -7 1375.51  134.13
   7  -3  -7 1242.70   71.06
   7   3  -7 1384.22   68.86
   7   3  -7 1353.64   72.19
   7   3  -7 1400.24   61.42
   7   3  -7 1447.10   86.28
  -7   3   7 1292.42   66.20
   7  -3   7 1392.06   68.53
   7  -3   7 1402.36   92.66
  -7   3   7 1325.13   89.27
   7   3   8   71.79   24.06
   7   3   8   71.52   23.66
  -7   3  -8   68.33   24.66
  -7   3  -8   80.29   30.64
   7  -3  -8   78.03   29.98
   7  -3  -8   73.32   15.22
   7   3  -8   89.33   12.16
   7   3  -8   78.43    8.84
   7   3  -8   85.35   10.30
   7   3  -8   94.32   14.62
  -7   3   8   72.98   41.74
   7  -3   8   91.66   12.43
   7  -3   8   84.81   25.59
  -7   3   8   39.68   15.49
   7   3   9  823.82   63.08
   7   3   9  827.34   62.48
  -7   3  -9  791.91   61.88
  -7   3  -9  908.17   54.50
   7  -3  -9  909.10   75.91
   7  -3  -9  889.29   66.40
   7   3  -9  755.29   39.02
   7   3  -9  758.08   33.90
   7   3  -9  808.66   66.20
   7   3  -9  830.60   42.74
   7  -3   9  765.26   40.15
   7  -3   9  739.87   62.75
  -7   3   9  758.54   64.21
   7   3  10  137.39   29.45
   7   3  10  141.51   29.05
  -7   3 -10  146.30   49.12
  -7   3 -10  164.11   35.89
   7  -3 -10  174.02   66.60
   7  -3 -10  149.82   28.25
   7   3 -10  136.73   15.29
   7   3 -10  145.70   33.70
  -7   3  10  129.48   30.71
   7  -3  10  132.74   14.02
   7  -3  10  128.88   30.71
   7   3  11  734.68   92.99
   7   3  11  762.60   94.98
  -7   3 -11  779.22   62.81
  -7   3 -11  825.15   53.97
   7  -3 -11  971.71   85.81
   7  -3 -11  866.42   62.95
   7   3 -11  806.67   44.93
   7   3 -11  860.31   56.10
   7  -3  11  799.56   66.87
  -7   3  11  812.72   69.13
   7  -3  11  782.07   39.48
   7   3  12   53.77   39.28
   7   3  12   60.62   40.61
  -7   3 -12   46.40   38.35
  -7   3 -12   52.05   29.05
   7  -3 -12   67.00   32.04
   7   3 -12   57.83   13.36
   7   3 -12   63.28   17.95
   7  -3  12   -1.13   24.00
   7  -3  12   56.83    9.37
  -7   3  12   55.04   26.06
   7   3  13  323.97   43.14
   7   3  13  312.07   40.28
  -7   3 -13  342.85   40.94
  -7   3 -13  345.24   33.50
   7  -3 -13  372.29   91.93
   7   3 -13  316.39   27.85
   7   3 -13  337.33   35.83
   7  -3  13  311.27   28.65
   7  -3  13  306.62   42.34
  -7   3  13  299.31   76.44
   7   3  14  170.89   32.97
   7   3  14  188.04   36.36
  -7   3 -14  198.94   33.77
  -7   3 -14  211.70   26.72
   7  -3 -14  259.30   50.05
   7   3 -14  221.28   39.35
   7   3 -14  239.22   32.10
   7  -3  14  185.65   36.69
  -7   3  14  207.32   40.61
   7   3  15  341.25   75.11
  -7   3 -15  379.94   71.39
   7  -3 -15  441.02   65.34
   7   3 -15  394.76   54.31
   7   3 -15  408.85   44.33
   7  -3  15  377.88   76.24
  -7   3  15  398.88   86.68
   7   3  16   93.46   51.58
  -7   3 -16  115.06   26.59
   7   3 -16  112.86   36.96
   7   3 -16  110.34   28.25
   7  -3  16    0.20   50.72
  -7   3  16   97.71   34.23
   7   4   0  201.20   45.00
   7   4   0  217.35   39.48
   7  -4   0  195.68   48.32
   7  -4   0  181.46   29.38
  -7   4   0  184.85   28.85
  -7   4   0  224.27   30.58
   7   4   1   33.04   16.88
   7   4   1   24.79   25.52
  -7   4  -1   27.05   17.95
   7  -4  -1   22.33   18.08
  -7   4  -1   27.05   30.91
   7  -4  -1   22.87   30.04
   7   4  -1   45.73   15.55
   7   4  -1   53.18   13.49
   7  -4   1   45.13   18.61
   7  -4   1    0.40   16.82
  -7   4   1   47.53   17.28
  -7   4   1   51.38   32.84
   7   4   2  296.19   50.85
   7   4   2  289.34   34.03
  -7   4  -2  295.99   35.83
  -7   4  -2  332.41   34.96
   7  -4  -2  308.15   37.89
   7  -4  -2  270.20   32.10
   7   4  -2  298.71   29.78
   7   4  -2  290.27   25.86
   7  -4   2  289.87   60.62
   7  -4   2  292.13   31.91
  -7   4   2  277.04   50.98
  -7   4   2  340.59   38.95
   7   4   3   29.18   17.02
   7   4   3   30.44   26.39
   7  -4  -3   25.59   18.61
  -7   4  -3   31.71   30.18
  -7   4  -3   30.64   26.92
   7  -4  -3   24.59   24.53
   7   4  -3   21.67   21.47
   7   4  -3   27.52   10.57
   7  -4   3   28.65   31.04
   7  -4   3    1.26   13.96
  -7   4   3   22.93   24.00
  -7   4   3   25.52   18.01
   7   4   4  177.87   30.18
   7   4   4  181.86   45.27
   7  -4  -4  180.73   53.44
  -7   4  -4  171.22   31.04
  -7   4  -4  199.01   27.19
   7  -4  -4  183.59   26.39
   7   4  -4  154.67   22.00
   7   4  -4  154.14   27.92
   7  -4   4  167.37   23.93
   7  -4   4  164.31   31.44
  -7   4   4  144.30   38.42
  -7   4   4  183.32   53.57
   7   4   5  272.99   36.89
   7   4   5  270.73   54.97
   7  -4  -5  310.28   41.68
  -7   4  -5  269.07   37.36
  -7   4  -5  316.86   33.37
   7  -4  -5  274.12   48.06
   7   4  -5  248.39   38.42
   7   4  -5  250.85   13.43
   7   4  -5  245.14   19.54
   7   4  -5  271.06   18.54
   7  -4   5  268.93   27.45
   7  -4   5  249.59   38.22
  -7   4   5  264.28   36.89
  -7   4   5  270.06   38.42
   7   4   6  179.40   52.71
   7   4   6  193.69   34.10
  -7   4  -6  193.23   34.63
  -7   4  -6  220.94   29.38
   7  -4  -6  192.36   66.87
   7  -4  -6  198.68   26.26
   7   4  -6  208.11   18.74
   7   4  -6  194.69   16.09
   7   4  -6  222.47   26.85
   7   4  -6  216.82   22.20
   7  -4   6  233.31   24.73
   7  -4   6  201.27   36.09
  -7   4   6  233.17   60.35
   7   4   7  201.73   34.83
   7   4   7  199.14   32.57
   7  -4  -7  206.39   39.95
  -7   4  -7  188.77   59.09
  -7   4  -7  213.70   29.31
   7  -4  -7  203.53   42.27
   7   4  -7  199.74   13.43
   7   4  -7  186.58   14.76
   7   4  -7  197.08   18.08
   7   4  -7  217.69   33.83
   7  -4   7  198.08   22.53
   7  -4   7  199.41   36.16
  -7   4   7  199.47   36.76
   7   4   8  157.00   31.97
   7   4   8  154.87   30.18
  -7   4  -8  153.54   31.04
   7  -4  -8  164.31   61.68
  -7   4  -8  175.41   25.39
   7  -4  -8  157.20   34.90
   7   4  -8  123.10   12.10
   7   4  -8  121.17   17.75
   7   4  -8  127.02   16.15
   7   4  -8  136.66   27.19
   7  -4   8  119.84   30.97
   7  -4   8  114.86   32.10
  -7   4   8  127.09   32.10
   7   4   9  511.88   54.24
   7   4   9  516.93   51.98
   7  -4  -9  589.31   63.48
  -7   4  -9  517.20   51.85
  -7   4  -9  577.22   68.73
   7  -4  -9  539.73   39.81
   7   4  -9  473.99   37.82
   7   4  -9  460.50   23.06
   7   4  -9  486.15   47.72
   7   4  -9  522.98   33.43
   7  -4   9  497.92   50.12
   7  -4   9  470.14   53.18
  -7   4   9  485.89   56.43
   7   4  10  135.07   33.50
   7   4  10  138.99   32.90
  -7   4 -10  135.80   53.57
  -7   4 -10  144.04   26.59
   7  -4 -10  141.05   40.55
   7  -4 -10  144.44   22.27
   7   4 -10  166.17   32.30
   7   4 -10  168.96   24.79
   7  -4  10  170.43   31.24
   7  -4  10  169.83   35.10
  -7   4  10  166.44   36.49
   7   4  11  455.11   51.58
   7   4  11  464.15   83.09
  -7   4 -11  459.23   49.72
   7  -4 -11  522.58  106.62
  -7   4 -11  489.01   69.53
   7  -4 -11  518.39   37.75
   7   4 -11  468.21   37.22
   7   4 -11  483.23   43.60
   7  -4  11  476.05   55.04
   7  -4  11  488.48   46.99
  -7   4  11  490.08   57.96
   7   4  12  132.07   33.30
   7   4  12  148.16   56.03
  -7   4 -12  143.11   31.37
  -7   4 -12  149.29   27.52
   7  -4 -12  150.42   43.87
   7  -4 -12  155.40   18.41
   7   4 -12  125.96   22.20
   7   4 -12  129.88   28.25
   7  -4  12  126.69   34.56
   7  -4  12  139.78   27.98
  -7   4  12  133.14   37.16
   7   4  13  535.34   88.74
   7   4  13  558.01   59.36
  -7   4 -13  540.79   54.17
  -7   4 -13  612.18   51.78
   7  -4 -13  644.68   76.11
   7   4 -13  557.34   45.40
   7   4 -13  563.86   54.50
   7  -4  13  540.92   47.72
   7  -4  13  553.29   59.29
  -7   4  13  558.14  104.22
   7   4  14   42.21   24.00
  -7   4 -14   33.70   21.00
  -7   4 -14   48.79   33.17
   7   4 -14   38.49   17.68
   7   4 -14   41.08   23.13
   7  -4  14    1.86   18.28
   7  -4  14   41.61   24.39
  -7   4  14   42.81   27.05
   7   4  15  568.11   97.78
  -7   4 -15  604.93   53.84
   7   4 -15  627.93   54.04
   7   4 -15  636.64   65.74
   7  -4  15  591.84   35.49
   7  -4  15  598.09   62.55
   7   5   0  610.32   75.71
   7   5   0  582.40   66.47
  -7   5   0  602.14   56.23
  -7   5   0  703.97   92.92
   7  -5   0  617.16   58.69
   7  -5   0  615.24   89.00
   7   5   1  676.85   75.44
   7   5   1  706.37   57.83
   7  -5  -1  709.89   96.05
  -7   5  -1  698.19   61.82
  -7   5  -1  828.40   65.80
   7  -5  -1  687.56   61.55
   7   5  -1  703.77   69.39
   7   5  -1  720.32   56.23
   7  -5   1  717.67   99.50
   7  -5   1  684.23   59.09
  -7   5   1  717.27   61.42
  -7   5   1  858.51   66.87
   7  -5  -2  454.18   47.86
   7   5   2  473.99   47.86
   7   5   2  455.98   65.80
  -7   5  -2  483.96   50.98
  -7   5  -2  595.96   82.42
   7  -5  -2  523.31   54.97
   7   5  -2  477.18   36.49
   7   5  -2  490.94   43.60
   7  -5   2  448.93   77.64
   7  -5   2  456.38   46.40
  -7   5   2  492.07   73.45
  -7   5   2  500.25   84.42
   7   5   3  812.12   67.60
   7   5   3  767.12   87.74
  -7   5  -3  825.21  105.35
  -7   5  -3  952.57   71.59
   7  -5  -3  856.85  113.73
   7  -5  -3  762.93   63.01
   7   5  -3  811.99   49.79
   7   5  -3  834.58   82.55
   7  -5   3  824.88   91.39
   7  -5   3  768.85   68.06
  -7   5   3  849.54   90.93
  -7   5   3  973.51   75.84
   7   5   4  564.79   55.90
   7   5   4  540.19   76.24
   7  -5  -4  583.20   80.29
  -7   5  -4  559.80   57.30
  -7   5  -4  683.30   89.60
   7  -5  -4  599.82   61.82
   7   5  -4  535.74   35.30
   7   5  -4  586.46   47.19
   7  -5   4  565.78   76.57
   7  -5   4  520.05   56.63
  -7   5   4  627.93   59.49
   7   5   5  565.19   81.36
   7   5   5  601.28   58.83
  -7   5  -5  585.59   60.22
  -7   5  -5  697.99   59.49
   7  -5  -5  637.97   66.34
   7  -5  -5  577.68   52.91
   7   5  -5  592.84   50.32
   7   5  -5  646.21   69.46
   7  -5   5  616.70   50.05
   7  -5   5  587.85   60.62
  -7   5   5  692.74   64.81
   7   5   6  516.80   86.87
   7   5   6  493.20   77.44
  -7   5  -6  504.23   55.57
  -7   5  -6  556.94   81.96
   7  -5  -6  505.76   59.02
   7  -5  -6  542.39   74.58
   7   5  -6  456.58   28.85
   7   5  -6  487.42   40.94
   7  -5   6  488.68   43.54
   7  -5   6  447.47   88.54
  -7   5   6  504.17   56.96
   7   5   7  720.99  105.29
   7   5   7  701.31   62.88
  -7   5  -7  720.92  107.68
  -7   5  -7  821.03   65.67
   7  -5  -7  808.00   78.37
   7  -5  -7  724.71   57.83
   7   5  -7  720.39   49.92
   7   5  -7  800.69   72.52
   7  -5   7  771.97   55.57
   7  -5   7  723.91  107.08
  -7   5   7  830.93  112.73
   7   5   8  391.17   83.29
   7   5   8  364.12   46.93
  -7   5  -8  372.36   50.78
   7  -5  -8  420.02   57.96
   7  -5  -8  405.53   40.01
   7   5  -8  373.95   30.18
   7   5  -8  370.76   22.20
   7   5  -8  382.20   26.92
   7   5  -8  422.34   49.25
   7  -5   8  401.01   37.42
   7  -5   8  377.34   81.89
  -7   5   8  450.86   56.43
   7   5   9  347.50   50.85
   7   5   9  340.59   47.13
  -7   5  -9  346.77   49.45
  -7   5  -9  385.45   44.60
   7  -5  -9  403.33   98.17
   7  -5  -9  383.79   59.09
   7   5  -9  378.74   22.93
   7   5  -9  378.41   41.21
   7  -5   9  412.97   55.83
   7  -5   9  359.80   81.56
  -7   5   9  429.39   90.60
   7   5  10  241.68   44.47
   7   5  10  254.98   42.07
  -7   5 -10  252.38   69.53
  -7   5 -10  249.13   37.82
   7  -5 -10  266.34   52.58
   7  -5 -10  283.42   31.44
   7   5 -10  252.91   19.74
   7   5 -10  234.30   36.43
   7  -5  10  247.26   47.53
   7  -5  10  247.46   73.18
  -7   5  10  279.10   49.52
   7   5  11  403.67   53.51
   7   5  11  423.08   85.61
  -7   5 -11  408.19   51.38
  -7   5 -11  451.13   77.70
   7  -5 -11  467.48   65.54
   7  -5 -11  464.22   39.22
   7   5 -11  423.61   28.25
   7   5 -11  398.48   49.25
   7  -5  11  431.12   36.89
   7  -5  11  416.89   87.81
  -7   5  11  448.07   98.51
   7   5  12  162.18   40.41
  -7   5 -12  164.11   63.01
  -7   5 -12  179.27   35.10
   7  -5 -12  186.71   24.86
   7   5 -12  206.72   31.91
   7   5 -12  195.75   24.86
   7  -5  12  202.20   67.60
   7  -5  12  210.77   24.86
  -7   5  12  237.69   46.79
  -7   5 -13  136.66   32.30
   7   5 -13  141.45   30.24
   7   5 -13  124.56   23.26
   7  -5  13  139.72   20.54
   7  -5  13  142.18   61.42
   7   6   0    8.71   12.30
   7   6   0    7.11   26.92
   7  -6   0   10.37   32.17
   7  -6   0    0.73   17.61
  -7   6   0   10.70   17.41
  -7   6   0    7.38   17.55
   7   6   1  123.10   27.58
   7   6   1  139.25   33.70
  -7   6  -1  141.51   61.28
   7  -6  -1  146.17   36.82
  -7   6  -1  145.17   60.69
   7  -6  -1  142.24   61.62
   7   6  -1  171.62   25.32
   7   6  -1  180.13   54.90
   7  -6   1  173.68   34.36
   7  -6   1  176.08   37.49
  -7   6   1  209.38   31.64
  -7   6   1  204.53   37.42
   7   6   2   66.54   38.68
   7   6   2   84.02   28.18
  -7   6  -2   84.95   29.18
   7  -6  -2   73.91   30.78
   7  -6  -2   79.30   28.32
   7   6  -2   72.72   18.35
   7   6  -2   86.01   25.19
   7  -6   2   -0.47   45.07
   7  -6   2   70.52   30.64
  -7   6   2   82.42   30.11
   7  -6  -3  175.15   63.88
   7   6   3  130.88   28.71
   7   6   3  150.88   34.50
  -7   6  -3  150.62   36.36
  -7   6  -3  179.80   56.50
   7  -6  -3  161.39   58.03
   7   6  -3  115.59   20.47
   7   6  -3  135.20   46.59
   7  -6   3  108.94   31.17
   7  -6   3  121.51   36.29
  -7   6   3  141.91   35.30
   7   6   4   62.95   23.66
   7   6   4   79.43   49.98
  -7   6  -4   65.21   29.38
  -7   6  -4  100.10   27.85
   7  -6  -4   78.37   30.44
   7  -6  -4   74.84   26.26
   7   6  -4   70.06   15.02
   7   6  -4   75.24   21.47
   7  -6   4   68.99   24.19
   7  -6   4   64.41   52.44
  -7   6   4    1.33   14.62
  -7   6   4   86.54   29.65
   7   6   5  101.03   29.71
   7   6   5   96.65   56.90
  -7   6  -5  104.16   35.36
  -7   6  -5  123.17   32.64
   7  -6  -5  100.97   64.87
   7  -6  -5   64.81   53.97
   7   6  -5  128.48   28.12
   7   6  -5  142.31   41.94
   7  -6   5  136.13   49.79
   7  -6   5  120.31   63.15
  -7   6   5  150.95   36.23
   7   6   6  180.40   37.82
   7   6   6  189.37   70.12
  -7   6  -6  206.05   75.64
  -7   6  -6  226.73   40.88
   7  -6  -6  225.40   46.99
   7  -6  -6  217.15   38.35
   7   6  -6  225.40   20.94
   7   6  -6  266.14   32.24
   7  -6   6  270.13   60.89
   7  -6   6  227.12   47.06
  -7   6   6  269.53   77.44
   7   6   7  101.10   26.79
   7   6   7   81.82   50.72
  -7   6  -7   95.05   31.04
  -7   6  -7  109.54   27.45
   7  -6  -7   78.17   57.83
   7  -6  -7   83.35   42.81
   7   6  -7   62.02   11.70
   7   6  -7   80.10   32.24
   7  -6   7   70.52   22.87
   7  -6   7   72.85   32.37
  -7   6   7    1.13   14.02
  -7   6   7   76.17   31.17
   7   6   8  218.55   40.15
   7   6   8  212.24   43.40
  -7   6  -8  206.52   43.94
   7  -6  -8  240.02   48.66
   7  -6  -8  239.62   35.56
   7   6  -8  187.64   26.65
   7   6  -8  212.70   28.71
   7  -6   8  195.15   46.73
   7  -6   8  223.34   33.57
  -7   6   8  243.81   77.57
   7   6   9  140.38   37.42
  -7   6  -9  155.01   36.43
   7  -6  -9  160.86   30.04
   7  -6   9  151.22   30.58
   7  -6   9  167.10   43.40
  -7   6   9  183.85   44.33
  -7   6 -10  309.95   44.47
   7  -6 -10  312.54   55.63
   7   6 -10  272.46   31.11
   7   6 -10  252.65   25.19
   7  -6  10  278.57   59.82
   7  -6  10  275.51   52.58
   7   7   0  725.18   61.35
   7  -7   0  809.33   86.08
   7   7   0  840.57   77.77
   7  -7   0  876.53   83.22
  -7   7   0 1015.71   88.07
   7   7   1    1.20   12.70
   7   7   1    0.53   16.22
   7  -7  -1    7.25   31.57
  -7   7  -1    1.26   31.37
   7  -7  -1    5.58   31.71
   7   7  -1    8.97   25.72
   7  -7   1    7.91   19.21
  -7   7   1   -1.73   13.23
  -7   7   1    1.06   32.50
   7  -7   1    9.31   17.95
   7   7   2  765.06   67.93
   7   7   2  906.50  126.09
  -7   7  -2 1071.88   91.26
   7  -7  -2  897.86   90.73
   7   7  -2  906.30   78.77
   7  -7   2  943.06   85.48
   7  -7   2  906.04  144.24
  -7   7   2 1086.37   94.39
   7   7   3    1.00   10.70
   7   7   3    5.52   22.60
  -7   7  -3    4.25   23.66
   7  -7  -3    2.19   13.43
   7   7  -3    4.19   11.17
   7  -7   3   -2.26   12.63
   7  -7   3    1.33   25.52
  -7   7   3   -1.46    5.92
   7   7   4  648.41   66.27
  -7   7  -4  907.30   83.02
   7  -7  -4  822.55  121.44
   7   7  -4  682.50   71.52
   7   7  -4  834.58  103.63
   7  -7   4  745.72  110.80
   7  -7   4  745.38   86.41
  -7   7   4  949.44   88.54
   7   7   5   53.51   25.86
  -7   7  -5   63.74   30.51
   7  -7  -5   61.55   29.05
   7   7  -5   71.65   15.29
   7   7  -5   70.12   23.40
  -7   7   5   -0.60   14.82
  -7   7  -6  987.86  126.29
   7  -7  -6  837.31  117.32
   7   7  -6  719.59   47.26
   7   7  -6  825.88   98.64
   8   0   0 2333.86  155.74
  -8   0   0 2329.94  151.88
   8   0   0 2375.34  115.59
  -8   0   0 2340.24  107.35
   8   0   1    5.58    9.44
   8   0   1    6.38   11.23
  -8   0  -1   10.77    7.64
  -8   0  -1    1.79   18.15
   8   0  -1    2.33   12.70
   8   0  -1    4.85   17.81
  -8   0   1    5.18    5.52
  -8   0   1    3.19   16.15
  -8   0   2 1307.05   72.98
  -8   0  -2 1194.65   58.23
  -8   0  -2 1276.34  100.04
   8   0  -2 1170.85   82.69
   8   0  -2 1230.74   70.39
  -8   0   2 1234.06   68.00
   8   0   2 1267.90   77.17
   8   0   3  122.77   25.52
  -8   0  -3  137.06   40.68
   8   0  -3  126.62   31.57
   8   0  -3  123.90   31.77
  -8   0   3  152.28   16.22
  -8   0   3  139.05   14.29
  -8   0   4 1751.39   85.81
   8   0   4 1740.09  136.73
  -8   0  -4 1681.07   99.77
   8   0  -4 1733.25  122.50
   8   0  -4 1749.93   91.20
   8   0   5   25.92   25.86
  -8   0  -5   23.13   13.83
   8   0  -5    0.20    7.31
   8   0  -5   26.79   20.61
   8   0  -5   24.66   14.89
   8   0   6  575.22   77.04
   8   0  -6  711.28   53.18
  -8   0  -6  597.69   49.98
   8   0  -6  602.21   36.43
   8   0  -6  623.08   35.83
   8   0  -6  583.86   34.96
   8   0  -7   57.43   20.14
   8   0   7   59.76   36.82
  -8   0  -7   54.64   20.87
   8   0  -7   44.40   11.10
   8   0  -7   41.14   18.61
   8   0  -7   56.03   12.43
   8   0   8  978.69  105.55
  -8   0  -8  947.45   70.59
   8   0  -8 1012.19   65.14
   8   0  -8  988.53   62.61
   8   0  -8 1020.57   75.44
   8   0  -8 1171.18   78.77
   8   0   9   22.80   31.51
  -8   0  -9   18.08   17.28
   8   0  -9   17.48    7.51
   8   0  -9   20.14   16.95
   8   0  -9   15.82    7.38
   8   0  -9   22.40   18.81
   8   0 -10  656.45   44.87
   8   0  10  605.13   92.13
   8   0 -10  737.01   59.96
   8   0  10  591.37   56.70
   8   0  11  150.95   31.91
   8   0  11  155.27   57.36
   8   0 -11  172.29   39.28
   8   0  12  467.21   51.18
   8   0  12  486.62   54.64
   8   0 -12  558.87   54.64
   8   0 -12  548.30   42.27
   8   0  13   96.05   48.39
   8   0  13  113.86   31.17
   8   0 -13  105.22   23.46
   8   0 -13  135.20   31.57
   8   0  14  252.18   43.27
   8   0 -14  322.18   44.73
   8   0 -15  152.81   37.55
   8  -1   0  124.43   22.13
   8   1   0  112.07   34.10
   8  -1   0  114.26   15.49
  -8   1   0  116.52   14.09
   8   1   0  119.18   36.89
  -8   1   0  112.40   20.07
  -8   1  -1  287.01   29.31
  -8   1  -1  272.72   28.91
   8  -1  -1  251.39   23.80
   8  -1  -1  272.32   45.33
   8   1   1  275.85   50.45
   8   1   1  274.78   46.26
   8  -1   1  273.65   31.24
   8  -1   1  267.01   30.84
  -8   1   1  268.14   31.71
  -8   1   1  261.16   26.72
   8   1  -1  267.14   28.45
   8   1  -1  258.56   26.52
  -8   1  -2   60.49   15.89
   8   1   2   43.47   31.64
  -8   1  -2   58.36   17.68
   8  -1  -2   48.06   14.76
   8  -1  -2   54.31   15.42
   8   1   2   53.71   17.28
  -8   1   2   54.57   14.29
   8  -1   2   45.40   32.70
   8  -1   2   44.93   15.35
  -8   1   2   44.53   11.77
   8   1  -2   44.27   14.96
   8   1  -2   51.58   13.89
   8   1  -2   49.92   10.70
   8   1  -2   22.47   17.61
  -8   1  -3  221.74   16.15
  -8   1  -3  228.72   29.31
   8  -1  -3  215.03   26.52
   8  -1  -3  221.61   23.93
   8   1   3  222.27   48.39
   8   1   3  225.53   29.25
  -8   1   3  200.74   19.21
   8  -1   3  217.35   50.12
   8  -1   3  223.80   14.96
  -8   1   3  219.75   32.97
   8   1  -3  221.28   23.53
   8   1  -3  207.72   32.10
   8   1  -3  225.66   35.63
   8   1  -3  217.09   13.43
  -8   1  -4  139.32   25.92
   8  -1  -4  135.40   39.55
   8  -1  -4  132.21   32.37
   8   1   4  137.32   45.53
   8   1   4  143.84   26.06
  -8   1  -4  133.94   18.88
   8   1  -4  143.44   17.55
   8  -1   4  142.38   27.19
  -8   1   4  154.14   18.61
   8   1  -4  155.47   32.84
   8   1  -4  155.34   11.96
   8   1  -4  145.17   30.38
  -8   1  -5  206.98   30.78
   8  -1  -5  230.98   48.32
   8  -1  -5  211.90   21.93
   8   1   5  215.16   31.44
   8   1   5  221.21   52.98
   8  -1   5  233.90   32.84
  -8   1   5  233.44   23.46
   8   1  -5  231.45   40.08
   8   1  -5  232.31   32.97
   8   1  -5  235.50   16.15
  -8   1  -6  114.86   41.74
   8  -1  -6  124.16   24.59
   8  -1  -6  102.89   15.22
   8   1   6  110.80   24.86
   8   1   6   98.04   24.86
   8   1  -6   86.21   13.29
   8  -1   6   87.54   25.59
  -8   1   6   92.92   28.38
   8   1  -6   83.35   13.69
   8   1  -6  101.30   33.10
   8   1  -6   92.06   11.57
  -8   1  -7  191.43   51.98
   8  -1  -7  238.82   56.50
   8  -1  -7  198.28   29.11
   8   1   7  174.08   31.64
   8   1   7  203.20   31.51
   8  -1   7  173.88   32.57
  -8   1   7  170.69   23.20
   8   1  -7  181.99   26.92
   8   1  -7  197.55   25.72
   8   1  -7  181.53   16.42
   8   1  -7  184.58   25.39
  -8   1  -8  371.50   43.27
   8  -1  -8  492.93   50.85
   8  -1  -8  386.52   26.32
   8   1   8  365.85   44.33
   8   1   8  394.56   44.93
   8  -1   8  403.73   46.33
  -8   1   8  424.40   54.31
   8   1  -8  405.53   25.59
   8   1  -8  504.83   40.21
   8   1  -8  453.05   59.96
   8   1  -8  407.19   34.36
  -8   1  -9  308.55   41.14
   8  -1  -9  362.46   71.99
   8  -1  -9  312.67   22.00
   8   1   9  290.54   41.61
   8   1   9  319.32   41.61
   8  -1   9  319.05   43.74
  -8   1   9  330.22   33.17
   8   1  -9  351.95   25.52
   8   1  -9  391.24   36.96
   8   1  -9  344.58   29.18
   8  -1 -10  296.58   42.41
   8   1  10  229.25   38.02
   8   1  10  247.20   38.62
  -8   1 -10  230.71   38.15
   8  -1  10  242.68   39.42
  -8   1  10  249.33   30.38
   8   1 -10  269.20   23.60
   8   1 -10  298.31   33.83
   8  -1 -11  107.61   24.19
  -8   1 -11  129.02   50.18
   8  -1 -11  129.55   33.17
   8   1  11  108.61   48.99
   8   1  11  107.15   29.78
   8  -1  11  102.83   30.51
   8   1 -11  103.29   18.28
   8   1 -11  120.44   41.88
  -8   1 -12  616.83   60.42
   8  -1 -12  735.61  101.90
   8  -1 -12  728.10   56.83
   8   1  12  576.95   57.89
   8   1  12  607.13   59.96
   8  -1  12  615.17   62.08
   8   1 -12  767.65   67.93
   8   1 -12  718.06   58.56
  -8   1 -13  138.39   32.50
   8  -1 -13  159.26   36.89
   8  -1 -13  130.94   49.12
   8   1  13  113.40   31.11
   8   1  13  129.02   56.10
   8  -1  13  134.47   33.77
   8   1 -13  164.05   31.04
   8  -1 -14  331.81   51.25
   8  -1 -14  336.40   42.81
   8   1  14  286.88   73.71
   8  -1  14  269.33   73.51
   8   1 -14  306.89   43.54
   8   1 -15  104.09   52.31
   8  -2   0  794.24   50.25
   8  -2   0  780.08   56.83
  -8   2   0  785.13   54.11
  -8   2   0  752.89   46.53
   8   2   0  853.86   81.03
   8   2   0  799.82   51.58
  -8   2  -1  872.74   59.76
  -8   2  -1  821.62   65.34
   8  -2  -1  871.14   59.56
   8   2   1  888.16   85.88
   8   2   1  924.58   59.09
   8  -2  -1  828.20   55.77
   8  -2   1  990.99   93.92
   8  -2   1  966.06   55.30
  -8   2   1  892.28   70.79
  -8   2   1  931.23   58.63
   8   2  -1  936.61   55.50
   8   2  -1  972.57   60.22
  -8   2  -2  426.47   39.02
   8  -2  -2  357.60   35.36
  -8   2  -2  359.60   27.19
   8  -2  -2  404.13   56.17
   8   2   2  383.79   60.35
   8   2   2  386.12   37.09
   8  -2   2  414.97   64.74
   8  -2   2  445.01   29.91
  -8   2   2  389.77   32.17
  -8   2   2  426.07   30.58
   8   2  -2  421.15   34.50
   8   2  -2  421.08   48.59
  -8   2  -3  792.71   58.29
   8  -2  -3  805.74   58.89
   8  -2  -3  811.59   53.31
   8   2   3  795.17   84.48
   8   2   3  871.01   85.35
  -8   2  -3  834.92   85.88
   8  -2   3  771.51   60.22
   8  -2   3  802.75   43.87
  -8   2   3  729.83   68.20
   8   2  -3  781.14   49.85
   8   2  -3  773.30   46.20
  -8   2  -4  607.19   77.50
  -8   2  -4  553.42   34.56
   8  -2  -4  592.64   61.22
   8   2   4  576.09   76.04
   8   2   4  616.37   76.57
   8  -2  -4  630.99   80.10
   8  -2   4  616.17   54.11
   8  -2   4  635.64   34.50
  -8   2   4  605.60   43.87
   8   2  -4  616.57   26.39
   8   2  -4  629.66   58.23
   8   2  -4  597.96   36.36
   8  -2  -5  707.96   58.69
  -8   2  -5  594.83   48.72
   8  -2  -5  662.83   44.47
   8   2   5  642.69   82.29
   8   2   5  652.19   81.29
  -8   2  -5  631.79   55.17
   8  -2   5  722.58   46.86
   8  -2   5  734.28   59.16
  -8   2   5  708.89   71.85
   8   2  -5  702.44   31.31
   8   2  -5  711.35   42.67
   8   2  -5  716.40   39.75
   8   2  -5  777.75   58.83
  -8   2  -6  340.85   40.01
  -8   2  -6  296.25   22.67
   8  -2  -6  322.64   42.54
   8   2   6  315.93   62.35
   8   2   6  314.73   62.41
   8  -2  -6  363.05   42.14
   8  -2   6  334.27   27.92
   8  -2   6  337.60   42.07
  -8   2   6  324.37   33.50
   8   2  -6  324.50   18.68
   8   2  -6  304.63   36.09
   8   2  -6  331.75   22.53
   8   2  -6  352.42   43.34
  -8   2  -7  541.92   51.71
  -8   2  -7  468.21   28.78
   8  -2  -7  598.89   82.36
   8  -2  -7  528.69   34.70
   8   2   7  534.88   77.97
   8   2   7  539.06   77.90
   8  -2   7  525.64   52.64
  -8   2   7  503.37   67.00
   8   2  -7  511.35   27.05
   8   2  -7  512.87   31.51
   8   2  -7  521.05   29.38
   8   2  -7  578.48   39.15
   8  -2  -8  507.16   52.98
  -8   2  -8  417.09   76.71
   8  -2  -8  417.69   29.65
   8   2   8  441.22   77.50
   8   2   8  436.70   76.90
   8  -2   8  435.17   80.63
  -8   2   8  437.23   42.27
   8   2  -8  446.14   25.72
   8   2  -8  457.24   41.34
   8   2  -8  443.48   35.56
   8   2  -8  481.97   53.51
   8  -2  -9  521.05   86.87
  -8   2  -9  466.41   82.55
   8  -2  -9  473.33   31.71
   8   2   9  452.65   51.11
   8   2   9  468.54   81.29
   8  -2   9  483.76   85.15
  -8   2   9  460.43   69.79
   8   2  -9  477.51   28.85
   8   2  -9  548.24   41.21
  -8   2 -10  193.96   36.62
   8  -2 -10  198.61   18.41
   8   2  10  181.46   35.36
   8   2  10  196.35   36.43
   8  -2 -10  241.22   43.20
  -8   2  10  174.75   30.84
   8   2 -10  178.80   17.61
   8   2 -10  189.50   43.34
   8  -2  10  178.87   62.28
  -8   2 -11  378.67   47.79
   8  -2 -11  489.28   59.09
   8   2  11  376.28   46.99
   8   2  11  382.53   47.86
   8  -2  11  363.78   49.05
  -8   2  11  366.04   42.87
   8   2 -11  379.94   41.48
   8   2 -11  394.96   57.43
  -8   2 -12  208.45   66.14
   8  -2 -12  301.17   83.68
   8   2  12  210.64   38.42
   8   2  12  220.48   40.15
   8  -2  12  240.68   42.41
  -8   2  12  233.51   36.49
   8   2 -12  287.48   37.95
   8   2 -12  271.39   32.04
   8  -2 -13  339.86   55.57
   8   2  13  261.49   44.00
   8  -2  13  298.51   45.27
  -8   2  13  279.50   41.81
   8   2 -13  314.73   44.14
   8   2 -13  327.29   37.29
   8  -2 -14  190.63   39.35
   8  -2  14  157.40   37.95
   8   2 -14  178.67   23.93
   8   2 -14  162.45   31.17
   8  -3   0  310.54   50.92
  -8   3   0  311.21   34.96
  -8   3   0  295.19   46.86
   8   3   0  318.52   53.84
   8   3   0  335.00   48.85
   8  -3   0  318.45   59.69
   8  -3  -1   13.43   14.69
  -8   3  -1    9.17   15.02
  -8   3  -1    9.57   11.96
   8  -3  -1    6.38   23.06
   8   3   1    7.91   24.26
   8   3   1   14.89   22.13
   8  -3   1   21.00   27.39
   8  -3   1   13.76   21.34
  -8   3   1   30.18   19.74
  -8   3   1   15.82   12.89
   8   3  -1   20.54   13.16
   8   3  -1   18.35   11.63
   8  -3  -2  166.77   26.26
  -8   3  -2  167.90   28.91
  -8   3  -2  151.28   35.69
   8  -3  -2  170.03   27.52
   8   3   2  171.62   27.98
   8   3   2  186.05   42.87
   8  -3   2  162.05   30.44
   8  -3   2  168.83   22.60
  -8   3   2  134.67   41.34
   8   3  -2  161.79   23.40
   8   3  -2  164.91   21.00
  -8   3  -3  111.14   25.99
  -8   3  -3  107.02   19.14
   8  -3  -3  116.25   25.79
   8   3   3  110.54   25.46
   8   3   3  117.72   23.73
   8  -3  -3  114.26   22.27
   8  -3   3   99.04   27.52
   8  -3   3  110.14   18.15
  -8   3   3  104.22   23.13
   8   3  -3   98.44   31.64
   8   3  -3  106.82   27.52
   8  -3  -4  283.82   30.64
  -8   3  -4  301.57   37.89
  -8   3  -4  288.81   42.81
   8  -3  -4  288.34   63.21
   8   3   4  294.92   37.16
   8   3   4  316.13   35.23
   8  -3   4  308.48   25.72
  -8   3   4  269.66   33.97
   8   3  -4  294.66   28.52
   8   3  -4  277.57   23.73
   8  -3   4  278.90   40.01
  -8   3  -5  127.22   48.52
  -8   3  -5  111.40   18.88
   8  -3  -5  127.22   29.65
   8  -3  -5  108.08   20.47
   8   3   5  113.06   27.92
   8   3   5  126.22   26.72
   8  -3   5  129.08   16.35
   8  -3   5  125.36   52.64
  -8   3   5  114.39   26.32
   8   3  -5  128.22   18.54
   8   3  -5  120.91   15.09
  -8   3  -6  178.54   53.91
  -8   3  -6  167.57   20.74
   8  -3  -6  167.97   34.90
   8   3   6  178.93   31.57
   8   3   6  174.02   30.24
   8  -3  -6  149.62   21.54
   8  -3   6  141.98   27.45
   8  -3   6  136.13   56.50
  -8   3   6  119.51   47.46
   8   3  -6  143.44   29.71
   8   3  -6  132.47   25.26
   8  -3  -7  302.77   29.65
  -8   3  -7  302.97   42.67
  -8   3  -7  307.69   27.25
   8  -3  -7  368.90   46.40
   8   3   7  292.80   41.21
   8   3   7  305.82   40.41
   8  -3   7  305.29   33.04
   8  -3   7  300.31   72.58
  -8   3   7  291.67   38.95
   8   3  -7  298.45   24.06
   8   3  -7  291.87   20.41
   8   3  -7  346.90   26.39
   8   3  -7  305.82   18.08
   8  -3  -8  159.66   33.30
  -8   3  -8  160.39   33.37
  -8   3  -8  146.50   19.28
   8  -3  -8  170.89   36.23
   8   3   8  132.01   32.50
   8   3   8  139.78   54.04
   8  -3   8  140.18   23.80
   8  -3   8  140.45   35.03
  -8   3   8  131.54   51.05
   8   3  -8  148.36   16.82
   8   3  -8  137.79   13.16
   8   3  -8  157.07   29.78
   8   3  -8  140.32   19.94
  -8   3  -9  233.90   69.59
  -8   3  -9  232.44   37.22
   8  -3  -9  270.33   46.46
   8  -3  -9  225.06   37.49
   8   3   9  224.07   67.20
   8   3   9  241.02   67.67
   8  -3   9  295.72   29.51
   8  -3   9  304.49   44.47
  -8   3   9  277.11   40.48
   8   3  -9  311.87   27.05
   8   3  -9  293.53   28.78
  -8   3 -10   71.06   28.45
   8  -3 -10   81.29   55.57
   8  -3 -10   79.50   14.56
   8   3  10   66.93   46.73
   8   3  10   75.38   47.92
   8  -3  10   -0.86   28.98
  -8   3  10   63.61   45.27
   8   3 -10   60.49   28.18
   8   3 -10   78.90   19.08
  -8   3 -11  390.17   49.25
   8  -3 -11  446.94   58.83
   8   3  11  383.33   79.63
   8   3  11  381.40   49.85
   8  -3  11  351.02   50.52
  -8   3  11  351.22   48.72
   8   3 -11  379.80   38.88
   8   3 -11  378.61   52.58
   8  -3 -12  183.26   45.53
   8   3  12  156.34   37.89
   8  -3  12  173.88   66.40
  -8   3  12  169.76   62.75
   8   3 -12  175.68   31.04
   8   3 -12  184.39   26.39
  -8   3  13  442.42   56.23
   8   3 -13  461.03   49.79
   8   3 -13  476.78   43.40
  -8   4   0   33.63   30.64
   8  -4   0   40.81   19.08
  -8   4   0   16.15   23.00
   8  -4   0   -1.60   17.55
   8   4   0   47.59   29.91
   8   4   0   35.03   25.32
  -8   4  -1 1057.32   72.72
   8  -4  -1  955.43  102.16
   8  -4  -1  926.64  100.63
  -8   4  -1  947.78  104.42
   8   4   1  943.26   99.37
   8   4   1  927.04   63.01
   8  -4   1  972.84   75.24
   8  -4   1  972.18   68.20
  -8   4   1 1041.97   74.18
   8   4  -1  954.50   67.73
   8   4  -1  995.84   84.28
  -8   4  -2   72.85   25.79
  -8   4  -2   66.07   37.55
   8  -4  -2   76.11   24.99
   8  -4  -2   61.02   22.53
   8   4   2   85.61   24.93
   8   4   2   82.69   21.80
   8  -4   2   96.58   26.72
   8  -4   2   92.66   21.27
  -8   4   2    1.26   19.87
  -8   4   2   89.20   41.81
   8   4  -2   86.68   20.54
   8   4  -2   87.14   17.41
  -8   4  -3  845.88   70.12
  -8   4  -3  916.41   63.61
   8  -4  -3  897.20   71.12
   8  -4  -3  799.02   86.68
   8   4   3  847.61   68.46
   8   4   3  853.13   62.61
   8  -4   3  853.06   81.56
   8  -4   3  807.93  107.35
  -8   4   3  878.26   69.19
   8   4  -3  780.74   77.10
   8   4  -3  790.05   49.25
  -8   4  -4   35.96   21.87
  -8   4  -4   28.98   16.82
   8  -4  -4   26.85   38.75
   8  -4  -4   36.16   18.41
   8   4   4   27.25   21.74
   8   4   4   37.36   19.61
   8  -4   4   32.10   27.78
   8  -4   4   43.14   39.15
  -8   4   4    0.20   15.35
   8   4  -4   40.61   14.82
   8   4  -4   41.54   19.54
  -8   4   4   39.42   37.09
  -8   4  -5 1073.34   85.61
  -8   4  -5 1289.57   81.36
   8  -4  -5 1165.47   90.26
   8  -4  -5 1121.60  103.36
   8   4   5 1100.86   87.67
   8   4   5 1099.33   80.56
  -8   4   5 1302.33   93.72
   8  -4   5 1236.26   95.98
   8  -4   5 1154.97   90.86
   8   4  -5 1150.31   70.06
   8   4  -5 1120.14   76.51
  -8   4  -6   60.35   51.98
  -8   4  -6  102.36   22.60
   8  -4  -6   78.17   55.63
   8  -4  -6   92.39   21.93
   8   4   6   98.11   30.58
   8   4   6   97.11   27.98
   8  -4   6   92.86   19.28
   8  -4   6   83.15   32.10
  -8   4   6   88.74   30.11
   8   4  -6   86.54   13.43
   8   4  -6   99.50   18.01
  -8   4  -7  782.74   78.57
   8  -4  -7  799.02   75.04
   8   4   7  696.79   68.99
   8   4   7  688.02   64.08
  -8   4  -7  706.83   68.73
   8  -4   7  734.15   46.93
   8  -4   7  711.28   71.19
  -8   4   7  766.52   70.26
   8   4  -7  703.31   50.05
   8   4  -7  727.97   63.21
  -8   4  -8  170.63   38.75
  -8   4  -8  199.54   27.19
   8  -4  -8  198.68   74.18
   8  -4  -8  186.45   25.86
   8   4   8  173.09   39.08
   8   4   8  188.77   36.49
   8  -4   8  158.53   20.94
   8  -4   8  165.44   40.75
  -8   4   8  140.18   63.68
  -8   4  -9  644.42  105.55
  -8   4  -9  719.93   74.71
   8  -4  -9  779.02   80.43
   8  -4  -9  740.93   52.78
   8   4   9  644.68   68.80
   8   4   9  663.03  103.23
   8  -4   9  729.17   44.33
   8  -4   9  687.82   71.52
  -8   4   9  732.89   71.85
  -8   4 -10   96.98   22.20
   8  -4 -10   83.88   38.42
   8  -4 -10   79.43   31.97
   8   4  10   70.66   55.63
   8  -4  10   95.52   15.42
   8  -4  10   96.85   34.43
  -8   4  10   74.84   57.36
   8   4 -10   94.25   12.63
   8   4 -10  108.68   28.52
  -8   4 -11  294.72   31.84
   8  -4  11  237.96   21.54
  -8   4  11  231.45   46.73
   8   4 -11  236.30   20.27
   8   4 -11  243.21   41.34
   8  -5   0  197.68   38.95
  -8   5   0  234.04   36.89
   8  -5   0  200.47   34.70
   8   5   0  174.81   53.71
   8   5   0  183.65   47.19
  -8   5  -1  -15.89   22.13
  -8   5  -1   64.47   36.43
   8  -5  -1   58.23   22.33
   8   5   1   64.47   20.47
   8  -5  -1   -0.27   22.00
   8   5   1   67.00   17.61
   8  -5   1    0.53   32.70
  -8   5   1   -1.33   16.22
  -8   5   1   38.15   37.82
   8  -5   1   37.75   42.34
   8   5  -1   37.69   26.85
   8   5  -1   35.83   32.64
  -8   5  -2  103.89   27.52
  -8   5  -2   87.47   24.79
   8  -5  -2   66.60   44.67
   8  -5  -2   77.44   26.45
   8   5   2   77.70   25.39
   8   5   2   73.58   22.60
   8  -5   2   48.46   46.59
   8  -5   2    1.60   39.88
  -8   5   2   -1.20   22.67
  -8   5   2   79.76   26.59
   8   5  -2   68.06   17.55
   8   5  -2   54.57   21.80
  -8   5  -3  173.75   38.49
  -8   5  -3  201.53   55.77
   8  -5  -3  168.37   38.22
   8  -5  -3  167.57   33.83
   8   5   3  174.75   35.56
   8   5   3  161.98   31.77
   8  -5   3  179.60   38.35
  -8   5   3  242.01   63.54
   8  -5   3  184.92   31.17
   8   5  -3  196.81   23.13
   8   5  -3  195.42   46.40
  -8   5  -4  217.55   42.87
  -8   5  -4  255.11   37.29
   8  -5  -4  229.19   68.86
   8  -5  -4  218.35   56.96
   8   5   4  215.76   39.81
   8   5   4  207.45   36.23
   8  -5   4  219.15   32.10
   8  -5   4  195.82   41.74
  -8   5   4  261.02   41.48
   8   5  -4  208.18   22.80
   8   5  -4  207.98   30.91
  -8   5  -5   85.28   54.24
  -8   5  -5   91.39   44.14
   8  -5  -5   89.93   31.77
   8  -5  -5   83.22   25.66
   8   5   5   97.91   30.44
   8   5   5   95.12   27.32
   8  -5   5   57.23   37.49
   8  -5   5   53.71   31.31
  -8   5   5   71.25   52.64
   8   5  -5   67.80   24.00
   8   5  -5   65.07   20.80
  -8   5  -6  226.33   33.77
   8  -5  -6  201.93   69.66
   8  -5  -6  193.16   50.78
   8   5   6  200.01   66.34
   8   5   6  184.92   35.69
   8  -5   6  164.18   46.73
   8  -5   6  146.63   40.68
  -8   5   6  187.31   40.61
   8   5  -6  145.83   17.28
   8   5  -6  165.71   26.32
  -8   5  -7  229.72   34.83
   8  -5  -7  198.88   45.13
   8  -5  -7  202.53   32.70
   8   5   7  178.07   39.08
   8  -5   7  215.82   28.85
   8  -5   7  208.11   75.58
  -8   5   7  254.38   76.24
   8   5  -7  199.27   27.25
   8   5  -7  224.60   43.27
  -8   5  -8  186.38   54.37
   8  -5  -8  167.30   50.12
   8  -5   8  171.69   26.39
  -8   5   8  205.99   43.94
  -8   5  -9  141.98   30.51
   8  -5  -9  135.40   26.85
   8  -5   9  130.61   22.80
   8  -6   0  478.24   95.85
  -8   6   0  593.63   98.11
   8   6   0  451.06   70.66
   8   6   0  481.37   55.97
   8  -6   0  454.38   56.17
  -8   6  -1  152.88   36.36
   8  -6  -1  114.06   35.69
   8  -6  -1   90.07   35.23
   8   6   1  114.46   45.27
   8   6   1  118.91   33.43
   8  -6   1   -0.60   56.23
   8  -6   1   93.39   36.56
  -8   6   1  120.64   37.29
   8   6  -1  104.36   40.55
   8   6  -1  106.68   51.58
  -8   6  -2  768.38  108.48
   8  -6  -2  604.74   68.33
   8   6   2  595.63   87.34
   8  -6   2  637.77   62.61
  -8   6   2  830.20  116.59
   8   6  -2  633.91   49.85
   8   6  -2  687.95   63.41
  -8   6  -3  153.41   36.09
   8  -6  -3   85.55   56.10
   8   6   3   95.38   49.98
   8  -6   3  107.21   31.24
  -8   6   3  121.44   37.82
   8   6  -3   91.13   21.07
   8   6  -3  106.15   28.98
   8  -6  -4  589.91   63.74
   8   6  -4  553.16   41.41
   8   6  -4  608.66   82.82
   9   0   0   -0.47    7.84
  -9   0   0   -0.20    3.86
   9   0  -1  249.52   48.46
   9   0   1  239.29   32.17
   9   0   2   24.73   13.23
  -9   0  -2   -0.80    5.05
   9   0  -2   21.20   10.83
   9   0   3  288.74   38.02
   9   0  -3  271.66   28.38
   9   0  -4    0.13   12.63
   9   0   4   49.45   32.17
  -9   0  -4   10.30   12.30
   9   0  -4   36.62   12.10
   9   0   5  136.20   30.64
   9   0   5  163.85   50.45
  -9   0  -5    1.99   25.66
   9   0  -5  155.54   36.36
   9   0  -5  148.56   18.41
   9   0   6  148.43   34.76
   9   0   6  152.68   57.36
   9   0  -6  175.15   42.87
   9   0  -6  166.11   19.81
   9   0   7  191.43   38.55
   9   0   7  222.01   64.41
   9   0  -7  245.07   32.70
   9   0  -7  212.63   32.70
   9   0   8  154.41   36.09
   9   0   8  151.55   61.55
   9   0  -8  168.10   17.68
   9   0  -8  203.26   54.24
   9   0   9   78.83   55.90
   9   0  -9  111.34   29.71
   9   0 -10  521.85   88.54
  -9   1   0  522.38   30.24
   9   1   0  579.61   71.72
   9   1   0  580.41   45.80
   9  -1   0  572.03   48.19
   9  -1  -1  226.93   29.25
   9   1   1  208.45   31.24
   9   1   1  216.09   49.25
   9  -1   1  179.47   52.05
   9   1  -1  175.48   26.52
  -9   1   1  183.65   18.35
   9  -1  -2  940.40   74.84
   9  -1  -2  934.69   86.87
   9   1   2  918.20   68.53
   9   1   2  945.06   96.05
   9  -1   2  937.35  100.30
   9   1  -2  940.60   81.49
  -9   1   2  929.10   64.81
   9  -1  -3  183.32   24.19
   9  -1  -3  195.88   26.99
   9   1   3  199.01   33.77
   9   1   3  185.52   32.04
  -9   1   3  231.25   21.00
   9  -1   3  214.63   34.90
   9   1  -3  205.26   24.79
  -9   1  -4  536.21   44.87
   9  -1  -4  579.41   45.53
   9  -1  -4  569.11   61.48
   9   1   4  537.00   53.11
   9   1   4  564.06   53.31
   9  -1   4  575.22   55.37
  -9   1   4  562.79   37.55
   9   1  -4  544.45   38.62
  -9   1  -5  226.93   35.63
   9  -1  -5  264.01   32.77
   9  -1  -5  241.02   26.06
   9   1   5  237.23   37.16
   9   1   5  242.41   37.22
  -9   1   5  201.87   37.22
   9  -1   5  207.32   38.68
   9   1  -5  197.55   35.89
  -9   1  -6  656.32   60.15
   9  -1  -6  768.65   85.08
   9  -1  -6  687.22   62.15
   9   1   6  655.05   95.18
   9   1   6  697.33   62.55
  -9   1   6  704.04   46.46
   9  -1   6  711.02   66.14
   9   1  -6  698.86   42.01
  -9   1  -7  143.71   57.70
   9  -1  -7  171.49   32.17
   9  -1  -7  159.92   20.27
   9   1   7  131.41   59.36
   9   1   7  150.75   35.63
  -9   1   7  166.70   23.80
   9  -1   7  174.28   37.49
   9   1  -7  207.78   28.85
   9   1  -7  175.28   18.28
   9  -1  -8  593.97   84.15
   9  -1  -8  483.23   33.50
   9   1   8  494.33   56.50
   9  -1   8  506.89   58.49
   9   1  -8  624.28   75.24
   9  -1  -9  246.20   38.88
   9   1   9  207.05   40.55
   9  -1   9  166.77   40.94
   9   1  -9  194.29   32.84
   9  -1 -10  585.33   95.58
   9   1 -10  595.43   84.08
   9  -2   0  137.32   45.66
  -9   2   0  131.28   17.95
   9  -2   0  132.87   19.81
   9   2   0  128.02   39.48
  -9   2  -1    0.33   14.82
   9  -2  -1   99.24   17.95
   9  -2  -1  126.36   22.67
   9   2   1  106.08   21.20
  -9   2   1   89.00   15.75
   9  -2   1   95.25   24.19
   9  -2   1   98.37   15.55
  -9   2   1    0.53   16.82
   9   2  -1   86.14   32.57
  -9   2  -2  180.73   19.14
   9  -2  -2  199.87   41.94
   9  -2  -2  195.62   29.18
   9   2   2  191.96   30.58
   9  -2   2  209.84   34.56
  -9   2   2  219.15   36.03
   9   2  -2  213.56   25.39
   9  -2  -3    0.07   30.84
   9   2   3   55.04   22.93
   9   2   3   64.01   21.60
  -9   2  -3  -12.50   16.75
  -9   2   3   -0.27   14.76
   9  -2   3  112.33   24.79
  -9   2   3   93.72   15.82
   9   2  -3   98.11   15.55
  -9   2  -4  170.76   27.12
   9  -2  -4  166.64   26.79
   9  -2  -4  146.63   24.53
   9   2   4  148.03   31.91
   9   2   4  149.75   31.44
   9  -2   4  172.95   59.56
  -9   2   4  173.28   38.09
   9   2  -4  163.05   33.10
  -9   2  -5  101.03   29.38
   9  -2  -5  117.52   26.19
   9  -2  -5  108.34   33.77
   9   2   5  117.38   29.45
   9   2   5  109.41   29.38
   9  -2   5   86.21   52.05
  -9   2   5   94.72   20.74
   9   2  -5  101.70   16.28
  -9   2  -6  171.16   36.23
   9  -2  -6  205.92   56.17
   9  -2  -6  169.63   23.66
   9   2   6  175.41   36.29
   9   2   6  175.68   35.89
   9  -2   6  195.15   64.01
  -9   2   6  187.58   26.79
   9   2  -6  184.52   21.07
   9   2  -6  199.74   30.91
   9  -2  -7  250.59   38.35
   9  -2  -7  201.80   38.29
   9   2   7  212.77   39.68
   9  -2   7  219.88   41.74
  -9   2   7  205.59   47.13
   9   2  -7  209.44   32.90
   9   2  -7  219.21   19.61
   9  -2  -8   68.66   48.79
   9  -2  -8   90.20   25.39
   9   2   8  102.76   29.98
   9  -2   8   51.78   30.51
  -9   2   8   58.36   21.34
   9  -2  -9  345.57   47.53
  -9   2   9  266.47   58.23
   9   2  -9  276.25   20.87
   9  -3   0   12.16   15.42
   9  -3   0   21.20   20.01
  -9   3   0   10.97   18.48
  -9   3   0   -1.06    7.44
   9   3   0   13.29   14.16
   9   3   0   17.61   12.70
  -9   3  -1  747.38   51.11
   9  -3  -1  852.47   95.45
   9  -3  -1  839.97   59.62
   9   3   1  852.53   66.40
   9   3   1  867.62   62.48
   9  -3   1  845.02   78.30
  -9   3   1  718.73   52.71
   9  -3   1  823.09   68.86
   9   3  -1  795.77   59.82
   9   3  -1  836.58   79.83
  -9   3  -2   69.93   27.98
   9  -3  -2   91.26   23.06
   9  -3  -2   84.15   24.26
   9   3   2   76.51   26.12
   9   3   2   86.74   24.06
  -9   3   2   72.12   20.41
   9  -3   2   90.86   18.21
   9   3  -2   61.15   35.03
   9   3  -2   72.12   32.17
  -9   3  -3  590.91   42.01
   9  -3  -3  740.60   59.82
   9  -3  -3  727.70   57.03
   9   3   3  765.72   96.58
   9   3   3  721.92   60.62
   9  -3   3  724.25   66.34
   9  -3   3  766.85   47.92
  -9   3   3  661.57   74.91
   9   3  -3  719.79   53.64
   9   3  -3  716.60   47.39
  -9   3  -4   15.55   22.87
  -9   3  -4   14.96   10.10
   9  -3  -4   -0.07   28.91
   9  -3  -4   10.90   25.39
   9   3   4   15.29   33.23
   9   3   4   12.43   30.97
   9  -3   4   35.16   10.97
   9  -3   4   22.13   20.74
  -9   3   4   18.15   15.02
  -9   3   4   -0.20    7.31
   9   3  -4   24.19   13.23
   9   3  -4   27.05   10.70
  -9   3  -5  499.45   50.18
   9  -3  -5  694.20   59.89
   9  -3  -5  613.24   47.79
   9   3   5  626.80   93.99
   9   3   5  650.53   92.59
   9  -3   5  605.27   64.14
  -9   3   5  577.15   77.64
   9   3  -5  594.30   62.88
   9   3  -5  582.93   54.50
   9  -3  -6  101.76   54.24
   9  -3  -6  146.17   39.75
   9   3   6  116.99   55.63
   9  -3   6  139.05   36.16
  -9   3   6  113.13   27.65
   9   3  -6  113.06   19.28
   9   3  -6  109.94   15.82
   9  -3  -7  736.28   69.93
   9  -3  -7  658.84   49.85
  -9   3   7  655.32   58.29
   9   3  -7  736.08   64.28
   9   3  -7  679.78   39.08
   9  -4   0  117.18   52.91
   9  -4   0  116.99   25.99
  -9   4   0  132.14   26.72
   9   4   0  115.46   28.58
   9   4   0  112.20   24.53
   9  -4  -1   24.59   31.64
  -9   4  -1   35.49   16.82
   9  -4  -1   31.64   19.87
   9   4   1   34.03   34.56
   9   4   1   34.63   17.48
   9  -4   1   35.23   22.00
   9  -4   1   42.01   16.62
  -9   4   1   -0.33   10.44
  -9   4   1   29.84   18.48
   9   4  -1   34.96   18.28
   9   4  -1   26.12   15.22
  -9   4  -2  260.96   51.78
   9  -4  -2  210.04   36.09
   9  -4  -2  240.75   36.89
   9   4   2  241.28   64.21
   9   4   2  236.90   35.63
   9  -4   2  284.09   50.45
   9  -4   2  270.33   43.94
  -9   4   2  298.45   38.68
   9   4  -2  255.37   33.43
   9   4  -2  267.07   45.86
  -9   4  -3   28.78   14.62
   9  -4  -3   22.53   18.88
   9  -4  -3   24.00   32.10
   9   4   3   32.64   31.51
   9  -4   3   27.39   24.00
   9  -4   3   21.20   21.93
  -9   4   3   17.81   31.64
  -9   4   3    2.39    9.17
   9   4  -3   22.60   26.19
   9   4  -3   24.46   12.30
  -9   4  -4  114.92   36.09
   9  -4  -4   82.02   54.44
   9  -4  -4  123.43   27.25
   9   4   4  103.23   50.38
   9  -4   4  112.80   34.83
  -9   4   4  102.23   29.78
   9   4  -4  104.62   22.67
   9   4  -4  106.08   18.01
   0   0   0    0.00    0.00
_computing_structure_solution     'SHELXT 2014/5 (Sheldrick, 2014)'
;
_shelx_hkl_checksum              50095
_shelx_res_file
;
    Au.res created by SHELXL-2014/7
TITL K[Au(CN)4]H2O in P2(1)2(1)2(1)
REM SHELXT solution in P2(1)2(1)2(1)
REM R1 0.117,  Rweak 0.021,  Alpha 0.119,  Orientation as input
REM Flack x =  0.224 ( 0.018 ) from Parsons' quotients
REM Formula found by SHELXT:  C6 Au N6 K
CELL  0.71075   6.6460   7.0733  17.4356   90.000   90.000   90.000
ZERR    4.000   0.0007   0.0008   0.0019    0.000    0.000    0.000
LATT -1
SYMM 1/2-X, -Y, 1/2+Z
SYMM -X, 1/2+Y, 1/2-Z
SYMM 1/2+X, 1/2-Y, -Z
SFAC C H N O K AU
UNIT 16 8 16 4 4 4
BIND O K_$6
BIND O K_$8
EQIV $6   -x+1/2, -y+1, z-1/2
EQIV $8   -x+1, y-1/2, -z+1/2
HTAB
HTAB O N1_$7
HTAB O N2_$11
EQIV $7   -x+3/2, -y+1, z-1/2
EQIV $11  -x+2, y-1/2, -z+1/2
OMIT 0 3 23
OMIT 1 0 24
OMIT -1 6 20
OMIT 1 6 20
OMIT 0 1 23
L.S. 40
BOND $H
LIST 6
FMAP 2
PLAN 20
TEMP -100.0
SIZE 0.30 0.30 0.20
ACTA
MPLA 9 AU C1 C2 C3 C4 N1 N2 N3 N4
WGHT    0.006900
EXTI    0.009287
FVAR       0.37559
MOLE   1
AU    6    0.758387    0.571909    0.260801    11.00000    0.01349    0.01157 =
         0.01126   -0.00005    0.00035   -0.00070
C1    1    0.647339    0.471535    0.359488    11.00000    0.01718    0.01771 =
         0.01663   -0.00029   -0.00134    0.00283
C2    1    1.011414    0.646958    0.314719    11.00000    0.01901    0.01504 =
         0.01908    0.00070    0.00322    0.00033
C3    1    0.868679    0.666416    0.160731    11.00000    0.01595    0.01551 =
         0.01732   -0.00119    0.00077    0.00170
C4    1    0.503545    0.499422    0.206933    11.00000    0.01932    0.01507 =
         0.01512    0.00385    0.00098    0.00064
N1    3    0.584410    0.414952    0.416021    11.00000    0.02224    0.02516 =
         0.01692    0.00200    0.00173    0.00030
N2    3    1.152646    0.692827    0.347481    11.00000    0.02476    0.02612 =
         0.02566   -0.00040   -0.00489   -0.00612
N3    3    0.926166    0.715109    0.102718    11.00000    0.02335    0.02375 =
         0.01894    0.00124    0.00225   -0.00149
N4    3    0.360376    0.458440    0.175213    11.00000    0.02151    0.02423 =
         0.02275    0.00292   -0.00385   -0.00512
MOLE   2
K     5    0.237315    0.460026    0.517078    11.00000    0.01973    0.02240 =
         0.01859   -0.00118    0.00282    0.00062
MOLE   3
O     4    0.625160    0.337233    0.018124    11.00000    0.02521    0.03096 =
         0.01942    0.00353    0.00135    0.00230
AFIX  23  0.8400
H1    2    0.666275    0.352906    0.063235    11.00000   -1.50000
H2    2    0.700690    0.404960   -0.009027    11.00000   -1.50000
AFIX   0
HKLF 4
REM  K[Au(CN)4]H2O in P2(1)2(1)2(1)
REM R1 =  0.0151 for    2666 Fo > 4sig(Fo)  and  0.0180 for all    2828 data
REM    101 parameters refined using      0 restraints
END
WGHT      0.0000      0.0000
REM Instructions for potential hydrogen bonds
HTAB O N2_$11
HTAB O N1_$7
REM Highest difference peak  1.439,  deepest hole -1.085,  1-sigma level  0.151
Q1    1   0.6458  0.5766  0.2605  11.00000  0.05    1.44
Q2    1   0.8777  0.5734  0.2605  11.00000  0.05    1.25
Q3    1   0.7534  0.3002  0.2604  11.00000  0.05    1.08
Q4    1   0.9811  0.6620  0.2514  11.00000  0.05    0.84
Q5    1   0.7436  0.4055  0.2717  11.00000  0.05    0.73
Q6    1   0.8453  0.4261  0.2813  11.00000  0.05    0.66
Q7    1   0.2522  0.3826  0.2607  11.00000  0.05    0.65
Q8    1   0.9335  0.5758  0.2110  11.00000  0.05    0.64
Q9    1   0.6791  0.5758  0.2139  11.00000  0.05    0.61
Q10   1   0.7640  0.7205  0.2719  11.00000  0.05    0.61
Q11   1   0.8416  0.4273  0.2386  11.00000  0.05    0.59
Q12   1   0.6591  0.7019  0.2524  11.00000  0.05    0.57
Q13   1   0.2416  0.3593  0.4949  11.00000  0.05    0.57
Q14   1   0.5850  0.5436  0.3092  11.00000  0.05    0.54
Q15   1   1.1233  0.8187  0.2482  11.00000  0.05    0.52
Q16   1   0.8779  0.7194  0.2620  11.00000  0.05    0.52
Q17   1   0.2621  0.4962  0.2787  11.00000  0.05    0.50
Q18   1   0.9198  0.6273  0.3165  11.00000  0.05    0.48
Q19   1   0.5287  0.6593  0.2524  11.00000  0.05    0.46
Q20   1   1.1880  0.7166  0.2389  11.00000  0.05    0.46
;
_shelx_res_checksum              42442
loop_
_space_group_symop_operation_xyz
'x, y, z'
'-x+1/2, -y, z+1/2'
'-x, y+1/2, -z+1/2'
'x+1/2, -y+1/2, -z'
loop_
_atom_site_type_symbol
_atom_site_label
_atom_site_fract_x
_atom_site_fract_y
_atom_site_fract_z
_atom_site_U_iso_or_equiv
_atom_site_adp_type
_atom_site_calc_flag
_atom_site_occupancy
Au Au 0.75839(2) 0.57191(2) 0.26080(2) 0.01211(5) Uani d 1
C C1 0.6473(6) 0.4715(7) 0.3595(2) 0.0172(9) Uani d 1
C C2 1.0114(6) 0.6470(7) 0.3147(2) 0.0177(8) Uani d 1
C C3 0.8687(6) 0.6664(6) 0.1607(2) 0.0163(8) Uani d 1
C C4 0.5035(6) 0.4994(6) 0.2069(2) 0.0165(8) Uani d 1
N N1 0.5844(5) 0.4150(6) 0.4160(2) 0.0214(8) Uani d 1
N N2 1.1526(6) 0.6928(7) 0.3475(2) 0.0255(9) Uani d 1
N N3 0.9262(6) 0.7151(6) 0.1027(2) 0.0220(8) Uani d 1
N N4 0.3604(5) 0.4584(6) 0.1752(2) 0.0228(8) Uani d 1
K K 0.23731(16) 0.46003(12) 0.51708(4) 0.02024(17) Uani d 1
O O 0.6252(5) 0.3372(5) 0.01812(17) 0.0252(7) Uani d 1
H H1 0.6663 0.3529 0.0632 0.038 Uiso calc 1
H H2 0.7007 0.4050 -0.0090 0.038 Uiso calc 1
loop_
_atom_site_aniso_label
_atom_site_aniso_U_11
_atom_site_aniso_U_22
_atom_site_aniso_U_33
_atom_site_aniso_U_12
_atom_site_aniso_U_13
_atom_site_aniso_U_23
Au 0.01349(7) 0.01157(7) 0.01126(8) -0.00070(7) 0.00035(6) -0.00005(4)
C1 0.0172(18) 0.018(2) 0.017(2) 0.0028(16) -0.0013(15) -0.0003(16)
C2 0.0190(19) 0.015(2) 0.0191(19) 0.0003(17) 0.0032(16) 0.0007(17)
C3 0.0159(18) 0.016(2) 0.0173(19) 0.0017(16) 0.0008(15) -0.0012(16)
C4 0.0193(19) 0.015(2) 0.0151(19) 0.0006(16) 0.0010(15) 0.0038(16)
N1 0.0222(17) 0.025(2) 0.0169(18) 0.0003(18) 0.0017(13) 0.0020(16)
N2 0.0248(19) 0.026(2) 0.0257(19) -0.0061(17) -0.0049(16) -0.0004(18)
N3 0.0233(18) 0.024(2) 0.0189(18) -0.0015(17) 0.0023(14) 0.0012(17)
N4 0.0215(17) 0.024(2) 0.0228(19) -0.0051(16) -0.0039(14) 0.0029(16)
K 0.0197(4) 0.0224(4) 0.0186(4) 0.0006(5) 0.0028(4) -0.0012(3)
O 0.0252(15) 0.031(2) 0.0194(15) 0.0023(13) 0.0014(12) 0.0035(14)
loop_
_atom_type_symbol
_atom_type_description
_atom_type_scat_dispersion_real
_atom_type_scat_dispersion_imag
_atom_type_scat_source
C C 0.0033 0.0016 'International Tables Vol C Tables 4.2.6.8 and 6.1.1.4'
H H 0.0000 0.0000 'International Tables Vol C Tables 4.2.6.8 and 6.1.1.4'
N N 0.0061 0.0033 'International Tables Vol C Tables 4.2.6.8 and 6.1.1.4'
O O 0.0106 0.0060 'International Tables Vol C Tables 4.2.6.8 and 6.1.1.4'
K K 0.2009 0.2494 'International Tables Vol C Tables 4.2.6.8 and 6.1.1.4'
Au Au -2.0133 8.8022 'International Tables Vol C Tables 4.2.6.8 and 6.1.1.4'
loop_
_geom_angle_atom_site_label_1
_geom_angle_atom_site_label_2
_geom_angle_atom_site_label_3
_geom_angle_site_symmetry_1
_geom_angle_site_symmetry_3
_geom_angle
C2 Au C1 . . 90.01(16)
C2 Au C4 . . 179.39(17)
C1 Au C4 . . 90.03(17)
C2 Au C3 . . 90.75(17)
C1 Au C3 . . 178.63(18)
C4 Au C3 . . 89.22(16)
N1 C1 Au . . 179.7(4)
N2 C2 Au . . 177.7(4)
N3 C3 Au . . 177.3(4)
N4 C4 Au . . 178.9(4)
C1 N1 K . . 140.5(3)
C1 N1 K . 4_556 120.6(3)
K N1 K . 4_556 97.27(11)
C2 N2 K . 1_655 115.4(3)
C3 N3 K . 3_655 133.8(3)
C3 N3 K . 2_664 125.2(3)
K N3 K 3_655 2_664 99.69(11)
C4 N4 K . 2_564 126.9(3)
O K O 2_565 3_655 78.50(5)
O K N4 2_565 2_565 72.47(10)
O K N4 3_655 2_565 95.14(11)
O K N1 2_565 . 137.61(11)
O K N1 3_655 . 73.89(11)
N4 K N1 2_565 . 140.78(11)
O K N3 2_565 3_645 89.34(10)
O K N3 3_655 3_645 120.90(10)
N4 K N3 2_565 3_645 135.75(11)
N1 K N3 . 3_645 78.33(10)
O K N3 2_565 2_665 149.29(10)
O K N3 3_655 2_665 104.76(11)
N4 K N3 2_565 2_665 76.83(10)
N1 K N3 . 2_665 70.24(11)
N3 K N3 3_645 2_665 113.15(8)
O K N1 2_565 4_456 98.92(11)
O K N1 3_655 4_456 169.76(10)
N4 K N1 2_565 4_456 74.67(11)
N1 K N1 . 4_456 113.35(8)
N3 K N1 3_645 4_456 68.68(11)
N3 K N1 2_665 4_456 72.36(10)
O K N2 2_565 1_455 67.62(9)
O K N2 3_655 1_455 54.90(9)
N4 K N2 2_565 1_455 133.59(12)
N1 K N2 . 1_455 70.24(10)
N3 K N2 3_645 1_455 66.90(11)
N3 K N2 2_665 1_455 139.40(10)
N1 K N2 4_456 1_455 133.45(10)
O K K 2_565 4_556 166.83(8)
O K K 3_655 4_556 110.40(7)
N4 K K 2_565 4_556 115.09(9)
N1 K K . 4_556 42.63(8)
N3 K K 3_645 4_556 77.79(8)
N3 K K 2_665 4_556 39.84(7)
N1 K K 4_456 4_556 73.99(8)
N2 K K 1_455 4_556 108.91(7)
O K K 2_565 4_456 72.78(7)
O K K 3_655 4_456 144.74(7)
N4 K K 2_565 4_456 95.29(8)
N1 K K . 4_456 115.57(9)
N3 K K 3_645 4_456 40.46(8)
N3 K K 2_665 4_456 110.40(9)
N1 K K 4_456 4_456 40.10(7)
N2 K K 1_455 4_456 94.69(7)
K K K 4_556 4_456 95.28(3)
K O K 2_564 3_645 138.03(13)
K O H1 2_564 . 102.6
K O H1 3_645 . 102.6
K O H2 2_564 . 102.6
K O H2 3_645 . 102.6
H1 O H2 . . 105.0
loop_
_geom_bond_atom_site_label_1
_geom_bond_atom_site_label_2
_geom_bond_site_symmetry_2
_geom_bond_distance
Au C2 . 1.998(4)
Au C1 . 2.002(4)
Au C4 . 2.003(4)
Au C3 . 2.007(4)
C1 N1 . 1.143(5)
C2 N2 . 1.146(5)
C3 N3 . 1.135(5)
C4 N4 . 1.138(5)
N1 K . 2.920(4)
N1 K 4_556 3.071(4)
N2 K 1_655 3.431(4)
N3 K 3_655 2.923(4)
N3 K 2_664 2.961(4)
N4 K 2_564 2.891(4)
K O 2_565 2.804(3)
K O 3_655 2.886(4)
K N4 2_565 2.891(4)
K N3 3_645 2.923(4)
K N3 2_665 2.961(4)
K N1 4_456 3.071(4)
K N2 1_455 3.431(4)
K K 4_556 4.4972(12)
K K 4_456 4.4972(12)
O K 2_564 2.804(3)
O K 3_645 2.886(3)
O H1 . 0.8400
O H2 . 0.8400
loop_
_geom_hbond_atom_site_label_D
_geom_hbond_atom_site_label_H
_geom_hbond_atom_site_label_A
_geom_hbond_site_symmetry_A
_geom_hbond_distance_DH
_geom_hbond_distance_HA
_geom_hbond_distance_DA
_geom_hbond_angle_DHA
_geom_hbond_publ_flag
O H2 N1 2_664 0.84 2.32 3.157(5) 178.4 y
O H1 N2 3_745 0.84 2.27 2.952(5) 138.5 y

_cod_database_fobs_code 1545566
