#------------------------------------------------------------------------------
#$Date: 2017-07-25 13:33:54 +0300 (Tue, 25 Jul 2017) $
#$Revision: 199282 $
#$URL: file:///home/coder/svn-repositories/cod/cif/1/54/66/1546688.cif $
#------------------------------------------------------------------------------
#
# This file is available in the Crystallography Open Database (COD),
# http://www.crystallography.net/. The original data for this entry
# were provided by IUCr Journals, http://journals.iucr.org/.
#
# The file may be used within the scientific community so long as
# proper attribution is given to the journal article from which the
# data were obtained.
#
data_1546688
loop_
_publ_author_name
'Krishna Murthy, P.'
'Sreenivasa Rao, R.'
'Suneetha, V.'
'Giri, L.'
'Suchetan, P. A.'
_publ_section_title
;
 3,5-Dibromo-6-methylpyridin-2-amine
;
_journal_coeditor_code           HB4147
_journal_issue                   5
_journal_name_full               IUCrData
_journal_page_first              x170728
_journal_paper_doi               10.1107/S2414314617007283
_journal_volume                  2
_journal_year                    2017
_chemical_formula_iupac          'C6 H6 Br2 N2'
_chemical_formula_moiety         'C6 H6 Br2 N2'
_chemical_formula_sum            'C6 H6 Br2 N2'
_chemical_formula_weight         265.95
_chemical_name_systematic
;
3,5-Dibromo-6-methylpyridin-2-amine
;
_space_group_crystal_system      monoclinic
_space_group_IT_number           14
_space_group_name_Hall           '-P 2yn'
_space_group_name_H-M_alt        'P 1 21/n 1'
_symmetry_space_group_name_Hall  '-P 2yn'
_symmetry_space_group_name_H-M   'P 1 21/n 1'
_atom_sites_solution_hydrogens   mixed
_audit_creation_method           SHELXL-2016/4
_cell_angle_alpha                90
_cell_angle_beta                 105.720(4)
_cell_angle_gamma                90
_cell_formula_units_Z            4
_cell_length_a                   13.1047(16)
_cell_length_b                   4.0310(4)
_cell_length_c                   15.7631(18)
_cell_measurement_reflns_used    133
_cell_measurement_temperature    296(2)
_cell_measurement_theta_max      26.7
_cell_measurement_theta_min      2.4
_cell_volume                     801.54(16)
_computing_cell_refinement
;
APEX2 and SAINT-Plus (Bruker, 2009)
;
_computing_data_collection
;
APEX2 (Bruker, 2009)
;
_computing_data_reduction
;
SAINT-Plus and XPREP (Bruker, 2009)
;
_computing_molecular_graphics
;
Mercury (Macrae <i>et al.</i>,  2008)
;
_computing_publication_material
;
SHELXL2016 (Sheldrick, 2015b)
;
_computing_structure_refinement
;
SHELXL2016 (Sheldrick, 2015b)
;
_computing_structure_solution
;
SHELXT2016 (Sheldrick, 2015a)
;
_diffrn_ambient_temperature      296(2)
_diffrn_measured_fraction_theta_full 0.999
_diffrn_measured_fraction_theta_max 0.995
_diffrn_measurement_device_type  'Bruker APEXII CCD'
_diffrn_measurement_method       'phi and \f scans'
_diffrn_radiation_monochromator  graphite
_diffrn_radiation_type           MoK\a
_diffrn_radiation_wavelength     0.71073
_diffrn_reflns_av_R_equivalents  0.0503
_diffrn_reflns_limit_h_max       16
_diffrn_reflns_limit_h_min       -16
_diffrn_reflns_limit_k_max       4
_diffrn_reflns_limit_k_min       -5
_diffrn_reflns_limit_l_max       19
_diffrn_reflns_limit_l_min       -19
_diffrn_reflns_number            10577
_diffrn_reflns_theta_full        25.242
_diffrn_reflns_theta_max         26.645
_diffrn_reflns_theta_min         2.363
_diffrn_standards_decay_%        0.1
_diffrn_standards_interval_count 1
_diffrn_standards_number         1
_exptl_absorpt_coefficient_mu    10.037
_exptl_absorpt_correction_T_max  0.134
_exptl_absorpt_correction_T_min  0.085
_exptl_absorpt_correction_type   multi-scan
_exptl_absorpt_process_details
;
(SADABS; Bruker, 2009)
;
_exptl_crystal_colour            colourless
_exptl_crystal_density_diffrn    2.204
_exptl_crystal_description       block
_exptl_crystal_F_000             504
_exptl_crystal_size_max          0.26
_exptl_crystal_size_mid          0.22
_exptl_crystal_size_min          0.20
_refine_diff_density_max         1.032
_refine_diff_density_min         -0.862
_refine_ls_extinction_coef       0.064(4)
_refine_ls_extinction_expression Fc^*^=kFc[1+0.001xFc^2^\l^3^/sin(2\q)]^-1/4^
_refine_ls_extinction_method
;
SHELXL2016 (Sheldrick, 2015b)
;
_refine_ls_goodness_of_fit_ref   1.089
_refine_ls_hydrogen_treatment    mixed
_refine_ls_matrix_type           full
_refine_ls_number_parameters     101
_refine_ls_number_reflns         1670
_refine_ls_number_restraints     2
_refine_ls_restrained_S_all      1.088
_refine_ls_R_factor_all          0.0440
_refine_ls_R_factor_gt           0.0381
_refine_ls_shift/su_max          0.000
_refine_ls_shift/su_mean         0.000
_refine_ls_structure_factor_coef Fsqd
_refine_ls_weighting_details
'w=1/[\s^2^(Fo^2^)+(0.0701P)^2^+0.4630P] where P=(Fo^2^+2Fc^2^)/3'
_refine_ls_weighting_scheme      calc
_refine_ls_wR_factor_gt          0.1033
_refine_ls_wR_factor_ref         0.1083
_reflns_number_gt                1461
_reflns_number_total             1670
_reflns_threshold_expression     'I > 2\s(I)'
_cod_data_source_file            hb4147sup1.cif
_cod_data_source_block           I
_cod_database_code               1546688
_shelx_space_group_comment
;
The symmetry employed for this shelxl refinement is uniquely defined
by the following loop, which should always be used as a source of
symmetry information in preference to the above space-group names.
They are only intended as comments.
;
_shelx_estimated_absorpt_t_min   0.180
_shelx_estimated_absorpt_t_max   0.239
_shelx_hkl_file
;
  -2   0   0 1515.75   92.89
  -2   0   0 1442.66   92.99
   2   0   0 1722.63   92.99
   3   0   0   -1.10    3.60
   3   0   0   -2.80    1.60
  -3   0   0   -2.20    1.80
  -3   0   0   -3.60    2.10
  -3   0   0   -2.70    1.70
   3   0   0   -2.10    1.30
   4   0   0 9999.00  538.45
   4   0   0 9314.27  538.65
  -4   0   0 8000.60  538.15
  -5   0   0   -3.70    3.20
  -5   0   0   -6.10    3.20
   5   0   0   -0.40    2.40
  -5   0   0   -0.20    3.20
   5   0   0    0.50    2.80
   6   0   0 1987.10  106.69
  -6   0   0 1644.24  107.09
  -6   0   0 1736.03  106.89
   7   0   0    8.10    8.10
   7   0   0    5.30    3.10
  -7   0   0   -4.50    4.30
   7   0   0   -2.30    3.60
  -7   0   0   -5.90    5.20
  -7   0   0    2.10    5.20
   8   0   0 3290.27  188.98
  -8   0   0 3302.87  189.88
  -8   0   0 3007.80  190.68
   8   0   0 3421.66  189.18
  -8   0   0 2924.11  189.88
  -9   0   0    3.20    7.30
   9   0   0    2.30    4.10
   9   0   0   13.70    9.50
   9   0   0   -1.00    3.70
  -9   0   0   -4.30    6.50
  -9   0   0    1.70    6.80
  10   0   0  375.16   25.30
 -10   0   0  396.86   28.30
 -10   0   0  429.06   30.00
  10   0   0  350.36   25.50
 -10   0   0  368.06   28.70
  11   0   0   40.60   13.00
 -11   0   0   14.80    9.50
  11   0   0    7.20    5.30
 -11   0   0   13.20    9.00
 -12   0   0  612.24   40.60
 -12   0   0  571.84   42.40
 -13   0   0    6.00   10.80
 -13   0   0   21.00   12.40
 -14   0   0  168.78   26.80
 -14   0   0  164.98   24.80
  14   0   0  215.78   26.10
 -15   0   0    3.10   15.60
 -15   0   0  -18.60   13.30
  15   0   0   29.20   13.50
   0  -1   0    0.10    0.90
   0  -1   0    0.90    0.70
   0   1   0   -1.00    0.80
   0   1   0   -0.20    0.70
   0   1   0   -0.60    0.40
   1  -1   0 1025.00   57.59
  -1  -1   0 1003.60   57.59
  -1  -1   0 1005.60   57.49
  -1  -1   0  971.80   57.49
   1  -1   0 1004.40   57.49
  -1   1   0 1000.10   57.39
   1   1   0  992.50   57.39
   1   1   0  915.01   57.49
   1   1   0  906.21   57.49
  -1   1   0  942.11   57.59
  -1   1   0  946.31   57.59
  -2  -1   0  683.73   38.20
   2  -1   0  738.43   38.60
  -2  -1   0  553.14   38.60
  -2  -1   0  647.14   38.50
   2  -1   0  615.64   38.10
   2  -1   0  667.03   38.20
  -2   1   0  630.34   38.60
  -2   1   0  563.94   38.40
   2   1   0  626.24   38.40
   2   1   0  706.23   38.20
  -2   1   0  625.44   38.10
  -2   1   0  645.94   38.20
   2   1   0  658.33   38.40
   3  -1   0  276.27   16.20
  -3  -1   0  222.08   16.20
   3  -1   0  241.88   15.60
   3  -1   0  257.07   15.70
  -3  -1   0  278.17   15.80
  -3   1   0  229.08   16.10
  -3   1   0  255.27   15.70
  -3   1   0  240.18   16.00
   3   1   0  259.67   15.90
   3   1   0  235.88   16.00
   3   1   0  288.27   15.90
  -4  -1   0 1368.96   73.09
  -4  -1   0 1147.59   73.29
   4  -1   0 1323.67   73.29
  -4  -1   0 1124.99   73.39
   4  -1   0 1243.68   72.79
   4  -1   0 1234.88   72.69
  -4   1   0 1145.79   72.79
   4   1   0 1182.08   73.09
   4   1   0 1266.97   72.99
  -4   1   0 1125.69   73.19
  -4   1   0 1194.88   72.89
   4   1   0 1346.67   73.19
  -5  -1   0 1192.98   82.79
  -5  -1   0 1494.45   82.89
   5  -1   0 1458.85   82.09
   5  -1   0 1427.36   82.69
   5  -1   0 1335.87   82.09
  -5  -1   0 1371.16   82.89
  -5   1   0 1250.27   82.69
   5   1   0 1425.76   82.49
  -5   1   0 1398.96   82.49
   5   1   0 1316.57   82.79
   5   1   0 1513.55   82.39
   6  -1   0  112.39    8.30
   6  -1   0   97.39    8.60
   6  -1   0  101.69    9.70
  -6  -1   0   86.99   10.30
  -6  -1   0   94.39   10.30
  -6  -1   0   85.99   11.00
   6   1   0  103.39    9.00
  -6   1   0  103.99    9.80
   6   1   0  111.79    8.90
  -6   1   0   88.29   10.00
   6   1   0   91.59   10.70
   7  -1   0  131.69    9.80
   7  -1   0  118.29   11.00
  -7  -1   0  112.59   13.40
   7  -1   0  112.99   10.50
  -7  -1   0  111.19   11.90
   7   1   0  106.89   13.50
  -7   1   0  120.69   12.10
  -7   1   0  111.09   12.80
   7   1   0  132.39   10.20
   7   1   0  132.99   10.50
   8  -1   0 2214.28  122.39
   8  -1   0 1897.51  122.09
  -8  -1   0 2051.69  122.79
  -8  -1   0 1918.61  123.49
   8  -1   0 2084.39  121.69
  -8   1   0 2181.08  122.69
   8   1   0 2100.59  121.89
   8   1   0 2144.49  122.19
  -8   1   0 1820.52  122.69
   9  -1   0  628.74   37.60
   9  -1   0  584.04   39.00
  -9  -1   0  582.14   41.00
  -9  -1   0  627.94   39.80
   9  -1   0  625.14   38.60
  -9   1   0  571.04   40.00
   9   1   0  602.84   37.70
   9   1   0  608.84   38.10
   9   1   0  508.75   39.80
  -9   1   0  690.23   39.50
 -10  -1   0   46.20    9.40
  10  -1   0   62.99   11.20
 -10  -1   0   66.89   10.20
 -10  -1   0   72.49   12.00
  10  -1   0   64.39    9.40
 -10   1   0   49.90   10.00
  10   1   0   58.09    9.80
  10   1   0   76.89   10.00
 -10   1   0   61.89   10.50
  10   1   0   64.09   10.60
  11  -1   0   13.70    5.60
 -11  -1   0   20.00   11.60
 -11  -1   0    8.50    9.30
  11  -1   0   23.50   10.80
  11   1   0   37.50    9.90
 -11   1   0    4.80    9.60
  11   1   0    6.80    5.80
 -12  -1   0  974.70   63.09
 -12  -1   0  989.70   65.29
  12   1   0  962.90   62.79
 -12   1   0  886.51   62.99
 -12   1   0 1065.19   63.59
 -13  -1   0  427.16   33.60
 -13  -1   0  460.95   38.80
 -13   1   0  362.56   35.20
  13   1   0  474.05   34.90
 -13   1   0  487.55   36.00
  14  -1   0  138.09   24.10
 -14  -1   0   88.69   15.80
 -14  -1   0  123.79   20.30
 -14   1   0   84.29   17.00
 -14   1   0  139.19   23.50
 -15  -1   0   15.30   14.80
  15  -1   0   22.10   13.70
 -15  -1   0   -5.90   17.40
  15   1   0   22.00   12.40
 -15   1   0   25.70   15.90
 -15   1   0    2.60   14.50
   0  -2   0  698.43   38.70
   0  -2   0  678.43   38.80
   0  -2   0  669.93   38.60
   0  -2   0  572.34   38.30
   0   2   0  618.34   38.30
   0   2   0  642.44   38.50
   0   2   0  649.54   38.30
  -1  -2   0 2032.50  114.99
  -1  -2   0 2089.99  114.89
   1  -2   0 2037.70  114.89
  -1  -2   0 1947.21  114.89
   1  -2   0 2037.30  114.99
  -1   2   0 1958.50  114.69
   1   2   0 1993.60  114.69
  -1   2   0 1945.51  114.99
   1   2   0 1750.52  114.69
   1   2   0 1694.33  114.69
   1   2   0 1941.21  114.59
  -2  -2   0  137.89    9.10
  -2  -2   0  149.39    9.90
   2  -2   0  157.08    9.70
   2  -2   0  140.79    9.30
  -2  -2   0  144.99    9.30
   2   2   0  121.69    9.30
  -2   2   0  137.99    9.00
   2   2   0  143.79    8.90
   2   2   0  135.49    9.40
  -2   2   0  144.79   10.10
   3  -2   0 1584.24   90.19
   3  -2   0 1347.47   89.39
   3  -2   0 1586.54   89.69
  -3  -2   0 1550.44   90.19
  -3  -2   0 1556.34   89.59
  -3  -2   0 1652.23   89.79
  -3  -2   0 1311.77   90.19
   3   2   0 1445.16   89.79
   3   2   0 1514.45   89.99
  -3   2   0 1545.25   90.39
  -3   2   0 1584.24   89.59
   4  -2   0  267.57   17.90
  -4  -2   0  304.07   18.20
  -4  -2   0  286.27   19.40
   4  -2   0  306.27   18.20
  -4  -2   0  264.87   19.40
  -4   2   0  259.87   19.00
   4   2   0  280.87   18.70
   4   2   0  303.67   18.40
  -4   2   0  290.97   19.60
  -4   2   0  294.97   18.00
   4   2   0  311.17   18.10
  -5  -2   0 1015.00   64.09
  -5  -2   0  932.81   63.99
   5  -2   0 1098.09   62.79
   5  -2   0 1096.29   62.89
  -5  -2   0 1091.29   62.99
   5  -2   0 1143.69   64.09
  -5   2   0 1051.89   62.79
   5   2   0 1124.19   62.99
  -5   2   0  930.51   63.59
   5   2   0 1016.60   63.49
   5   2   0 1195.28   63.19
  -5   2   0 1001.30   62.79
  -5   2   0  987.80   64.39
  -6  -2   0  548.85   35.00
   6  -2   0  555.64   34.90
   6  -2   0  634.64   36.50
  -6  -2   0  570.04   36.50
   6  -2   0  625.24   34.90
  -6  -2   0  500.85   37.00
   6   2   0  571.24   35.80
   6   2   0  653.73   35.30
   6   2   0  595.44   35.40
  -6   2   0  523.55   35.00
  -6   2   0  543.35   36.20
  -6   2   0  544.45   35.20
  -6   2   0  540.15   37.40
  -7  -2   0  738.33   42.90
  -7  -2   0  641.94   41.60
  -7  -2   0  600.14   43.60
   7  -2   0  665.03   40.90
   7  -2   0  698.83   42.70
  -7   2   0  733.83   42.70
  -7   2   0  616.24   41.60
  -7   2   0  706.43   44.30
   7   2   0  669.93   41.90
   7   2   0  632.74   41.80
  -8  -2   0   -2.40    5.30
   8  -2   0   -7.80    6.00
   8  -2   0    9.70    4.40
  -8  -2   0   -5.70    8.40
  -8  -2   0   -3.30    6.80
   8  -2   0   11.80    4.20
  -8   2   0   -1.30    6.20
   8   2   0    1.50    4.40
  -8   2   0    6.20    9.70
   8   2   0    4.90    5.30
  -8   2   0    3.40    6.80
  -8   2   0   11.40    4.60
   8   2   0   -5.30    5.30
  -9  -2   0  311.37   28.50
   9  -2   0  382.46   22.90
   9  -2   0  285.57   24.50
  -9  -2   0  354.76   26.70
  -9   2   0  329.97   25.60
   9   2   0  359.16   24.10
   9   2   0  334.87   22.70
  -9   2   0  332.87   25.80
 -10  -2   0  388.96   33.70
 -10  -2   0  420.46   30.90
  10  -2   0  418.16   26.70
 -10   2   0  418.76   30.20
 -10   2   0  406.36   30.60
  10   2   0  370.66   26.80
  11  -2   0  152.38   16.70
 -11  -2   0  220.38   21.40
  11  -2   0  194.58   15.50
 -11  -2   0  209.68   27.30
 -11   2   0  196.08   22.00
  11   2   0  163.08   15.50
 -11   2   0  223.88   22.00
 -12  -2   0   39.70   16.10
  12  -2   0   13.10    8.10
 -12  -2   0   28.40   11.00
 -12   2   0   51.59   18.70
  12   2   0   -0.50    7.10
 -12   2   0   43.40   12.80
 -12   2   0   17.20   11.50
 -13  -2   0   39.90   13.40
  13  -2   0   27.40   11.10
 -13  -2   0   66.79   19.40
 -13   2   0   67.99   20.50
 -13   2   0   47.60   14.20
  13   2   0   10.30    8.00
 -13   2   0   31.00   14.70
  14  -2   0  116.29   17.00
 -14  -2   0  110.59   17.60
 -14  -2   0  203.08   36.20
 -14   2   0  103.39   18.50
 -14   2   0  170.08   27.50
 -14   2   0  185.28   35.30
   0  -3   0    0.90    2.60
   0  -3   0   -2.60    2.90
   0   3   0    2.90    2.60
   1  -3   0   17.30    3.50
  -1  -3   0   20.20    3.60
  -1  -3   0   18.60    3.70
  -1  -3   0   20.50    3.90
  -1   3   0   24.50    3.70
   2  -3   0 2075.89  117.89
   2  -3   0 2043.30  117.59
  -2  -3   0 2066.49  117.59
  -2  -3   0 1931.91  117.89
  -2  -3   0 1750.92  117.49
  -2  -3   0 2051.99  117.89
  -2   3   0 1976.40  117.79
   2   3   0 2001.60  117.19
   3  -3   0  204.78   13.90
  -3  -3   0  182.38   14.80
  -3  -3   0  183.48   13.40
  -3  -3   0  197.88   14.80
  -3  -3   0  227.18   13.90
   3  -3   0  209.78   14.50
  -3   3   0  224.38   14.90
   3   3   0  200.88   13.40
  -4  -3   0   54.29    9.10
   4  -3   0   68.69    7.50
   4  -3   0   61.49    8.70
  -4  -3   0   54.19    6.20
  -4  -3   0   69.09    7.00
  -4  -3   0   54.49    9.80
  -4   3   0   58.99    5.50
   4   3   0   52.99    7.90
  -4   3   0   70.59   10.00
  -4   3   0   55.39    6.60
  -5  -3   0   45.80    7.90
  -5  -3   0   41.20    7.30
  -5  -3   0   53.79    7.10
  -5  -3   0   40.40    6.20
   5  -3   0   55.99    7.40
   5  -3   0   49.99    9.20
  -5   3   0   42.90    5.90
  -5   3   0   64.69   11.30
  -5   3   0   63.89    5.90
   5   3   0   52.69    5.50
   5   3   0   51.19    5.80
   5   3   0   41.80    6.00
  -6  -3   0  899.41   54.39
  -6  -3   0  921.71   54.59
  -6  -3   0  958.20   56.49
   6  -3   0  933.21   53.69
   6  -3   0  853.41   55.79
   6  -3   0  928.21   54.39
  -6  -3   0  817.72   55.89
   6   3   0  881.41   53.49
   6   3   0  859.41   54.79
  -6   3   0  916.11   56.69
   6   3   0  930.91   53.79
  -6   3   0  847.12   54.69
  -7  -3   0  177.28   14.30
   7  -3   0  221.48   15.30
   7  -3   0  182.78   18.20
  -7  -3   0  182.48   15.20
  -7  -3   0  226.28   19.30
  -7  -3   0  158.88   18.80
   7  -3   0  224.88   14.40
   7   3   0  188.68   16.30
   7   3   0  184.78   13.90
  -7   3   0  208.08   20.00
  -7   3   0  215.78   17.30
  -7   3   0  191.98   14.40
  -8  -3   0  103.99   17.30
   8  -3   0  140.59   12.20
  -8  -3   0  144.19   13.70
   8  -3   0  106.49   16.70
  -8  -3   0  179.58   18.80
  -8   3   0  129.99   19.50
   8   3   0  122.79   14.20
   8   3   0  116.49   11.70
  -8   3   0  147.49   12.40
  -8   3   0  153.58   16.50
   9  -3   0  195.08   16.00
   9  -3   0  229.38   16.10
  -9  -3   0  143.29   22.20
  -9   3   0  238.38   20.50
  -9   3   0  205.28   25.90
  -9   3   0  155.78   15.70
   9   3   0  156.08   15.50
   9   3   0  237.68   15.90
 -10  -3   0   53.39   14.80
  10  -3   0   52.79    7.60
 -10   3   0   97.99   18.20
  10   3   0   58.79    8.70
  10   3   0   33.50    7.20
 -10   3   0   66.49   16.90
 -10   3   0   33.20    7.50
 -11  -3   0   26.20   13.20
  11  -3   0   23.10    7.40
 -11  -3   0   15.80   15.20
 -11   3   0   18.50   18.00
  11   3   0    7.90    6.70
 -11   3   0   45.00   12.10
 -12  -3   0   16.40   13.70
  12  -3   0   11.80    7.60
 -12  -3   0   32.80   18.60
 -12   3   0   36.70   19.10
 -12   3   0   18.00   21.00
   0  -4   0    1.70    3.80
   0  -4   0    3.60    4.30
   1  -4   0   16.90    4.70
  -1  -4   0   12.80    5.10
  -1  -4   0   16.00    4.10
   1  -4   0   20.40    4.40
  -1   4   0   13.90    4.20
  -2  -4   0   85.09   10.20
  -2  -4   0   74.59    8.90
   2  -4   0   73.09    9.10
   2  -4   0   89.69    9.30
  -2   4   0   72.19    9.10
  -3  -4   0   -3.60    5.20
  -3  -4   0    0.60    4.20
   3  -4   0   -1.90    4.50
   3  -4   0   -0.70    4.60
  -3  -4   0    6.30    3.90
  -3   4   0    2.90    5.30
  -4  -4   0   57.19    8.60
   4  -4   0   81.29   11.20
  -4  -4   0   74.79   10.40
   4  -4   0   69.39    9.60
  -4  -4   0   80.59    9.40
  -4   4   0   76.89   11.20
  -5  -4   0   61.89    9.90
   5  -4   0   77.79   12.30
  -5  -4   0   50.19    8.20
  -5  -4   0   46.30    9.90
   5  -4   0   56.89    9.70
   5   4   0   41.50    8.80
   6  -4   0   92.69   11.60
  -6  -4   0   88.09   15.50
  -6  -4   0  110.09   11.70
  -6  -4   0   76.49   11.40
   7  -4   0   35.10    7.20
  -7  -4   0   20.20   10.40
  -7  -4   0   34.00   10.40
  -7   4   0   51.29   12.30
  -8  -4   0   57.79   13.90
   8  -4   0  104.79   13.30
  -8  -4   0   83.59   14.60
  -8   4   0  135.09   22.40
  -9  -4   0   11.60   13.80
  -9  -4   0   -4.30   12.90
   9  -4   0   20.90    7.60
  -9   4   0    7.00   14.70
   0  -5   0  -11.40    6.10
  -1  -5   0   62.29    9.10
   1  -5   0   87.49   12.40
  -2  -5   0   -5.60    6.90
   2  -5   0    5.80    6.50
  16   0  -1    8.40   12.90
 -16   0   1   -0.80   13.30
 -15   0   1  398.76   35.90
 -15   0   1  395.56   33.30
  14   0  -1   21.60   13.30
 -14   0   1    0.80   11.90
 -14   0   1  -10.70   10.40
 -13   0   1   66.59   13.30
 -13   0   1   68.39   12.50
 -12   0   1   -2.00    9.10
 -12   0   1   -1.60    9.80
  12   0  -1   10.60   12.30
  11   0  -1  319.87   21.90
  11   0  -1  301.77   22.30
 -11   0   1  317.97   25.90
  10   0  -1   -3.70    5.10
 -10   0   1    5.70    8.00
 -10   0   1  -10.10    7.30
  10   0  -1    8.80   10.00
 -10   0   1   -5.00    7.50
  10   0  -1    4.80    4.70
   9   0  -1   35.90    6.30
  -9   0   1   39.70    8.50
   9   0  -1   52.59    7.80
  -9   0   1   42.80    7.80
  -9   0   1   31.10    8.00
   8   0  -1    2.30    4.10
   8   0  -1    1.00    3.70
   8   0  -1    9.20    8.60
  -8   0   1    4.30    5.70
  -8   0   1   -6.80    6.10
  -8   0   1   -5.40    4.90
   7   0  -1  248.78   15.90
  -7   0   1  197.08   16.80
   7   0  -1  221.98   15.50
  -6   0   1   -9.00    4.20
  -6   0   1   -2.70    3.70
  -6   0   1    0.40    3.70
   6   0  -1   -1.50    5.80
   5   0  -1  189.08   12.70
  -5   0   1  180.18   13.10
   5   0  -1  199.38   13.00
  -5   0   1  174.88   13.40
  -4   0   1   -1.70    2.20
   4   0  -1   -2.50    1.90
   4   0  -1   -6.50    3.00
  -4   0   1   -5.60    2.20
  -4   0   1   -4.80    2.00
   4   0  -1   -4.50    2.00
   3   0  -1  681.83   37.50
   3   0  -1  578.64   37.80
   3   0  -1  612.14   37.40
  -3   0   1  615.44   37.40
  -2   0   1   -4.30    0.80
  -2   0   1   -3.60    1.00
   2   0  -1   -4.30    1.10
   2   0  -1   -2.10    0.90
  -2   0   1   -3.30    1.20
   2   0  -1   -4.40    0.90
  -1   0  -1 1769.72  111.99
  -1   0  -1 1843.82  112.39
  -1   0  -1 2061.59  112.19
  -2   0  -1   -0.20    1.30
   2   0   1    1.40    1.10
  -2   0  -1    0.90    1.10
  -2   0  -1    3.00    2.60
   2   0   1   -0.20    1.20
   2   0   1    0.40    2.90
   3   0   1 1879.91  112.89
   3   0   1 2109.49  113.09
  -3   0  -1 1732.33  113.09
  -3   0  -1 1923.81  113.09
  -4   0  -1   -0.50    2.90
  -4   0  -1    0.50    2.70
   4   0   1   -0.50    5.20
   4   0   1    2.10    1.90
  -4   0  -1   -0.20    2.90
   4   0   1    0.00    2.10
   5   0   1 1914.91  111.89
  -5   0  -1 1846.62  112.29
  -5   0  -1 1681.83  112.39
   5   0   1 2104.69  112.19
   6   0   1    0.00    2.50
   6   0   1    9.70    8.00
  -6   0  -1   -1.90    4.60
  -6   0  -1    0.60    4.40
   6   0   1   -3.80    3.10
  -6   0  -1   -4.70    4.30
  -7   0  -1 2046.70  136.29
  -7   0  -1 2514.75  135.99
   7   0   1 2382.56  135.09
  -7   0  -1 2140.59  135.89
   7   0   1 2278.87  134.89
  -8   0  -1    0.20    5.90
  -8   0  -1   -2.20    6.40
   8   0   1    3.10    4.40
   8   0   1   19.50   10.50
   8   0   1    0.10    3.50
  -8   0  -1    1.80    6.70
  -9   0  -1 1626.44   90.49
   9   0   1 1402.96   87.69
   9   0   1 1369.36   87.39
  -9   0  -1 1360.96   89.39
  -9   0  -1 1544.45   89.09
  10   0   1   13.30   12.00
 -10   0  -1    0.50    8.50
 -10   0  -1    2.50    8.50
 -10   0  -1    3.70    7.50
  10   0   1    2.40    4.10
  10   0   1   -6.70    4.50
 -11   0  -1 2523.65  163.48
 -11   0  -1 2897.21  163.28
 -12   0  -1   -7.10   11.00
 -12   0  -1   21.30   12.30
 -13   0  -1   42.90   14.70
 -13   0  -1   27.50   13.30
  13   0   1   56.09   14.30
  14   0   1   29.10   14.00
 -14   0  -1   -1.60   13.10
 -14   0  -1    8.90   15.10
  15   0   1  803.12   54.09
 -15   0  -1  729.73   58.59
 -15   0  -1  771.52   54.59
 -15  -1   1  175.28   25.10
  15  -1  -1  264.17   29.00
 -15  -1   1  232.58   34.40
  15   1  -1  252.77   25.30
 -15   1   1  143.79   27.60
 -15   1   1  197.28   27.10
 -14  -1   1  101.79   15.70
 -14  -1   1  147.29   26.20
 -14   1   1   92.69   15.20
 -14   1   1   94.89   16.20
 -13  -1   1  170.78   25.50
 -13  -1   1  176.78   22.00
 -13   1   1  170.98   22.30
  13   1  -1  212.48   23.10
 -13   1   1  151.98   22.40
 -12  -1   1  190.28   20.70
 -12  -1   1  223.78   26.00
  12   1  -1  263.27   23.80
 -12   1   1  179.08   23.20
 -12   1   1  228.38   21.50
  11  -1  -1 1557.44   96.49
 -11  -1   1 1560.44   97.99
 -11  -1   1 1629.24   99.69
  11   1  -1 1630.24   98.59
 -11   1   1 1843.52   98.69
  11   1  -1 1425.76   96.39
  10  -1  -1  524.35   36.00
  10  -1  -1  573.24   34.90
 -10  -1   1  540.15   36.90
  10  -1  -1  556.94   35.90
 -10  -1   1  575.94   38.70
 -10   1   1  502.25   37.40
 -10   1   1  600.74   37.00
  10   1  -1  552.74   35.50
  10   1  -1  555.94   35.00
  10   1  -1  517.95   37.50
  -9  -1   1   14.10    8.30
   9  -1  -1    7.90    5.40
  -9  -1   1    2.10    5.60
  -9  -1   1    4.90    6.60
   9  -1  -1    6.00    5.60
  -9   1   1   15.40    7.30
   9   1  -1   15.90    5.20
  -9   1   1   -6.00    5.50
   9   1  -1   18.50    7.50
   9   1  -1    5.20    4.80
  -9   1   1   12.40    7.20
  -8  -1   1  466.85   30.70
   8  -1  -1  413.66   29.40
  -8  -1   1  442.86   31.90
   8  -1  -1  520.15   29.50
   8  -1  -1  491.75   30.30
   8   1  -1  382.26   31.00
  -8   1   1  482.15   30.90
   8   1  -1  499.65   29.60
  -8   1   1  437.76   30.80
   8   1  -1  498.45   29.90
  -7  -1   1 2459.25  163.38
  -7  -1   1 2742.23  162.78
   7  -1  -1 2711.33  162.08
  -7  -1   1 2511.95  163.08
   7  -1  -1 2949.30  162.08
   7  -1  -1 2779.42  162.58
  -7   1   1 2521.45  162.68
  -7   1   1 2847.62  162.58
   7   1  -1 3044.70  162.18
   7   1  -1 2787.92  162.38
   6  -1  -1 1659.93   88.89
   6  -1  -1 1483.05   88.79
   6  -1  -1 1540.55   89.39
  -6  -1   1 1293.67   90.89
  -6  -1   1 1473.15   89.49
  -6  -1   1 1391.26   89.79
   6   1  -1 1270.27   89.39
  -6   1   1 1550.24   89.29
  -6   1   1 1492.95   89.49
   6   1  -1 1689.53   88.99
   6   1  -1 1556.14   89.19
   5  -1  -1  156.58   10.70
  -5  -1   1  136.89   10.60
   5  -1  -1  146.19    9.70
   5  -1  -1  135.09    9.80
  -5  -1   1  113.69   11.60
   5   1  -1  139.59   10.40
  -5   1   1  134.39   10.50
   5   1  -1  124.69   11.00
  -5   1   1  141.09   10.30
   5   1  -1  152.38   10.00
  -5   1   1  118.39   10.50
   4  -1  -1  590.64   34.30
   4  -1  -1  626.84   34.90
  -4  -1   1  550.54   34.70
   4  -1  -1  564.94   34.30
  -4  -1   1  644.34   34.80
   4   1  -1  602.64   34.70
  -4   1   1  548.35   34.50
   4   1  -1  554.84   34.70
  -4   1   1  507.95   34.60
  -4   1   1  511.55   34.60
   4   1  -1  564.84   34.40
   3  -1  -1 3958.60  205.38
  -3  -1   1 3140.49  204.38
   3  -1  -1 3504.15  204.48
  -3  -1   1 3851.51  205.78
   3  -1  -1 3346.27  205.08
  -3   1   1 3455.35  204.38
  -3   1   1 3940.31  205.08
   3   1  -1 3294.17  205.08
  -3   1   1 2978.50  204.18
   3   1  -1 3234.58  204.38
   2  -1  -1 2896.51  157.68
  -2  -1   1 2326.97  156.48
   2  -1  -1 2673.33  156.78
   2  -1  -1 2532.85  156.48
  -2  -1   1 2841.52  157.18
  -2   1   1 2857.11  157.58
   2   1  -1 2481.65  156.58
   2   1  -1 2921.51  156.68
  -2   1   1 2551.94  156.88
   2   1  -1 2475.35  156.48
   1  -1  -1  358.16   21.10
   1  -1  -1  357.86   21.10
  -1  -1   1  358.36   20.80
  -1  -1   1  307.47   20.90
  -1  -1   1  337.87   21.00
  -1  -1   1  365.36   21.00
   1   1  -1  370.26   21.00
  -1   1   1  358.06   21.10
  -1   1   1  356.76   21.00
   1   1  -1  333.47   21.00
   0  -1   1   46.00    3.00
   0  -1  -1   49.40    3.10
   0  -1   1   45.80    3.60
   0  -1   1   47.90    3.20
   0  -1   1   42.70    3.10
   0  -1  -1   48.00    3.40
   0   1   1   44.40    3.10
   0   1   1   46.70    3.40
   0   1  -1   42.90    3.50
   1  -1   1 3902.81  244.18
  -1  -1  -1 4447.85  244.38
  -1  -1  -1 4360.56  244.18
   1  -1   1 4285.87  243.38
   1   1   1 3974.20  244.08
  -1   1  -1 3981.30  243.88
   1   1   1 3930.51  243.48
  -2  -1  -1  430.56   28.70
   2  -1   1  447.56   28.70
  -2  -1  -1  486.15   28.70
   2  -1   1  491.75   28.30
   2  -1   1  486.15   28.50
  -2  -1  -1  498.65   28.50
   2   1   1  542.05   28.60
   2   1   1  506.05   28.60
   2   1   1  411.96   28.60
  -2   1  -1  491.75   28.90
  -2   1  -1  469.95   28.30
  -2   1  -1  440.96   28.50
  -3  -1  -1 2276.27  122.39
   3  -1   1 2018.90  122.59
   3  -1   1 2101.99  122.19
  -3  -1  -1 2042.30  122.69
   3  -1   1 2029.80  122.19
  -3  -1  -1 1776.32  122.59
  -3   1  -1 2043.00  122.79
   3   1   1 2343.87  122.59
   3   1   1 1837.22  122.49
   3   1   1 2138.79  122.39
  -3   1  -1 2031.50  122.19
  -3   1  -1 2194.78  122.29
   4  -1   1  138.39   10.00
   4  -1   1  130.59    9.30
  -4  -1  -1  112.19   10.10
  -4  -1  -1  111.69   10.20
   4  -1   1  144.19    9.00
  -4  -1  -1  129.29    9.40
   4   1   1  132.99   10.40
   4   1   1  140.09    9.40
  -4   1  -1  120.89    9.20
   4   1   1  139.89    9.50
  -4   1  -1  131.09    9.40
   5  -1   1  428.76   24.60
  -5  -1  -1  407.56   25.80
   5  -1   1  388.76   24.90
  -5  -1  -1  363.06   25.80
   5  -1   1  453.85   25.40
   5   1   1  383.96   25.80
  -5   1  -1  345.17   25.40
  -5   1  -1  385.96   25.10
   5   1   1  411.76   25.20
   5   1   1  395.06   25.90
   6  -1   1  122.59   10.50
  -6  -1  -1  106.79   11.70
   6  -1   1  122.19   10.40
  -6  -1  -1  119.19   11.50
  -6  -1  -1  112.79   12.30
   6   1   1  118.89   13.00
   6   1   1  134.99   10.20
  -6   1  -1  112.39   11.80
  -6   1  -1  125.39   11.20
   6   1   1  145.49   10.20
   7  -1   1 1094.69   63.39
  -7  -1  -1  908.91   64.09
   7  -1   1 1036.40   62.49
  -7  -1  -1 1095.29   63.99
   7  -1   1 1172.58   63.39
  -7  -1  -1  900.71   64.09
   7   1   1 1109.09   62.99
  -7   1  -1 1080.39   63.59
   7   1   1 1098.59   62.89
  -7   1  -1  990.90   63.69
   7   1   1  946.81   64.09
  -8  -1  -1  253.17   18.80
   8  -1   1  236.78   16.20
  -8  -1  -1  192.48   19.90
  -8  -1  -1  230.68   20.60
   8  -1   1  243.48   18.90
   8  -1   1  279.07   17.60
  -8   1  -1  215.78   19.00
   8   1   1  241.18   16.80
  -8   1  -1  240.38   18.70
   8   1   1  207.18   19.70
   8   1   1  226.68   16.80
  -9  -1  -1  159.38   16.30
   9  -1   1  152.08   11.60
  -9  -1  -1  150.28   18.50
   9  -1   1  137.89   13.10
   9   1   1  148.79   12.40
   9   1   1  134.69   17.60
  -9   1  -1  142.09   15.80
   9   1   1  122.79   12.20
  -9   1  -1  143.09   16.50
  10  -1   1   89.59   19.90
  10  -1   1   56.99   10.90
  10  -1   1   81.79    9.20
 -10  -1  -1   67.19   15.60
 -10  -1  -1   77.09   13.80
 -10  -1  -1   73.99   15.10
  10   1   1   65.19    9.80
 -10   1  -1   70.39   10.90
  10   1   1   65.69   11.80
  10   1   1   67.39   10.50
 -10   1  -1   68.59   11.30
 -11  -1  -1   44.80   13.40
 -11  -1  -1   40.00   11.20
 -11   1  -1   42.40   12.20
 -11   1  -1   31.30   12.10
  12  -1   1   14.20   13.20
 -12  -1  -1    0.80   11.40
 -12  -1  -1   12.80   13.70
 -12   1  -1   11.10   11.90
 -12   1  -1   17.50   11.60
 -13  -1  -1  226.68   29.90
 -13  -1  -1  172.48   23.50
 -13   1  -1  157.88   25.50
 -13   1  -1  198.08   27.80
  13   1   1  189.18   24.80
  14  -1   1    7.40   13.50
 -14  -1  -1   17.00   16.50
 -14  -1  -1    5.80   13.10
  14   1   1   13.80   11.90
 -14   1  -1    3.40   18.70
 -14   1  -1  -27.90   13.00
 -14   1  -1   13.80   14.70
  15  -1   1   29.50   14.90
 -15  -1  -1   14.40   19.50
 -15  -1  -1   17.20   13.60
  15   1   1   32.10   13.20
 -15   1  -1    8.90   16.60
 -15   1  -1   22.60   16.70
 -15   1  -1   55.29   22.10
 -14  -2   1   10.10   12.50
  14  -2  -1    6.30   10.80
 -14  -2   1   26.70   19.10
 -14   2   1  -14.50   14.40
  14   2  -1    1.20    7.90
 -14   2   1   15.10   20.20
 -14   2   1    7.30   13.60
 -13  -2   1  210.78   23.60
 -13  -2   1  247.48   34.90
 -13   2   1  198.88   25.70
 -13   2   1  233.58   26.20
 -12  -2   1   77.09   13.90
  12  -2  -1   61.99    9.40
 -12   2   1   94.09   14.20
 -12   2   1   77.79   13.10
  11  -2  -1  169.88   14.40
  11  -2  -1  123.19   13.60
 -11  -2   1  190.78   20.20
 -11   2   1  181.18   19.60
  11   2  -1  133.39   13.80
 -10  -2   1   -0.20    8.70
  10  -2  -1    5.80    5.00
  10  -2  -1    2.50    5.40
 -10  -2   1   -0.50    8.00
 -10  -2   1   14.70   11.30
 -10   2   1    1.30    8.10
 -10   2   1    9.90    6.30
  10   2  -1    9.60    5.60
  10   2  -1   -0.50    5.50
 -10   2   1    2.50    8.70
  -9  -2   1 1389.36   83.39
   9  -2  -1 1457.05   81.49
  -9  -2   1 1339.07   84.99
   9  -2  -1 1154.58   82.59
   9   2  -1 1217.28   81.99
  -9   2   1 1324.17   82.99
  -9   2   1 1486.45   82.89
   9   2  -1 1456.05   81.49
  -8  -2   1  133.39   13.90
   8  -2  -1  146.09   11.70
  -8  -2   1  136.89   18.20
  -8  -2   1  161.78   16.30
   8  -2  -1  166.58   12.10
   8  -2  -1  129.59   14.30
   8   2  -1  141.89   13.60
  -8   2   1  157.88   15.60
   8   2  -1  167.98   12.30
  -8   2   1  125.19   12.80
  -8   2   1  153.58   14.60
  -7  -2   1   40.80    7.90
  -7  -2   1   54.79    8.10
  -7  -2   1   39.10    8.70
   7  -2  -1   38.70    7.00
   7  -2  -1   57.59    7.40
   7  -2  -1   51.59    7.70
  -7   2   1   47.80    6.60
   7   2  -1   56.19    9.00
  -7   2   1   63.59   10.80
   7   2  -1   54.79    7.20
  -7   2   1   55.79    8.00
   7   2  -1   44.80    8.20
   6  -2  -1  111.69   11.10
  -6  -2   1  102.39   11.90
  -6  -2   1  100.69    9.40
  -6  -2   1   81.09   12.50
   6  -2  -1  112.79    9.10
   6  -2  -1  120.39    8.90
   6   2  -1  119.09    9.10
  -6   2   1  101.09    9.80
  -6   2   1  112.39    9.20
   6   2  -1  111.79    9.30
  -6   2   1  116.49   11.50
   6   2  -1  106.89    9.90
  -5  -2   1 1602.14   99.19
  -5  -2   1 1809.82   98.39
   5  -2  -1 1797.32   98.29
   5  -2  -1 1705.53   98.09
  -5  -2   1 1442.76   99.09
   5  -2  -1 1763.02   99.09
  -5   2   1 1510.55   98.99
   5   2  -1 1769.22   97.99
  -5   2   1 1598.34   98.09
  -5   2   1 1535.95   99.49
   5   2  -1 1632.14   98.09
   5   2  -1 1705.83   98.79
  -5   2   1 1654.73   98.99
  -4  -2   1  133.69    9.20
  -4  -2   1  109.39   10.80
   4  -2  -1  142.39    9.60
  -4  -2   1  137.59    9.40
  -4  -2   1  107.79   10.90
   4  -2  -1  132.49    8.90
  -4   2   1  142.39   10.60
   4   2  -1  142.39    9.10
   4   2  -1  139.99    8.70
  -4   2   1  143.29    9.60
   4   2  -1  129.99   10.10
  -4   2   1  128.99   11.70
  -4   2   1  137.79    8.80
  -3  -2   1  726.23   50.29
  -3  -2   1  886.01   49.70
  -3  -2   1  819.42   50.29
   3  -2  -1  837.12   49.90
   3  -2  -1  902.21   50.29
  -3  -2   1  870.51   49.80
   3   2  -1  859.71   49.99
  -3   2   1  861.91   49.90
  -3   2   1  763.42   50.19
  -3   2   1  833.62   50.49
   2  -2  -1  631.54   37.20
  -2  -2   1  620.94   37.20
   2  -2  -1  644.34   37.30
  -2  -2   1  554.64   37.40
  -2  -2   1  611.84   37.10
  -2  -2   1  642.84   36.90
  -2   2   1  606.44   37.30
   2   2  -1  641.64   37.00
  -2   2   1  613.34   37.40
  -2   2   1  628.34   37.00
  -1  -2   1  820.62   48.70
   1  -2  -1  845.82   49.00
   1  -2  -1  851.91   49.00
  -1  -2   1  833.02   48.90
  -1  -2   1  813.72   49.00
  -1   2   1  813.22   49.00
   1   2  -1  808.22   48.60
  -1   2   1  810.22   48.90
  -1   2   1  841.22   48.90
   1   2  -1  782.22   48.80
   0  -2   1   53.49    4.50
   0  -2   1   63.19    4.60
   0  -2  -1   62.19    5.30
   0  -2   1   60.29    5.40
   0  -2  -1   64.49    5.00
   0  -2   1   63.69    4.70
   0   2   1   54.79    4.60
   0   2   1   62.89    5.00
   0   2  -1   56.79    5.00
  -1  -2  -1  973.00   56.39
   1  -2   1  919.31   55.89
  -1  -2  -1  919.01   56.19
  -1  -2  -1  937.41   56.09
   1  -2   1  943.41   56.19
   1  -2   1  963.60   56.39
  -1  -2  -1  972.00   56.59
   1  -2   1  965.60   56.69
   1   2   1  932.21   56.19
  -1   2  -1  928.31   56.49
   1   2   1  982.70   56.39
   1   2   1  947.01   56.29
  -2  -2  -1 1513.65   82.09
   2  -2   1 1454.45   82.29
  -2  -2  -1 1229.58   82.09
  -2  -2  -1 1439.66   82.29
  -2  -2  -1 1391.76   81.59
   2  -2   1 1399.26   81.79
   2  -2   1 1322.77   81.59
   2   2   1 1299.47   81.99
   2   2   1 1393.46   81.89
   2   2   1 1410.46   82.09
  -2   2  -1 1375.56   82.29
   3  -2   1  315.47   19.30
  -3  -2  -1  315.97   20.20
   3  -2   1  325.27   19.10
  -3  -2  -1  306.67   18.90
   3  -2   1  334.87   20.30
  -3  -2  -1  333.67   19.50
  -3  -2  -1  280.47   20.10
  -3   2  -1  318.87   19.00
   3   2   1  299.97   19.90
   3   2   1  327.77   19.70
  -3   2  -1  267.27   19.30
   3   2   1  324.57   19.50
  -3   2  -1  326.77   20.50
   4  -2   1   52.89    5.30
  -4  -2  -1   41.90    5.80
  -4  -2  -1   37.00    5.60
   4  -2   1   44.90    7.30
  -4  -2  -1   49.30    5.10
   4  -2   1   52.49    5.00
  -4   2  -1   50.89    8.10
   4   2   1   41.50    6.60
   4   2   1   51.99    6.20
  -4   2  -1   43.40    6.50
   4   2   1   43.70    6.00
  -4   2  -1   44.90    4.70
   5  -2   1 1175.68   64.19
   5  -2   1 1117.19   62.89
  -5  -2  -1 1006.10   64.09
  -5  -2  -1  985.20   64.09
  -5  -2  -1 1073.19   63.09
   5  -2   1 1051.49   62.89
   5   2   1  991.50   63.59
  -5   2  -1  982.80   62.69
   5   2   1 1167.08   63.49
  -5   2  -1  933.81   63.39
   5   2   1 1127.79   63.39
  -5   2  -1 1026.70   64.39
   6  -2   1 1532.45   82.69
  -6  -2  -1 1371.76   82.89
   6  -2   1 1307.77   82.69
   6  -2   1 1517.25   84.09
  -6  -2  -1 1462.15   84.29
  -6  -2  -1 1203.48   84.09
   6   2   1 1444.86   83.39
   6   2   1 1511.85   83.59
  -6   2  -1 1383.06   82.89
   6   2   1 1499.95   83.09
  -6   2  -1 1186.28   82.59
  -6   2  -1 1280.17   83.39
  -6   2  -1 1340.17   84.59
   7  -2   1   17.10    4.00
   7  -2   1   11.10    6.20
  -7  -2  -1   14.50    6.60
  -7  -2  -1    5.60    7.70
  -7  -2  -1    9.20    4.90
  -7   2  -1    5.90    8.60
   7   2   1   23.20    5.40
  -7   2  -1    7.50    5.30
   7   2   1   15.00    6.10
   7   2   1   13.70    4.60
  -7   2  -1   13.10    6.40
  -7   2  -1   16.00    4.20
   8  -2   1   21.00    5.20
  -8  -2  -1   30.00    8.40
   8  -2   1   19.80    6.90
  -8  -2  -1   15.90    5.90
   8  -2   1   27.20    4.70
  -8  -2  -1   21.60    9.40
   8   2   1   21.30    6.00
   8   2   1   30.80    5.50
   8   2   1    8.20    6.70
  -8   2  -1   18.70    5.10
  -8   2  -1   14.20    6.80
  -8   2  -1   36.60   11.40
  -8   2  -1   23.70    7.70
   9  -2   1  333.27   25.70
  -9  -2  -1  373.56   27.10
   9  -2   1  369.66   23.20
  -9  -2  -1  283.07   31.10
   9   2   1  379.76   24.50
  -9   2  -1  308.07   26.10
  -9   2  -1  339.37   27.10
  -9   2  -1  406.36   31.00
   9   2   1  338.17   23.50
 -10  -2  -1  929.81   56.19
 -10  -2  -1  826.82   58.39
  10  -2   1  833.52   52.69
 -10   2  -1  896.41   55.99
  10   2   1  724.03   52.59
 -10   2  -1  854.61   55.59
 -10   2  -1  978.80   59.69
  11  -2   1  130.39   14.10
 -11  -2  -1  173.08   20.30
 -11  -2  -1  203.48   27.60
 -11   2  -1  192.88   22.20
 -11   2  -1  203.68   28.80
 -11   2  -1  168.28   21.70
 -12  -2  -1   55.09   17.80
 -12  -2  -1   22.80   12.20
  12  -2   1   25.20   10.40
 -12   2  -1   51.49   18.60
 -12   2  -1   24.90   12.80
 -12   2  -1   36.40   13.20
  12   2   1    7.30    8.00
 -13  -2  -1   31.00   18.70
 -13  -2  -1   11.40   13.10
  13  -2   1    8.30   11.80
 -13   2  -1   19.20   13.90
 -13   2  -1   -9.50   13.10
  13   2   1    4.20    8.30
 -13   2  -1   -3.20   19.40
 -14  -2  -1  221.58   29.10
 -14   2  -1  238.08   31.00
 -14   2  -1  304.07   39.40
 -14   2  -1  227.48   32.80
 -13  -3   1   47.60   15.40
 -13   3   1   46.50   23.30
 -12  -3   1   53.59   15.10
  12  -3  -1   30.10    7.80
 -12  -3   1   44.80   18.00
 -12   3   1   31.80   13.30
 -12   3   1   33.00   19.50
 -12   3   1    3.80   11.80
  11  -3  -1   17.10    7.00
 -11  -3   1   23.20   12.80
 -11  -3   1   50.79   16.20
  11   3  -1   14.20    7.80
 -11   3   1   27.80   11.70
 -11   3   1   14.60   17.00
  10  -3  -1  112.49   12.60
 -10  -3   1  120.79   22.50
  10  -3  -1  110.69   13.10
 -10   3   1  128.09   19.00
 -10   3   1   86.19   12.90
  10   3  -1   83.49   11.10
  -9  -3   1   -0.20   10.80
  -9  -3   1   -3.70    6.30
   9  -3  -1    4.30    5.30
   9  -3  -1    9.60    5.40
  -9  -3   1    2.30    9.50
   9   3  -1   -7.50    4.80
  -9   3   1    3.50   12.20
  -9   3   1   13.10    5.80
  -9   3   1   -0.30    8.50
   9   3  -1    1.50    4.50
  -8  -3   1   15.30   10.90
  -8  -3   1   32.40    6.60
  -8  -3   1   21.70    5.90
   8  -3  -1   28.10    8.90
   8  -3  -1   31.70    5.90
  -8  -3   1   44.00    9.80
   8  -3  -1   29.00    5.20
  -8   3   1   22.80   11.60
  -8   3   1   37.90    8.60
   8   3  -1   30.00    4.50
   8   3  -1   17.30    6.60
   8   3  -1   28.70    4.90
  -7  -3   1    0.50    4.40
   7  -3  -1    5.50    3.50
  -7  -3   1    5.60    8.00
  -7  -3   1    7.70    7.90
  -7  -3   1    6.00    4.60
   7  -3  -1    2.80    4.80
   7  -3  -1   -1.50    6.30
  -7   3   1    0.50    4.30
   7   3  -1    1.90    3.00
  -7   3   1    9.90    6.90
   7   3  -1    0.10    5.10
  -7   3   1    3.20    9.10
   6  -3  -1  428.96   26.40
  -6  -3   1  444.86   28.90
  -6  -3   1  435.06   26.30
   6  -3  -1  429.86   28.00
  -6  -3   1  397.76   26.50
  -6  -3   1  356.76   27.90
  -6   3   1  415.96   28.90
  -6   3   1  400.36   27.70
   6   3  -1  389.86   26.60
  -6   3   1  410.46   26.00
  -5  -3   1   97.99   13.40
  -5  -3   1  136.09   10.00
  -5  -3   1  120.99    9.90
  -5  -3   1  110.89   12.30
   5  -3  -1  127.79   10.30
   5  -3  -1  123.99   12.30
  -5   3   1  139.29   13.10
  -5   3   1  116.09   12.00
   5   3  -1  111.79   10.20
  -4  -3   1    1.00    4.30
   4  -3  -1   10.70    4.50
  -4  -3   1   -0.30    3.30
   4  -3  -1    3.70    3.60
  -4  -3   1   -7.40    5.10
  -4  -3   1    4.30    2.90
  -4   3   1    7.90    3.00
   4   3  -1   -3.30    3.50
  -4   3   1   11.20    4.60
  -4   3   1    4.40    5.10
  -3  -3   1  154.78   10.90
  -3  -3   1  130.09   11.00
  -3  -3   1  131.39   10.20
   3  -3  -1  147.79   11.10
   3  -3  -1  140.99   10.60
  -3   3   1  142.99   11.40
  -3   3   1  146.09    9.80
   3   3  -1  137.89    9.70
  -3   3   1  117.59   10.90
  -2  -3   1  493.25   29.40
   2  -3  -1  505.25   29.70
  -2  -3   1  501.45   29.70
   2  -3  -1  499.05   29.90
  -2  -3   1  478.05   29.70
   2   3  -1  481.85   29.00
  -2   3   1  405.06   29.70
  -2   3   1  480.55   29.70
  -2   3   1  500.05   29.10
  -1  -3   1  313.77   19.30
  -1  -3   1  309.57   18.70
  -1  -3   1  318.67   19.00
   1  -3  -1  300.77   19.10
   1  -3  -1  312.67   19.20
  -1   3   1  257.77   18.40
  -1   3   1  307.47   18.30
   1   3  -1  278.17   18.50
  -1   3   1  292.17   18.60
   0  -3   1   -0.40    2.30
   0  -3   1   -1.80    3.50
   0  -3  -1   -2.30    3.10
   0  -3  -1   -0.50    2.60
   0  -3   1    1.00    2.80
   0   3   1   -0.70    2.10
   0   3   1    0.00    2.20
   0   3   1    0.80    2.10
   0   3  -1   -3.40    2.70
  -1  -3  -1  178.68   12.30
  -1  -3  -1  196.58   11.30
  -1  -3  -1  176.58   12.80
   1  -3   1  177.88   12.10
   1  -3   1  196.38   12.30
   1   3   1  181.28   11.50
  -1   3  -1  168.28   12.60
   1   3   1  163.48   11.60
  -2  -3  -1  565.24   34.80
   2  -3   1  584.64   35.20
  -2  -3  -1  583.14   35.50
  -2  -3  -1  618.44   35.10
   2  -3   1  593.54   34.90
   2   3   1  588.84   34.40
   2   3   1  549.65   34.40
   2   3   1  510.95   34.50
  -2   3  -1  577.74   35.30
  -3  -3  -1  986.60   54.49
   3  -3   1  932.31   54.79
  -3  -3  -1  835.72   54.49
  -3  -3  -1  909.71   53.79
  -3  -3  -1  912.71   54.99
   3  -3   1  909.11   54.19
   3   3   1  862.11   54.09
   3   3   1  861.51   54.09
  -3   3  -1  933.31   55.09
  -4  -3  -1  124.69    9.80
  -4  -3  -1  114.39   11.70
  -4  -3  -1  111.69   11.90
  -4  -3  -1  118.79    8.40
   4  -3   1  123.99    9.80
   4  -3   1  128.59   11.60
  -4   3  -1  135.49   12.60
   4   3   1  112.19   10.20
   4   3   1  110.39    9.00
   4   3   1  123.19    9.70
  -5  -3  -1  594.14   40.80
  -5  -3  -1  603.54   41.00
   5  -3   1  664.33   39.60
   5  -3   1  654.83   41.00
  -5  -3  -1  673.93   39.70
   5   3   1  579.44   40.00
   5   3   1  725.13   39.60
   5   3   1  627.64   39.20
  -5   3  -1  688.63   41.80
  -6  -3  -1  101.19   10.50
  -6  -3  -1   91.59   13.80
  -6  -3  -1  103.39    8.80
  -6  -3  -1   98.39   14.00
   6  -3   1   79.89   13.40
   6  -3   1  116.89   10.40
   6  -3   1  125.09    9.40
  -6   3  -1  110.99    8.50
  -6   3  -1  123.89   15.70
   6   3   1   98.49    9.60
  -6   3  -1  100.39   10.30
   6   3   1   80.89   11.30
   7  -3   1  441.86   26.80
  -7  -3  -1  475.55   30.10
  -7  -3  -1  392.86   27.10
  -7  -3  -1  389.06   25.90
   7  -3   1  374.96   29.40
   7   3   1  411.16   26.60
  -7   3  -1  424.86   27.60
   7   3   1  393.66   27.90
  -8  -3  -1  174.48   16.60
  -8  -3  -1  212.08   20.30
   8  -3   1  182.58   14.40
  -8   3  -1  161.68   21.50
   8   3   1  164.98   14.70
   8   3   1  148.29   16.10
  -8   3  -1  156.58   13.70
  -8   3  -1  188.88   17.50
  -9  -3  -1  433.96   38.00
   9  -3   1  581.74   32.60
  -9   3  -1  443.16   31.80
  -9   3  -1  574.74   40.60
   9   3   1  460.55   32.40
  10  -3   1   18.80    6.90
 -10  -3  -1    9.00   13.00
 -10  -3  -1   27.10   12.80
 -10   3  -1   -9.50   15.30
  10   3   1    3.20    6.90
  10   3   1    7.40    6.50
 -10   3  -1   12.20   10.60
  11  -3   1   15.40    7.30
 -11  -3  -1   25.80   16.00
 -11  -3  -1   37.80   14.40
  11   3   1    2.20    7.30
 -11   3  -1   31.10   12.30
 -11   3  -1   -0.70   17.80
 -12  -3  -1   62.99   17.20
  12  -3   1   32.70    9.00
 -12  -3  -1   61.09   18.90
 -12   3  -1   42.10   21.80
 -10  -4   1   87.69   17.50
  -9  -4   1   17.90   12.90
  -9  -4   1   36.70   13.80
   9  -4  -1   38.40    8.10
  -9   4   1   50.29   14.90
   8  -4  -1  144.19   14.90
  -8  -4   1  162.48   21.90
  -8  -4   1  103.49   15.60
  -8   4   1  166.58   22.20
  -7  -4   1    2.90    6.40
  -7  -4   1   -4.30    9.70
   7  -4  -1    2.20    6.50
  -7  -4   1   -3.60    8.70
  -7   4   1    8.70   10.20
   6  -4  -1   47.90    7.40
  -6  -4   1   40.50    6.80
  -6  -4   1   41.40    9.10
  -6  -4   1   49.90   10.00
  -5  -4   1  212.68   18.40
  -5  -4   1  202.98   18.70
  -5  -4   1  193.88   17.00
  -5  -4   1  246.18   16.60
   5  -4  -1  224.88   18.60
   5  -4  -1  228.88   17.00
   5   4  -1  191.58   15.70
  -5   4   1  269.97   19.20
  -4  -4   1  276.47   19.00
   4  -4  -1  263.57   19.90
  -4  -4   1  241.08   19.70
   4  -4  -1  266.97   20.60
  -4  -4   1  298.27   18.80
  -4  -4   1  283.77   20.10
  -4   4   1  305.47   19.90
   4   4  -1  250.37   18.80
  -3  -4   1   46.30    6.60
  -3  -4   1   50.89    8.20
  -3  -4   1   31.20    6.50
   3  -4  -1   36.60    6.20
   3  -4  -1   37.90    6.30
  -3   4   1   59.39    8.80
  -2  -4   1    6.30    4.80
   2  -4  -1   10.90    4.60
   2  -4  -1    7.40    4.80
  -2  -4   1   10.80    4.10
  -2   4   1   11.30    4.40
  -1  -4   1  231.08   16.00
   1  -4  -1  242.18   16.70
   1  -4  -1  229.58   16.30
  -1  -4   1  238.98   16.70
  -1   4   1  227.38   15.40
   0  -4   1  330.77   20.70
   0  -4  -1  317.77   21.10
   0  -4   1  305.77   20.40
   0  -4  -1  317.27   20.70
   0   4  -1  295.87   20.10
   1  -4   1   72.09    8.10
   1  -4   1   57.39    8.10
  -1  -4  -1   67.39    8.20
  -1  -4  -1   56.19   10.00
  -1   4  -1   65.19    8.10
   2  -4   1    9.20    4.50
   2  -4   1    8.70    4.50
  -2  -4  -1    9.50    4.50
  -2  -4  -1    2.40    5.70
  -2   4  -1   12.00    5.10
   3  -4   1   96.19   10.10
  -3  -4  -1  104.89   11.80
  -3  -4  -1   96.29   10.30
   3  -4   1   97.19   10.80
  -3   4  -1  104.09   11.30
   3   4   1   85.89    7.40
  -4  -4  -1  174.08   16.90
  -4  -4  -1  197.28   15.10
  -4  -4  -1  193.48   15.40
   4  -4   1  199.58   15.30
   4  -4   1  211.08   16.80
  -4   4  -1  211.88   17.00
   5  -4   1   27.30    7.70
   5  -4   1   28.20    7.30
  -5  -4  -1   34.90    6.50
  -5  -4  -1   43.10    7.40
  -5  -4  -1   23.70    8.30
   6  -4   1   57.19   10.30
  -6  -4  -1   47.40   10.30
  -6  -4  -1   51.99    9.90
   6  -4   1   65.69   10.80
  -7  -4  -1   16.40   10.00
   7  -4   1   28.20    7.00
  -7  -4  -1   20.20   10.20
  -7   4  -1   21.70   11.50
  -8  -4  -1    8.90   11.70
  -8  -4  -1   -5.00   11.40
   8  -4   1   18.30    7.10
  -8   4  -1   15.30   13.00
  -9  -4  -1    7.70   13.70
  -9  -4  -1    6.90   13.50
   9  -4   1   15.20    7.20
  -9   4  -1   40.10   16.10
   2  -5  -1    9.80    6.90
  -2  -5   1    3.00    6.90
   1  -5  -1  -11.80    6.60
  -1  -5   1   -5.00    6.50
   0  -5  -1   41.00    8.10
   0  -5   1   59.89   11.00
  -1  -5  -1    3.50    7.30
   1  -5   1    3.60    6.50
   2  -5   1   -2.80    6.20
  -2  -5  -1    4.60    7.40
 -16   0   2   51.89   16.60
  16   0  -2   99.89   16.10
 -16   0   2   76.69   16.00
 -15   0   2   13.80   11.40
 -15   0   2    0.00   12.30
  15   0  -2   15.00   12.70
 -14   0   2  945.81   57.79
 -14   0   2  805.42   58.29
 -13   0   2   -1.80    9.00
  13   0  -2   14.80   11.60
 -13   0   2   -0.70   10.20
 -12   0   2  628.04   42.00
 -12   0   2  617.74   42.80
  11   0  -2   -4.20    5.70
  11   0  -2    6.60   10.40
  11   0  -2    9.20    5.20
 -11   0   2   -6.40    8.80
 -10   0   2 2437.66  158.68
 -10   0   2 2440.16  157.38
 -10   0   2 2812.02  157.28
  10   0  -2 2762.02  156.58
  10   0  -2 2684.43  156.38
  -9   0   2    3.50    5.90
  -9   0   2  -12.10    6.50
   9   0  -2   -1.30    4.70
  -9   0   2   11.10    6.30
   9   0  -2    1.20    4.40
   8   0  -2 2756.42  157.88
  -8   0   2 2511.05  158.38
  -8   0   2 2666.23  158.18
   8   0  -2 2702.63  157.88
  -7   0   2   -5.60    3.80
  -7   0   2   -4.00    4.80
   7   0  -2   -3.00    3.40
  -7   0   2   -0.80    3.80
   7   0  -2    1.30    3.30
   7   0  -2   -4.20    5.90
   6   0  -2 2166.18  126.39
  -6   0   2 2072.49  125.99
  -6   0   2 2122.19  125.79
   5   0  -2   -1.30    2.20
   5   0  -2   -2.50    3.20
   5   0  -2   -1.20    2.40
  -5   0   2   -0.80    2.40
  -5   0   2    0.30    2.40
  -5   0   2    2.00    3.10
   4   0  -2 3170.28  178.58
  -4   0   2 2967.70  178.58
  -4   0   2 3078.69  178.58
   4   0  -2 2755.82  178.78
   4   0  -2 3170.88  178.58
  -3   0   2    0.30    1.30
   3   0  -2   -0.70    1.20
   3   0  -2   -0.10    1.20
   3   0  -2   -1.00    1.50
  -3   0   2    2.60    1.30
  -3   0   2    1.60    1.70
  -2   0   2  143.19    8.30
  -2   0   2  119.49    8.60
   2   0  -2  139.09    8.30
  -2   0   2  129.69    8.30
   2   0  -2  138.49    8.30
   1   0  -2   -4.40    0.50
  -1   0   2   -4.30    0.60
  -1   0   2   -4.30    0.50
   0   0  -2   27.40    2.20
   0   0   2   26.70    2.20
   0   0   2   26.60    2.20
   0   0  -2   28.90    2.30
   1   0   2   -5.90    0.80
   1   0   2   -6.20    0.70
   1   0   2   -6.20    0.90
  -1   0  -2   -7.10    0.80
   1   0   2   -5.60    1.30
  -1   0  -2   -4.40    1.00
  -1   0  -2   -8.30    1.40
  -2   0  -2  710.13   42.00
  -2   0  -2  808.52   43.10
   2   0   2  726.63   42.00
  -2   0  -2  608.34   42.20
   2   0   2  656.63   41.90
  -3   0  -2   -2.70    2.20
   3   0   2   -8.70    3.90
  -3   0  -2   -1.20    2.10
  -3   0  -2   -6.20    2.10
   3   0   2   -3.90    1.40
   3   0   2   -3.70    1.70
  -4   0  -2  103.39    8.60
  -4   0  -2   85.49   10.10
  -4   0  -2   98.09    8.90
   4   0   2  119.09    8.20
   4   0   2  113.09    7.90
  -5   0  -2   -4.50    3.60
   5   0   2   -0.90    3.00
  -5   0  -2    4.90    4.90
  -5   0  -2   -2.20    3.20
   5   0   2    0.40    3.10
   5   0   2   -1.20    6.30
   6   0   2   48.50    6.40
  -6   0  -2   25.90    6.50
  -6   0  -2   31.40    6.00
   6   0   2   45.60    5.80
  -6   0  -2   36.90    6.40
   7   0   2   -1.30    2.90
  -7   0  -2   -0.50    5.70
   7   0   2    8.70    9.00
  -7   0  -2    3.00    5.80
  -7   0  -2    2.60    5.80
   7   0   2    0.90    3.60
  -8   0  -2  377.06   27.10
  -8   0  -2  397.36   26.40
   8   0   2  348.37   24.20
   8   0   2  335.77   23.60
  -8   0  -2  407.66   27.40
   9   0   2   -1.00    3.90
  -9   0  -2    2.70    8.70
   9   0   2   -4.70    4.60
  -9   0  -2   -3.50    7.40
   9   0   2   17.90   10.30
  -9   0  -2   -7.70    7.60
 -10   0  -2  141.59   17.50
 -10   0  -2  169.18   18.20
 -10   0  -2  140.89   19.60
  10   0   2  118.19   11.50
  10   0   2  116.09   11.70
 -11   0  -2   -0.60   10.70
  11   0   2   27.30   13.00
 -11   0  -2    2.10   11.20
 -12   0  -2 1398.56   82.99
 -12   0  -2 1226.28   83.99
 -13   0  -2   14.70   14.80
 -13   0  -2    5.90   11.60
  13   0   2   25.60   13.80
  14   0   2    1.20   13.00
 -14   0  -2  -11.40   13.50
 -14   0  -2    7.30   16.70
 -14   0  -2   24.60   16.10
 -15   0  -2   12.80   16.80
  15   0   2   21.40   15.00
 -15   0  -2    7.60   18.80
 -15   0  -2   27.10   18.90
 -15  -1   2   37.30   15.80
  15  -1  -2   29.50   13.10
 -15  -1   2   27.60   12.20
 -15   1   2    3.00   12.90
 -15   1   2   27.50   13.50
 -14  -1   2   16.30   13.40
 -14  -1   2    4.30   11.60
 -14   1   2    5.30   11.20
 -14   1   2   11.10   11.40
 -13  -1   2   87.89   15.20
 -13  -1   2   64.39   12.10
  13  -1  -2   72.99   13.90
 -13   1   2   62.59   12.80
 -13   1   2   84.49   13.40
 -12  -1   2   41.80   11.70
 -12  -1   2   25.20    9.00
  12  -1  -2   26.60    9.00
  12  -1  -2   26.30    9.80
 -12   1   2   26.00   10.40
 -12   1   2   33.10   10.40
  12   1  -2   56.79   11.40
 -11  -1   2  190.78   19.20
  11  -1  -2  190.08   18.10
 -11  -1   2  222.78   19.30
 -11  -1   2  227.08   23.20
  11  -1  -2  233.28   16.70
  11   1  -2  204.18   16.60
 -11   1   2  213.48   19.60
 -10  -1   2  147.09   17.00
 -10  -1   2  108.09   14.60
  10  -1  -2   88.99   12.60
  10  -1  -2  121.89   11.70
  10  -1  -2  106.09   12.30
 -10  -1   2  113.89   14.40
  10   1  -2  152.18   16.10
 -10   1   2  123.49   14.80
  10   1  -2  111.89   11.70
 -10   1   2  120.99   15.10
  10   1  -2  120.79   12.10
  -9  -1   2  295.17   22.50
  -9  -1   2  278.27   21.00
   9  -1  -2  294.57   19.40
   9  -1  -2  264.67   19.30
   9  -1  -2  246.28   20.20
  -9   1   2  281.17   20.90
   9   1  -2  296.27   19.70
   9   1  -2  277.87   19.70
  -9   1   2  281.27   21.20
  -8  -1   2   54.09    7.50
   8  -1  -2   40.40    6.70
   8  -1  -2   57.69    7.50
  -8  -1   2   65.29   11.40
   8  -1  -2   61.79    7.80
  -8  -1   2   33.50    7.00
   8   1  -2   40.80    7.20
   8   1  -2   45.10    8.00
  -8   1   2   56.19    9.80
  -8   1   2   50.29    7.40
   8   1  -2   51.09    7.90
   7  -1  -2  207.98   15.10
  -7  -1   2  155.18   16.00
   7  -1  -2  211.08   14.00
  -7  -1   2  196.08   14.90
   7  -1  -2  207.88   14.00
  -7  -1   2  197.98   16.20
   7   1  -2  180.08   15.50
   7   1  -2  209.08   14.50
   7   1  -2  199.88   14.20
  -7   1   2  214.08   15.30
  -7   1   2  210.98   15.00
   6  -1  -2 1453.45   79.79
  -6  -1   2 1313.17   81.29
   6  -1  -2 1453.15   80.29
   6  -1  -2 1234.28   79.49
  -6  -1   2 1319.97   80.09
  -6  -1   2 1300.67   80.69
   6   1  -2 1417.66   79.79
  -6   1   2 1137.49   80.09
  -6   1   2 1407.66   80.09
   6   1  -2 1402.86   80.09
  -6   1   2 1263.37   79.99
   5  -1  -2 2223.28  124.59
   5  -1  -2 2046.20  124.49
  -5  -1   2 1893.61  125.09
  -5  -1   2 2258.87  125.59
   5  -1  -2 2332.47  125.19
  -5  -1   2 2080.89  124.89
   5   1  -2 2163.88  124.89
  -5   1   2 2157.68  124.79
  -5   1   2 2067.19  124.89
   5   1  -2 2163.38  124.59
  -5   1   2 2021.80  124.79
   5   1  -2 1871.21  124.79
  -4  -1   2 2211.78  119.59
  -4  -1   2 1888.81  119.29
   4  -1  -2 2148.89  119.49
   4  -1  -2 2089.79  119.19
   4  -1  -2 1982.10  119.09
   4   1  -2 1957.50  118.99
  -4   1   2 1982.10  119.29
   4   1  -2 2046.00  119.39
  -4   1   2 1941.91  119.29
  -4   1   2 1912.41  119.09
  -3  -1   2  857.51   51.69
   3  -1  -2  922.71   51.89
   3  -1  -2  861.21   51.39
   3  -1  -2  858.21   51.59
  -3  -1   2  902.01   51.59
  -3   1   2  838.82   51.79
   3   1  -2  837.02   51.29
   3   1  -2  844.92   51.69
  -3   1   2  792.22   51.49
  -3   1   2  885.71   51.69
   3   1  -2  960.10   51.29
   2  -1  -2 3940.81  219.98
  -2  -1   2 3759.42  219.88
  -2  -1   2 3427.16  220.58
  -2  -1   2 3807.22  220.58
   2  -1  -2 3826.32  221.08
   2  -1  -2 3877.11  220.98
  -2   1   2 3787.02  220.88
   2   1  -2 3558.14  219.98
  -2   1   2 3784.32  220.98
  -2   1   2 3536.85  219.98
   1  -1  -2 6088.49  348.57
   1  -1  -2 5993.40  348.27
  -1  -1   2 5200.68  347.67
  -1  -1   2 6015.00  348.57
  -1   1   2 5815.52  348.47
   1   1  -2 5938.21  348.27
  -1   1   2 6143.09  348.07
   1   1  -2 5980.40  347.67
   0  -1  -2 7654.03  431.16
   0  -1   2 7060.49  431.16
   0  -1  -2 7170.98  430.86
   0   1   2 7064.99  430.76
   0   1  -2 7546.15  431.66
   0   1   2 7326.17  431.06
   1  -1   2 2502.55  147.49
  -1  -1  -2 2665.33  147.99
  -1  -1  -2 2636.44  147.99
  -1  -1  -2 2333.07  147.89
   1  -1   2 2493.05  147.19
   1  -1   2 2469.95  147.39
   1   1   2 2436.36  147.09
  -1   1  -2 2424.76  147.69
   1   1   2 2506.05  147.19
   2  -1   2 1162.08   68.79
  -2  -1  -2 1122.59   68.89
   2  -1   2 1191.78   68.59
  -2  -1  -2 1187.88   68.99
   2  -1   2 1068.99   68.59
   2  -1   2 1190.08   68.99
  -2  -1  -2 1192.18   68.79
  -2   1  -2 1167.28   69.09
   2   1   2 1210.88   68.89
  -2   1  -2 1110.29   68.39
   2   1   2 1291.17   68.99
  -2   1  -2 1139.39   68.49
   2   1   2 1065.49   68.89
  -3  -1  -2 3077.19  173.68
  -3  -1  -2 3277.07  173.48
   3  -1   2 3070.29  173.58
   3  -1   2 2587.44  173.28
  -3  -1  -2 2660.93  173.58
   3  -1   2 2918.41  173.48
  -3   1  -2 3103.99  173.78
  -3   1  -2 2667.03  173.28
   3   1   2 2881.11  173.48
   3   1   2 3138.59  173.38
   3   1   2 3336.17  173.68
  -3   1  -2 2561.04  173.08
  -4  -1  -2 4823.92  306.27
  -4  -1  -2 5433.96  306.17
   4  -1   2 5056.69  306.27
   4  -1   2 5116.09  307.27
   4  -1   2 5559.84  307.47
  -4  -1  -2 5109.09  306.47
   4   1   2 4978.90  306.17
   4   1   2 5212.08  306.47
  -4   1  -2 5422.36  306.67
  -4   1  -2 4703.83  306.07
  -4   1  -2 5414.86  306.07
   4   1   2 5534.15  306.07
  -5  -1  -2  624.94   43.30
   5  -1   2  755.92   42.90
  -5  -1  -2  691.73   43.00
  -5  -1  -2  697.73   43.00
   5  -1   2  772.52   43.00
   5  -1   2  718.53   42.20
   5   1   2  719.23   42.60
   5   1   2  770.22   42.60
  -5   1  -2  648.94   42.50
   5   1   2  676.43   43.50
  -5   1  -2  670.43   43.50
  -5   1  -2  643.84   42.80
  -6  -1  -2   32.60    6.00
   6  -1   2   38.10    5.40
   6  -1   2   33.00    6.00
   6  -1   2   33.60    6.50
  -6  -1  -2   30.30    6.80
  -6   1  -2   29.20    6.60
   6   1   2   33.50    7.00
   6   1   2   32.90    6.10
   6   1   2   35.70    5.90
  -6   1  -2   32.00    5.80
  -6   1  -2   22.60    5.40
  -7  -1  -2 1541.75   88.19
  -7  -1  -2 1319.47   88.29
   7  -1   2 1616.04   87.49
  -7  -1  -2 1306.67   88.39
   7  -1   2 1478.65   86.79
  -7   1  -2 1384.46   87.99
  -7   1  -2 1570.94   88.99
   7   1   2 1458.35   87.09
   7   1   2 1342.47   88.69
   7   1   2 1498.65   87.09
  -7   1  -2 1474.15   87.89
  -8  -1  -2 2966.10  155.48
  -8  -1  -2 2215.78  155.48
   8  -1   2 2796.22  154.38
  -8  -1  -2 2549.15  155.88
   8  -1   2 2517.45  153.68
  -8   1  -2 2710.63  155.28
   8   1   2 2386.76  153.88
   8   1   2 2356.66  155.48
   8   1   2 2636.24  154.08
  -8   1  -2 2798.02  155.18
  -9  -1  -2  250.97   22.60
   9  -1   2  193.58   15.20
   9  -1   2  215.68   17.00
  -9  -1  -2  160.78   20.00
  -9  -1  -2  252.07   20.10
   9   1   2  193.18   20.60
  -9   1  -2  247.78   20.70
   9   1   2  189.48   15.90
   9   1   2  211.88   16.00
  -9   1  -2  271.67   23.00
  -9   1  -2  235.28   19.70
  10  -1   2   15.30    4.90
 -10  -1  -2    9.40    9.20
 -10  -1  -2   25.90   11.50
  10  -1   2    9.40    5.80
 -10   1  -2    4.90    9.60
 -10   1  -2   24.20   12.20
  10   1   2   25.80   10.40
  10   1   2    9.50    5.30
 -10   1  -2   19.20   10.10
 -11  -1  -2  432.16   35.30
 -11  -1  -2  392.06   31.00
  11   1   2  341.77   31.60
 -11   1  -2  408.46   33.40
 -11   1  -2  434.46   32.80
 -12  -1  -2 1046.60   64.79
 -12  -1  -2  978.20   67.29
 -12   1  -2  938.11   65.39
 -12   1  -2 1067.99   64.89
  12   1   2  894.71   63.99
 -13  -1  -2   31.50   12.40
 -13  -1  -2   45.30   17.20
  13  -1   2   41.10   13.70
 -13   1  -2   22.70   14.30
  13   1   2   49.70   13.00
 -13   1  -2   39.30   15.20
 -13   1  -2   62.19   18.90
 -14  -1  -2  138.69   23.40
  14  -1   2  141.09   28.30
 -14  -1  -2  108.19   18.00
 -14   1  -2  124.09   20.70
 -14   1  -2  147.49   24.80
 -14   1  -2  161.38   26.50
  14   1   2  168.28   24.30
 -15   1  -2   40.90   18.30
 -15   2   2    9.30   14.90
 -14  -2   2   69.79   13.70
  14  -2  -2   60.89   11.30
 -14   2   2   97.39   15.70
 -14   2   2   80.09   14.50
 -13  -2   2  538.15   39.10
 -13  -2   2  622.14   45.40
 -13   2   2  471.95   39.30
  12  -2  -2   23.00    6.80
 -12  -2   2    5.00   10.70
  12  -2  -2    9.30    6.30
 -12  -2   2   28.40   14.40
  12   2  -2    0.40    6.70
 -12   2   2   19.80   10.90
  12   2  -2    2.00    6.00
 -11  -2   2   44.00   10.10
 -11  -2   2   69.29   14.20
  11  -2  -2   42.20    7.20
 -11   2   2   61.89   10.70
  11   2  -2   35.10    7.40
 -11   2   2   52.79   11.00
  10  -2  -2  214.98   17.20
 -10  -2   2  177.28   20.80
 -10  -2   2  245.78   36.10
  10  -2  -2  249.88   17.80
 -10  -2   2  253.07   21.60
 -10   2   2  282.57   21.20
  10   2  -2  230.48   17.70
 -10   2   2  234.78   20.80
   9  -2  -2 1254.67   90.19
  -9  -2   2 1661.93   91.79
   9  -2  -2 1443.26   89.79
  -9  -2   2 1621.54   93.29
   9  -2  -2 1396.26   91.09
  -9   2   2 1530.55   91.29
  -9   2   2 1726.03   91.09
   9   2  -2 1530.85   89.69
   9   2  -2 1323.17   90.29
  -8  -2   2  870.21   54.49
   8  -2  -2  906.81   51.29
   8  -2  -2  789.02   50.89
   8  -2  -2  782.42   52.49
  -8  -2   2  776.42   52.19
  -8  -2   2  907.81   52.99
  -8   2   2  883.71   52.79
   8   2  -2  797.32   51.99
   8   2  -2  860.21   51.19
   7  -2  -2   68.19    7.60
  -7  -2   2   75.29   13.10
   7  -2  -2   64.09   10.30
   7  -2  -2   67.59    7.80
  -7  -2   2   62.19   10.40
  -7  -2   2   60.69    8.80
  -7   2   2   80.09   10.50
   7   2  -2   66.29    7.90
  -7   2   2   70.09    8.70
   7   2  -2   78.39    7.80
   7   2  -2   73.19    8.90
  -7   2   2   62.69    9.10
  -6  -2   2   28.90    7.10
   6  -2  -2   37.60    6.00
  -6  -2   2   36.90    6.10
  -6  -2   2   32.70    4.90
   6  -2  -2   44.00    6.50
   6  -2  -2   33.40    5.60
   6   2  -2   34.20    5.30
   6   2  -2   44.00    5.30
  -6   2   2   44.00    6.50
   6   2  -2   37.50    5.40
  -6   2   2   35.80    5.80
  -6   2   2   34.90    5.00
  -5  -2   2 2474.05  155.18
   5  -2  -2 2710.23  154.68
  -5  -2   2 2726.23  154.68
   5  -2  -2 2761.82  155.38
   5  -2  -2 2812.62  154.38
   5   2  -2 2505.65  154.08
   5   2  -2 2732.73  154.08
  -5   2   2 2654.33  154.88
  -5   2   2 2289.07  154.48
   5   2  -2 2643.64  154.98
  -5   2   2 2490.95  155.08
   4  -2  -2 1474.35   85.09
  -4  -2   2 1410.96   86.09
  -4  -2   2 1226.08   86.09
   4  -2  -2 1516.75   85.69
   4  -2  -2 1540.35   86.09
  -4  -2   2 1481.05   85.39
  -4  -2   2 1637.14   85.79
  -4   2   2 1344.87   85.99
  -4   2   2 1430.56   85.99
   4   2  -2 1508.45   85.79
  -4   2   2 1301.57   85.19
  -3  -2   2   14.90    3.50
  -3  -2   2   23.20    3.20
  -3  -2   2   26.20    3.10
   3  -2  -2   20.00    3.60
   3  -2  -2   18.80    3.10
  -3  -2   2   15.40    3.50
  -3   2   2   17.60    4.20
  -3   2   2   21.40    4.00
   3   2  -2   17.30    2.70
  -3   2   2   29.40    5.20
  -2  -2   2  955.80   55.59
  -2  -2   2  928.01   55.99
   2  -2  -2  969.30   56.09
  -2  -2   2  926.21   55.89
  -2  -2   2  922.71   55.99
   2  -2  -2  936.41   55.99
  -2   2   2  975.00   55.89
  -2   2   2  905.51   55.99
   2   2  -2  937.11   55.69
  -2   2   2  938.81   56.09
   1  -2  -2 2327.77  131.09
   1  -2  -2 2262.67  130.99
  -1  -2   2 2218.88  130.89
  -1  -2   2 2158.18  130.79
  -1  -2   2 2238.58  130.69
  -1  -2   2 2177.88  130.99
   1   2  -2 2069.19  130.89
  -1   2   2 2303.67  130.99
  -1   2   2 2214.08  130.99
   0  -2   2 1073.09   64.29
   0  -2   2 1128.59   64.79
   0  -2  -2 1119.69   64.69
   0  -2  -2 1170.08   64.59
   0   2   2 1092.19   64.49
   0   2   2 1154.88   64.59
   0   2  -2 1049.09   64.59
   0   2   2  999.90   64.09
   0   2   2 1000.70   64.19
   1  -2   2   34.60    3.00
  -1  -2  -2   39.40    3.80
  -1  -2  -2   28.40    4.90
   1  -2   2   32.00    5.00
   1  -2   2   34.40    4.30
   1  -2   2   33.60    3.20
  -1  -2  -2   33.80    4.10
   1   2   2   30.60    4.30
  -1   2  -2   35.90    4.80
   1   2   2   32.70    4.50
   1   2   2   25.20    3.30
   2  -2   2 1783.92  109.59
  -2  -2  -2 1837.72  110.19
   2  -2   2 1973.60  109.59
   2  -2   2 1834.62  110.19
  -2  -2  -2 1768.92  109.99
  -2  -2  -2 1995.10  110.09
  -2   2  -2 1809.72  110.29
   2   2   2 1842.02  109.89
   2   2   2 1887.81  110.09
   3  -2   2  577.74   33.50
  -3  -2  -2  555.64   34.50
   3  -2   2  564.24   34.60
   3  -2   2  561.94   33.70
  -3  -2  -2  568.34   33.90
  -3  -2  -2  525.75   34.30
   3   2   2  603.84   34.20
  -3   2  -2  570.44   34.80
   3   2   2  489.85   34.30
   3   2   2  583.44   34.10
  -4  -2  -2  187.78   14.20
   4  -2   2  211.88   13.00
   4  -2   2  200.98   12.60
   4  -2   2  178.68   14.20
  -4  -2  -2  192.78   13.00
  -4  -2  -2  177.98   14.30
   4   2   2  199.98   13.30
   4   2   2  205.58   13.90
  -4   2  -2  183.58   12.20
  -4   2  -2  200.08   14.70
   5  -2   2   42.20    6.50
   5  -2   2   63.09    6.10
   5  -2   2   57.69    6.40
  -5  -2  -2   42.20    7.10
  -5  -2  -2   47.50    6.90
  -5  -2  -2   47.30    6.90
   5   2   2   57.09    8.70
  -5   2  -2   51.69    9.60
  -5   2  -2   54.69    5.50
   5   2   2   65.39    7.40
  -5   2  -2   40.40    7.40
   5   2   2   65.59    7.60
  -6  -2  -2 1609.54  101.19
  -6  -2  -2 1666.93  102.29
   6  -2   2 1923.81  102.29
   6  -2   2 1681.03  101.29
  -6  -2  -2 1518.55  102.39
   6  -2   2 1602.24  100.99
   6   2   2 1795.92  101.39
  -6   2  -2 1573.94  101.39
  -6   2  -2 1665.43  102.79
   6   2   2 1684.93  101.89
   6   2   2 1963.50  101.89
  -7  -2  -2    5.20    7.20
   7  -2   2    6.20    4.50
   7  -2   2    8.20    3.80
   7  -2   2    1.40    5.80
  -7  -2  -2    6.20    4.60
  -7  -2  -2   -3.90    7.10
  -7   2  -2    1.20    8.20
  -7   2  -2   10.10    3.90
   7   2   2    2.90    6.30
   7   2   2    4.70    4.70
  -7   2  -2    7.30    6.10
   7   2   2    6.30    4.40
  -8  -2  -2   96.99   15.20
   8  -2   2   78.19   11.30
   8  -2   2   75.39   10.00
  -8  -2  -2   59.49   11.40
   8  -2   2   90.49    8.70
  -8  -2  -2   53.99   10.70
   8   2   2   92.19   10.40
   8   2   2   82.49    9.70
  -8   2  -2   58.29    9.00
  -8   2  -2   91.79   14.20
  -8   2  -2   66.99    8.90
  -8   2  -2   59.59   13.30
  -9  -2  -2   49.30   11.90
   9  -2   2   42.90    8.10
  -9  -2  -2   30.20    8.90
   9  -2   2   49.50    8.30
   9  -2   2   58.99    8.40
  -9  -2  -2   34.40   13.20
  -9   2  -2   35.30    9.30
  -9   2  -2   53.39   13.90
   9   2   2   27.50    8.40
   9   2   2   55.09    9.20
   9   2   2   48.30    7.70
  -9   2  -2   55.59   10.00
  10  -2   2  371.96   29.90
  10  -2   2  407.86   27.90
 -10  -2  -2  396.36   35.90
 -10  -2  -2  510.55   34.20
 -10   2  -2  407.66   31.50
 -10   2  -2  468.05   32.90
  10   2   2  435.86   30.20
 -10   2  -2  478.35   35.80
 -11  -2  -2   70.09   15.50
 -11  -2  -2   90.09   14.90
  11  -2   2   51.49   11.20
  11  -2   2   41.70    7.70
 -11   2  -2   51.49   12.60
 -11   2  -2   57.49   17.10
  11   2   2   24.90    9.40
 -11   2  -2   64.69   13.40
  12  -2   2  140.99   22.60
 -12  -2  -2  132.49   23.20
 -12  -2  -2  204.98   29.00
 -12   2  -2  182.98   25.20
 -12   2  -2   97.69   17.40
 -12   2  -2  162.58   31.50
 -13  -2  -2   43.90   14.10
 -13  -2  -2   72.89   19.90
  13  -2   2   49.10   15.00
 -13   2  -2   46.30   16.10
 -13   2  -2   60.19   16.90
 -13   2  -2   73.89   22.40
 -14  -2  -2   46.80   16.90
 -14   2  -2   60.29   18.00
 -13  -3   2    2.80   13.10
 -13  -3   2   52.69   19.80
 -13   3   2   22.50   13.10
 -13   3   2   12.10   20.50
  12  -3  -2  237.98   20.20
 -12   3   2  227.38   24.10
 -12   3   2  307.57   27.80
 -11  -3   2   70.49   17.50
  11  -3  -2   58.79   11.30
 -11  -3   2   90.79   14.40
 -11   3   2   89.49   19.00
  10  -3  -2  158.88   13.70
  10  -3  -2  152.98   14.30
 -10  -3   2  143.79   24.80
 -10  -3   2  192.58   20.80
  10   3  -2  122.19   11.90
 -10   3   2  187.18   20.70
 -10   3   2  195.58   25.20
 -10   3   2  124.89   14.80
  -9  -3   2   50.19   13.20
   9  -3  -2   72.79    9.90
  -9  -3   2   70.89   11.80
   9  -3  -2   52.29    9.20
  -9   3   2   71.49   14.60
  -9   3   2   78.19   11.40
  -9   3   2   45.10    7.80
   9   3  -2   58.69    7.00
   9   3  -2   45.10    9.60
  -9   3   2   88.19   15.70
   8  -3  -2  540.35   31.70
  -8  -3   2  503.75   33.00
  -8  -3   2  456.45   32.40
   8  -3  -2  555.94   32.40
   8   3  -2  462.05   33.00
  -8   3   2  470.25   32.60
  -8   3   2  576.64   35.00
   7  -3  -2   15.30    7.30
   7  -3  -2   14.40    3.20
  -7  -3   2    6.30    7.90
  -7  -3   2   11.10    4.60
  -7  -3   2    5.50    7.90
  -7   3   2   15.10    4.90
  -7   3   2   25.40    7.20
  -7   3   2   19.70    9.30
   7   3  -2    6.80    5.20
   6  -3  -2  409.36   26.60
   6  -3  -2  409.06   25.20
  -6  -3   2  398.76   24.80
  -6  -3   2  320.27   26.80
  -6  -3   2  400.86   27.50
  -6  -3   2  402.46   25.20
  -6   3   2  392.56   25.00
  -6   3   2  389.06   26.60
   6   3  -2  383.36   25.20
  -6   3   2  371.16   27.60
  -5  -3   2  287.37   22.70
   5  -3  -2  328.67   20.80
   5  -3  -2  341.47   21.80
  -5  -3   2  329.37   20.20
  -5  -3   2  289.37   21.70
   5   3  -2  322.47   20.60
  -5   3   2  328.37   22.40
  -5   3   2  310.77   20.50
  -5   3   2  302.17   21.70
   4  -3  -2  561.34   33.80
  -4  -3   2  543.75   34.20
   4  -3  -2  581.44   34.40
  -4  -3   2  481.15   34.90
  -4  -3   2  544.15   33.70
  -4  -3   2  572.84   33.40
  -4   3   2  537.45   34.10
  -4   3   2  520.75   34.30
   4   3  -2  577.24   33.50
  -4   3   2  556.74   34.60
  -3  -3   2    2.20    3.50
   3  -3  -2    3.30    3.50
   3  -3  -2    1.10    3.50
  -3  -3   2    7.50    2.70
  -3  -3   2   -3.30    4.30
  -3  -3   2    3.60    3.70
  -3   3   2    8.40    3.90
  -3   3   2    5.80    3.10
   3   3  -2    3.90    2.40
  -3   3   2   10.80    4.10
  -2  -3   2  411.86   25.30
  -2  -3   2  392.26   25.70
   2  -3  -2  421.86   25.70
   2  -3  -2  408.06   25.60
  -2  -3   2  426.06   25.00
  -2   3   2  390.96   25.70
  -2   3   2  422.16   25.30
  -2   3   2  406.56   25.30
   1  -3  -2  498.75   29.90
  -1  -3   2  509.95   29.50
  -1  -3   2  493.65   29.30
  -1  -3   2  424.86   29.80
   1  -3  -2  516.65   30.10
   1   3  -2  457.55   29.50
  -1   3   2  500.15   29.80
  -1   3   2  507.95   29.60
  -1   3   2  459.35   29.20
   0  -3   2  129.29    9.00
   0  -3   2  128.09   10.60
   0  -3  -2  129.19    9.70
   0  -3   2  125.79    9.10
   0  -3  -2  120.19   10.40
   0   3  -2  117.49    9.70
   0   3   2  143.89    9.80
   0   3   2  128.29    9.60
   1  -3   2   -2.50    4.10
   1  -3   2    3.10    2.70
   1  -3   2   -0.40    2.40
  -1  -3  -2    2.20    2.90
  -1  -3  -2   -3.30    3.70
   1   3   2   -0.50    1.60
  -1   3  -2   -0.30    3.50
   1   3   2    1.20    3.00
   1   3   2    4.70    2.90
  -2  -3  -2   16.00    3.60
  -2  -3  -2   10.10    4.30
   2  -3   2   16.60    3.60
   2  -3   2   12.80    3.10
  -2  -3  -2   13.10    3.10
  -2   3  -2   10.90    4.40
   2   3   2   17.80    3.70
   2   3   2   13.00    3.20
  -3  -3  -2  757.02   45.90
  -3  -3  -2  771.92   45.90
  -3  -3  -2  755.92   46.50
   3  -3   2  769.82   45.50
   3   3   2  748.93   45.60
   3   3   2  797.22   45.90
   3   3   2  684.93   45.70
  -3   3  -2  769.92   46.70
   4  -3   2   24.40    4.30
  -4  -3  -2   22.40    5.90
   4  -3   2   21.60    5.80
  -4  -3  -2   19.80    5.40
  -4  -3  -2   22.60    4.40
   4  -3   2   36.40    5.00
  -4   3  -2   31.00    6.70
   4   3   2   23.60    4.60
   4   3   2   24.60    4.30
   4   3   2   17.90    4.70
  -5  -3  -2   47.00    8.20
  -5  -3  -2   63.59    8.10
   5  -3   2   57.39    8.40
  -5  -3  -2   55.39    8.00
   5  -3   2   73.19    8.10
   5   3   2   63.19    8.40
  -5   3  -2   90.09   13.20
   5   3   2   56.49    9.20
   5   3   2   69.09    8.40
  -6  -3  -2   92.89   13.60
  -6  -3  -2   81.99   14.10
   6  -3   2  109.69    9.80
   6  -3   2   77.19   10.40
  -6  -3  -2   78.19   10.20
  -6  -3  -2   86.49    7.60
  -6   3  -2  123.89   16.50
   6   3   2   88.59   11.00
   6   3   2   89.69   10.40
   6   3   2  116.29   10.40
  -7  -3  -2  280.87   20.30
  -7  -3  -2  260.57   18.30
  -7  -3  -2  336.37   23.90
  -7  -3  -2  268.57   23.70
   7  -3   2  307.77   19.90
   7  -3   2  254.77   23.30
  -7   3  -2  278.27   18.30
   7   3   2  278.97   20.50
  -7   3  -2  268.97   19.20
  -7   3  -2  330.97   25.20
   7   3   2  283.37   21.20
   8  -3   2   34.80    6.50
  -8  -3  -2   30.70   11.40
   8  -3   2   41.30    5.90
  -8  -3  -2   33.90   15.00
   8   3   2   26.00    7.10
   8   3   2   40.20    7.70
  -8   3  -2   46.60    7.90
   8   3   2   40.50    6.60
  -8   3  -2   30.80    7.00
  -8   3  -2   16.20   12.40
   9  -3   2   49.70    7.60
  -9  -3  -2   35.00   13.30
   9   3   2   32.40    8.20
  -9   3  -2   39.50   14.90
  -9   3  -2   45.10    7.80
  -9   3  -2   77.49   14.30
  10  -3   2   59.19    8.50
 -10  -3  -2   43.30   15.90
  10  -3   2   76.69   12.20
 -10   3  -2   95.79   17.50
  10   3   2   32.00    9.00
 -10   3  -2   38.40   17.20
 -11  -3  -2   49.70   17.70
  11  -3   2   55.49    9.50
 -11  -3  -2   67.09   16.00
 -11   3  -2   49.40   20.30
 -12  -3  -2   -2.80   19.40
  12  -3   2   -0.70    8.90
 -12  -3  -2   -4.00   14.90
 -12   3  -2    6.00   21.10
  12   3   2    8.10    8.80
  10  -4  -2    6.30    7.30
 -10  -4   2   -4.50   14.00
  -9  -4   2   11.90   12.80
  -9  -4   2   12.30   11.70
   9  -4  -2   12.50    7.10
  -9   4   2   10.70   13.00
   8  -4  -2   12.90    7.10
  -8  -4   2    2.90   10.00
  -8  -4   2   14.70   12.30
  -8   4   2   17.40   11.20
  -7  -4   2   77.49   12.10
  -7  -4   2   88.49   12.00
   7  -4  -2   86.79   12.10
  -7  -4   2  111.19   19.20
  -6  -4   2   33.80    6.20
   6  -4  -2   28.40    6.80
  -6  -4   2   26.10    8.40
  -6  -4   2   33.30   10.00
  -6   4   2   43.10    9.60
  -5  -4   2    0.70    5.90
  -5  -4   2   14.50    7.90
  -5  -4   2    9.60    4.70
  -5  -4   2    7.30    6.40
   5  -4  -2    8.00    5.60
  -5   4   2   12.80    7.20
  -4  -4   2   89.39   10.90
  -4  -4   2   69.99   12.40
  -4  -4   2   67.09   10.70
   4  -4  -2   76.59   11.40
   4  -4  -2   85.69   10.60
  -4  -4   2   93.79    9.20
  -4   4   2   96.59   10.70
  -3  -4   2  218.18   18.30
   3  -4  -2  270.87   20.50
  -3  -4   2  296.07   17.60
  -3  -4   2  255.47   18.20
   3  -4  -2  211.68   19.00
  -3  -4   2  270.07   18.60
  -3   4   2  264.07   17.70
   2  -4  -2  289.47   22.80
  -2  -4   2  292.57   18.00
  -2  -4   2  282.47   18.60
  -2  -4   2  245.08   17.80
  -2  -4   2  250.47   19.40
   2  -4  -2  290.87   20.10
  -2   4   2  256.17   17.60
  -1  -4   2   -3.80    4.00
  -1  -4   2    4.40    3.40
   1  -4  -2   -2.80    4.80
  -1  -4   2    3.70    5.70
  -1   4   2    4.40    2.80
   0  -4   2   26.10    4.30
   0  -4  -2   27.60    7.10
   0  -4   2   27.80    4.80
   0  -4  -2   28.40    5.80
   0   4  -2   29.80    5.10
   1  -4   2  357.16   23.80
  -1  -4  -2  375.26   25.30
  -1  -4  -2  384.66   24.80
   1  -4   2  395.06   23.90
  -1   4  -2  353.66   24.10
   2  -4   2  196.58   14.40
  -2  -4  -2  204.18   15.20
   2  -4   2  195.38   14.70
  -2   4  -2  195.58   15.20
  -3  -4  -2   66.69    9.00
   3  -4   2   78.49    9.90
  -3  -4  -2   53.69    8.50
   3  -4   2   78.79    9.10
   3   4   2   65.99    7.00
  -3   4  -2   83.09   11.40
  -4  -4  -2   49.70    9.00
   4  -4   2   47.90    9.40
  -4  -4  -2   71.39    9.40
  -4  -4  -2   64.59    9.60
   4  -4   2   70.89   11.30
  -4   4  -2   67.49   12.80
  -5  -4  -2  211.08   16.60
  -5  -4  -2  161.48   18.30
   5  -4   2  182.98   17.80
  -5   4  -2  210.08   18.20
  -6  -4  -2  125.39   16.80
   6  -4   2  137.29   17.90
  -6  -4  -2  137.49   18.70
   6  -4   2  155.98   14.30
  -6   4  -2  172.88   21.00
  -7  -4  -2   63.79   11.90
   7  -4   2   97.09   12.60
  -7  -4  -2   71.29   13.20
  -8  -4  -2   28.60   11.80
  -8  -4  -2   22.90   12.60
   8  -4   2   38.00    7.80
  -8   4  -2   39.80   14.30
  -9  -4  -2   18.00   13.10
   9  -4   2   25.40    8.10
  -9  -4  -2   26.70   14.20
  -9   4  -2   35.20   16.00
   2  -5  -2   19.70    7.80
  -2  -5   2   30.00    7.10
  -1  -5   2    7.60    6.30
   1  -5  -2    2.60    6.90
   0  -5   2   11.10    6.40
   0  -5  -2   14.20    7.20
  -1  -5  -2   -1.10    7.40
   1  -5   2    8.20    6.60
 -16   0   3   -3.20   11.90
  16   0  -3   17.20   13.10
 -16   0   3   20.40   13.70
 -15   0   3   53.69   12.50
 -15   0   3   63.39   14.10
  14   0  -3   20.40   12.70
 -14   0   3    4.10   10.60
 -14   0   3   -4.80   10.80
 -13   0   3  231.18   21.00
 -13   0   3  226.28   23.00
 -12   0   3   -2.90    8.00
  12   0  -3    0.80   10.60
 -12   0   3   17.00    8.90
  11   0  -3 1054.89   66.19
 -11   0   3 1162.98   67.09
 -11   0   3  979.90   68.99
  11   0  -3 1108.39   65.99
 -10   0   3  -10.90    7.70
 -10   0   3    3.50    6.40
  10   0  -3    1.80    4.50
 -10   0   3   -4.90    5.70
  -9   0   3  555.64   35.10
   9   0  -3  560.04   34.60
  -9   0   3  529.25   35.30
   9   0  -3  534.05   34.40
   8   0  -3   -0.50    4.10
   8   0  -3    1.10    6.80
  -8   0   3   -0.20    4.10
  -8   0   3   -6.00    5.80
   8   0  -3   -2.80    3.60
  -8   0   3   -2.70    4.10
   7   0  -3 4687.23  266.17
   7   0  -3 4753.22  266.17
  -7   0   3 4514.15  266.07
  -7   0   3 4079.79  266.07
   6   0  -3   -2.30    2.90
   6   0  -3   -4.30    3.50
  -6   0   3    3.40    2.90
  -6   0   3   -1.50    2.50
   5   0  -3  524.15   30.70
  -5   0   3  488.85   30.60
   5   0  -3  501.25   30.70
  -5   0   3  503.15   30.60
   5   0  -3  473.75   30.90
  -4   0   3    3.30    2.20
  -4   0   3    2.00    1.60
   4   0  -3    3.00    2.00
   4   0  -3    0.20    1.50
  -4   0   3   -0.40    1.60
   4   0  -3    1.20    1.60
   3   0  -3 6392.36  352.66
   3   0  -3 6186.58  352.46
   3   0  -3 5081.09  352.16
  -3   0   3 6148.58  352.46
   2   0  -3   -0.20    0.80
   2   0  -3    0.80    1.10
  -2   0   3   -0.30    1.00
  -2   0   3    0.20    0.90
   2   0  -3   -0.30    0.80
  -1   0   3   -7.70    1.10
  -1   0   3   -8.20    0.90
   1   0  -3   -8.70    0.80
   1   0  -3   -7.10    0.90
  -1   0   3   -7.30    0.90
   1   0   3 4693.83  281.27
  -1   0  -3 4938.81  282.67
   1   0   3 4310.07  281.97
   1   0   3 5071.39  281.57
   2   0   3   -1.30    1.30
   2   0   3   -1.50    1.20
   2   0   3   -3.40    2.50
  -2   0  -3   -2.20    1.70
   2   0   3   -0.80    1.60
  -3   0  -3  780.12   47.10
   3   0   3  776.32   46.80
  -3   0  -3  807.52   48.50
  -3   0  -3  767.22   47.10
   3   0   3  787.92   46.90
  -3   0  -3  770.22   47.10
  -4   0  -3   -2.70    3.20
   4   0   3    1.30    2.00
  -4   0  -3   -1.40    2.70
  -4   0  -3   11.80    5.00
   4   0   3   -1.70    5.30
  -4   0  -3   -2.30    3.00
   4   0   3   -2.00    2.20
  -5   0  -3 3419.86  214.58
   5   0   3 3760.42  214.08
  -5   0  -3 3357.56  215.68
  -5   0  -3 3911.61  214.78
  -5   0  -3 3635.54  214.58
   5   0   3 3673.83  213.98
   6   0   3    4.00    2.90
  -6   0  -3    6.70    5.40
  -6   0  -3   -1.70    5.30
  -6   0  -3    0.60    5.10
  -6   0  -3   -3.10    4.60
   6   0   3   -0.50    7.20
   6   0   3   -1.20    3.30
   7   0   3 1135.29   65.89
  -7   0  -3  977.30   67.19
   7   0   3 1037.10   65.89
  -7   0  -3 1023.20   67.89
  -7   0  -3 1223.78   67.49
  -7   0  -3 1165.38   67.19
  -8   0  -3    6.70    7.60
  -8   0  -3    1.00    6.80
   8   0   3   -2.70    4.10
  -8   0  -3   15.30    8.10
  -8   0  -3   -7.70    6.80
   8   0   3    2.00    3.40
   8   0   3   11.30   10.30
  -9   0  -3  634.94   45.30
  -9   0  -3  760.52   45.80
  -9   0  -3  750.22   44.90
   9   0   3  577.64   42.00
  10   0   3   21.40   13.00
  10   0   3   -1.10    4.20
 -10   0  -3   12.60   10.50
 -10   0  -3    9.40   10.00
 -10   0  -3   -4.00    9.20
 -11   0  -3  372.76   31.60
 -11   0  -3  460.35   33.60
 -11   0  -3  358.26   35.20
 -12   0  -3   12.10   14.60
 -12   0  -3   -2.70   12.20
 -12   0  -3   18.50   14.40
  12   0   3   17.90   14.00
 -13   0  -3   49.10   16.60
 -13   0  -3   -3.90   13.50
  13   0   3    8.60   14.20
 -13   0  -3   18.70   17.10
 -14   0  -3   10.20   17.60
  14   0   3   27.40   15.00
 -14   0  -3   24.10   18.50
 -14   0  -3   -1.00   14.70
 -15   0  -3   40.40   21.50
 -16   1   3   37.70   13.90
 -15  -1   3  304.07   32.50
 -15  -1   3  305.37   27.50
  15   1  -3  369.76   29.80
 -15   1   3  262.17   29.90
 -15   1   3  342.97   29.20
 -14  -1   3    4.00   10.90
 -14  -1   3   21.10   12.10
  14  -1  -3   -3.10   11.60
 -14   1   3   14.40   11.10
 -14   1   3   11.30   10.40
  14   1  -3   40.40   11.40
  13  -1  -3   40.50   11.20
 -13  -1   3   35.40   12.70
 -13  -1   3   30.30    9.20
 -13   1   3   22.60   10.80
 -13   1   3   26.80   11.00
  12  -1  -3  161.68   17.00
  12  -1  -3  171.58   14.90
 -12  -1   3  136.29   17.40
 -12  -1   3  165.78   20.50
  12   1  -3  118.39   14.90
 -12   1   3  139.79   18.50
 -12   1   3  196.68   18.90
 -11  -1   3  824.22   52.99
  11  -1  -3  854.21   51.69
 -11  -1   3  815.62   54.19
  11  -1  -3  805.92   51.79
 -11  -1   3  784.32   53.39
  11   1  -3  823.62   51.39
 -11   1   3  910.41   53.19
 -10  -1   3  121.79   15.30
 -10  -1   3  158.18   15.40
  10  -1  -3  137.69   14.50
 -10  -1   3  185.58   17.60
  10  -1  -3  151.28   13.30
  10  -1  -3  163.68   13.50
 -10   1   3  162.88   15.40
  10   1  -3  144.99   13.60
 -10   1   3  154.28   15.60
  -9  -1   3    3.30    5.10
   9  -1  -3    5.10    4.30
  -9  -1   3    2.10    6.60
   9  -1  -3   -2.40    5.40
  -9  -1   3    3.00    5.90
   9  -1  -3    5.80    4.40
   9   1  -3    6.80    6.00
   9   1  -3   -2.10    4.40
  -9   1   3    9.10    5.70
   9   1  -3    0.80    4.60
  -9   1   3   -0.40    5.80
  -9   1   3    2.20    6.30
  -8  -1   3  803.22   50.19
   8  -1  -3  817.42   50.49
   8  -1  -3  824.02   49.70
  -8  -1   3  840.32   51.19
   8  -1  -3  845.62   49.90
   8   1  -3  792.92   50.09
  -8   1   3  756.42   50.19
   8   1  -3  830.62   49.80
  -8   1   3  845.52   50.39
  -7  -1   3 1504.65   91.99
   7  -1  -3 1535.25   90.99
   7  -1  -3 1637.94   91.79
  -7  -1   3 1562.04   91.49
   7  -1  -3 1629.84   91.29
   7   1  -3 1606.94   91.59
  -7   1   3 1262.97   91.69
  -7   1   3 1598.24   91.39
  -7   1   3 1425.16   91.39
   6  -1  -3  305.77   18.30
  -6  -1   3  290.07   19.20
   6  -1  -3  311.07   19.10
  -6  -1   3  289.27   18.70
   6  -1  -3  290.07   18.30
   6   1  -3  284.77   18.70
  -6   1   3  275.47   18.50
   6   1  -3  237.38   18.80
  -6   1   3  269.27   19.20
   6   1  -3  307.17   18.30
  -6   1   3  277.37   18.70
  -5  -1   3  798.62   47.40
   5  -1  -3  801.22   47.10
  -5  -1   3  768.32   47.40
  -5  -1   3  794.22   48.50
   5  -1  -3  839.62   47.10
  -5   1   3  788.22   47.40
   5   1  -3  779.92   46.90
  -5   1   3  802.82   47.20
   5   1  -3  670.13   47.30
   5   1  -3  822.82   47.40
   4  -1  -3 1286.27   77.99
  -4  -1   3 1213.48   77.99
  -4  -1   3 1506.05   78.79
   4  -1  -3 1334.27   77.89
   4  -1  -3 1353.56   78.29
  -4  -1   3 1281.37   78.09
   4   1  -3 1285.27   77.79
   4   1  -3 1304.27   78.09
  -4   1   3 1294.77   78.19
  -4   1   3 1349.96   77.89
  -4   1   3 1327.17   78.29
   4   1  -3 1263.87   77.59
  -3  -1   3  488.15   30.10
   3  -1  -3  516.15   30.60
   3  -1  -3  500.75   30.10
  -3  -1   3  565.54   30.50
   3  -1  -3  482.55   30.40
  -3  -1   3  518.75   30.50
  -3   1   3  499.35   30.50
  -3   1   3  489.45   30.50
   3   1  -3  496.95   30.40
   2  -1  -3  841.42   47.70
   2  -1  -3  787.42   47.60
  -2  -1   3  800.62   47.70
  -2  -1   3  804.92   47.60
  -2   1   3  795.32   47.70
   2   1  -3  806.22   47.50
  -2   1   3  774.62   47.30
  -1  -1   3 2503.95  149.79
   1  -1  -3 2483.85  149.79
   1  -1  -3 2542.25  150.08
  -1  -1   3 2579.14  149.69
  -1   1   3 2538.15  150.38
  -1   1   3 2637.34  150.38
   1   1  -3 2506.85  150.58
   0  -1  -3 1847.42  105.79
   0  -1  -3 1796.22  105.69
   0  -1   3 1817.12  105.79
   0   1  -3 1804.12  105.79
   0   1   3 1776.32  105.49
   0   1   3 1699.03  105.69
   0   1   3 1792.92  105.49
  -1  -1  -3 1016.30   59.49
  -1  -1  -3  981.10   58.99
   1  -1   3 1054.59   59.09
   1  -1   3  972.10   59.09
   1  -1   3 1007.80   59.59
  -1  -1  -3 1022.30   59.59
   1   1   3 1007.10   59.49
  -1   1  -3  974.90   59.59
   1   1   3  984.90   59.39
   1   1   3  998.50   59.49
  -2  -1  -3  644.24   37.80
  -2  -1  -3  653.93   38.20
   2  -1   3  608.64   38.30
   2  -1   3  652.23   38.00
   2  -1   3  547.85   38.10
  -2  -1  -3  635.14   38.30
  -2  -1  -3  647.54   38.50
   2  -1   3  666.63   38.00
   2   1   3  602.74   38.20
   2   1   3  712.43   38.60
   2   1   3  658.63   38.30
  -2   1  -3  654.43   37.70
  -2   1  -3  593.34   37.70
  -2   1  -3  638.14   38.60
  -3  -1  -3  633.44   39.50
   3  -1   3  693.43   39.20
   3  -1   3  620.54   39.40
  -3  -1  -3  668.03   39.30
   3  -1   3  698.03   39.00
  -3  -1  -3  632.34   39.40
   3  -1   3  618.34   39.20
   3   1   3  693.43   39.30
  -3   1  -3  600.34   39.50
  -3   1  -3  629.84   39.00
   3   1   3  679.03   39.70
   3   1   3  647.14   39.20
   4  -1   3  577.64   33.10
  -4  -1  -3  557.94   33.20
  -4  -1  -3  538.05   33.60
  -4  -1  -3  498.55   32.80
   4  -1   3  539.45   32.60
  -4  -1  -3  507.95   33.30
   4   1   3  537.25   33.70
   4   1   3  572.14   33.80
  -4   1  -3  510.85   32.90
   4   1   3  558.84   32.90
  -4   1  -3  529.85   33.60
  -5  -1  -3 1927.41  120.09
  -5  -1  -3 2110.19  119.99
   5  -1   3 1991.40  119.19
  -5  -1  -3 1999.10  119.99
   5  -1   3 1774.32  120.99
  -5   1  -3 1946.21  119.69
   5   1   3 2071.99  120.49
   5   1   3 2100.79  119.59
  -5   1  -3 2023.10  119.59
   5   1   3 2179.38  119.49
   6  -1   3  320.27   19.80
  -6  -1  -3  311.77   21.60
  -6  -1  -3  294.77   21.70
   6  -1   3  352.06   20.80
  -6   1  -3  276.27   21.00
  -6   1  -3  281.67   21.40
   6   1   3  302.87   22.60
   6   1   3  319.97   20.20
   6   1   3  322.97   20.50
  -6   1  -3  304.07   22.50
  -7  -1  -3    3.40    6.70
  -7  -1  -3    3.10    5.90
  -7  -1  -3    0.50    6.30
   7  -1   3   -0.50    4.20
   7  -1   3    9.60    9.20
   7  -1   3    2.00    3.40
  -7   1  -3    1.70    5.60
   7   1   3   -1.20    7.40
  -7   1  -3    2.40    6.20
   7   1   3    2.80    3.80
  -7   1  -3   -3.80    7.30
   7   1   3   -0.40    3.80
   8  -1   3   23.00   11.10
  -8  -1  -3    6.40    7.40
  -8  -1  -3   -3.30    8.20
   8  -1   3    2.50    3.70
   8  -1   3   -4.10    4.50
  -8   1  -3    1.70    8.10
   8   1   3   -0.80    8.10
  -8   1  -3    4.50    7.30
   8   1   3   -0.70    4.10
   8   1   3    5.50    4.20
  -8   1  -3   -1.10    7.10
   9  -1   3 1651.23   92.59
  -9  -1  -3 1545.45   95.39
   9  -1   3 1430.86   91.79
  -9   1  -3 1747.03   94.69
   9   1   3 1488.35   92.09
   9   1   3 1487.55   94.89
   9   1   3 1397.46   91.99
 -10  -1  -3  487.05   32.60
 -10  -1  -3  426.36   35.00
 -10   1  -3  415.06   38.90
  10   1   3  378.46   33.20
 -10   1  -3  448.06   34.00
 -11  -1  -3  181.98   22.90
 -11  -1  -3  212.78   26.60
 -11   1  -3  212.68   26.80
  11   1   3  185.08   23.50
 -11   1  -3  182.78   23.00
 -11   1  -3  183.18   24.50
 -12  -1  -3   46.60   16.20
 -12  -1  -3   23.30   13.20
  12  -1   3   64.69   15.60
 -12   1  -3   36.30   14.00
 -12   1  -3   48.70   15.00
  12   1   3   46.00   13.60
 -12   1  -3   32.10   16.70
 -13  -1  -3  566.24   45.10
 -13  -1  -3  580.34   49.60
  13   1   3  555.84   44.10
 -13   1  -3  623.24   45.10
 -13   1  -3  610.64   47.50
 -13   1  -3  641.84   49.60
 -14  -1  -3   93.09   18.90
 -14  -1  -3  161.68   29.10
  14  -1   3  158.18   25.70
 -14  -1  -3   99.09   21.20
  14   1   3  174.18   26.90
 -14   1  -3  162.98   30.50
 -14   1  -3  112.89   23.70
 -14   1  -3  107.09   19.40
 -15  -2   3   38.20   14.90
 -15   2   3   28.50   14.60
 -14  -2   3   10.30   16.20
  14  -2  -3    8.00    8.10
 -14  -2   3    1.10   12.20
 -14   2   3    6.80   12.00
 -14   2   3  -11.10   12.50
  14   2  -3   11.40    6.70
 -13  -2   3  214.88   21.60
  13  -2  -3  169.58   16.50
 -13   2   3  162.28   22.00
  12  -2  -3  110.59   13.60
  12  -2  -3   90.09   11.90
 -12  -2   3  124.89   17.70
 -12   2   3  129.29   18.30
 -12   2   3  131.89   17.50
  12   2  -3   85.19   12.90
  11  -2  -3   18.10    5.90
 -11  -2   3   17.60    9.40
  11  -2  -3   10.90    6.30
 -11  -2   3   35.30   12.70
 -11   2   3   11.20    8.90
 -11   2   3   20.50    8.70
  11   2  -3    2.80    6.00
  10  -2  -3   46.80    7.10
 -10  -2   3   36.60    8.20
 -10  -2   3   48.80    9.40
 -10  -2   3   60.29   12.40
  10  -2  -3   58.79    8.90
  10   2  -3   36.70    6.50
 -10   2   3   38.70    8.40
 -10   2   3   43.90    9.10
 -10   2   3   60.49    9.40
  10   2  -3   26.60    8.20
  -9  -2   3  148.09   18.30
   9  -2  -3  117.59   11.20
  -9  -2   3  128.39   14.00
  -9  -2   3  109.79   13.90
   9   2  -3  106.49   10.50
  -9   2   3  137.99   13.80
  -9   2   3  101.59   12.60
   9   2  -3   86.29   11.80
  -9   2   3  133.19   14.00
   8  -2  -3  723.83   43.60
   8  -2  -3  759.52   42.10
   8  -2  -3  700.93   41.90
  -8  -2   3  711.63   45.10
  -8  -2   3  604.54   43.10
  -8  -2   3  713.43   43.40
  -8   2   3  602.64   42.60
   8   2  -3  619.24   41.70
   8   2  -3  659.33   42.60
   8   2  -3  709.73   41.60
  -8   2   3  721.53   43.40
  -7  -2   3   39.80    6.40
   7  -2  -3   55.69    7.10
   7  -2  -3   48.10    6.50
  -7  -2   3   43.80    6.80
   7  -2  -3   50.39    8.90
  -7  -2   3   46.90    8.40
   7   2  -3   45.90    5.70
   7   2  -3   55.89    7.70
  -7   2   3   60.39    7.90
  -7   2   3   51.39    8.80
  -7   2   3   41.60    6.30
   7   2  -3   48.60    6.10
  -6  -2   3  324.57   26.00
  -6  -2   3  368.06   25.10
   6  -2  -3  407.36   23.70
  -6  -2   3  394.46   24.40
   6  -2  -3  406.46   25.20
   6  -2  -3  398.36   24.10
  -6   2   3  391.86   24.50
   6   2  -3  379.66   24.50
  -6   2   3  332.47   24.40
   6   2  -3  385.96   23.00
  -6   2   3  397.36   25.00
   6   2  -3  401.06   23.00
   5  -2  -3  115.69    8.80
  -5  -2   3  102.79    9.60
  -5  -2   3  102.59    8.20
   5  -2  -3  106.69    7.40
  -5  -2   3   79.39   10.70
   5  -2  -3  118.59    9.60
  -5   2   3  112.39    9.60
  -5   2   3  111.59    9.00
   5   2  -3  104.89    8.60
   4  -2  -3 1678.73   99.99
  -4  -2   3 1682.83   99.59
  -4  -2   3 1839.92  100.19
   4  -2  -3 1810.32  100.39
  -4  -2   3 1647.94  100.19
  -4   2   3 1652.63  100.19
   4   2  -3 1759.22   99.99
  -4   2   3 1407.16   99.59
  -4   2   3 1703.73  100.09
  -3  -2   3  232.98   15.00
   3  -2  -3  237.58   15.10
  -3  -2   3  243.68   14.10
   3  -2  -3  221.88   15.00
  -3  -2   3  222.48   15.00
  -3   2   3  231.28   15.20
   3   2  -3  228.08   14.60
  -2  -2   3 1223.08   73.59
   2  -2  -3 1274.27   73.79
  -2  -2   3 1230.68   73.09
  -2  -2   3 1270.47   73.79
   2   2  -3 1239.88   73.39
  -2   2   3 1172.08   73.69
  -2   2   3 1255.47   73.69
  -2   2   3 1262.27   73.79
  -1  -2   3  182.48   11.50
   1  -2  -3  184.68   12.10
  -1  -2   3  178.48   12.00
   1  -2  -3  178.38   11.90
   1   2  -3  168.58   11.80
  -1   2   3  184.28   12.00
  -1   2   3  182.68   11.30
  -1   2   3  185.88   12.00
   0  -2  -3 1379.86   82.19
   0  -2   3 1446.76   82.29
   0  -2   3 1160.58   81.59
   0  -2   3 1370.76   81.49
   0  -2  -3 1503.85   82.29
   0  -2   3 1342.27   81.69
   0   2   3 1399.46   82.09
   0   2  -3 1355.36   82.19
   0   2   3 1503.65   82.19
  -1  -2  -3 2050.39  119.89
  -1   2  -3 1951.10  119.89
   1   2   3 2033.60  119.69
   1   2   3 2062.69  119.79
  -2  -2  -3 1291.87   74.49
  -2  -2  -3 1310.57   74.19
   2  -2   3 1260.27   73.69
  -2  -2  -3 1272.97   74.09
   2  -2   3 1247.18   73.69
   2  -2   3 1287.17   74.49
   2  -2   3 1076.49   74.19
   2   2   3 1288.47   74.19
  -2   2  -3 1185.18   74.49
  -3  -2  -3  939.81   59.09
   3  -2   3  981.90   59.59
   3  -2   3  973.90   59.49
  -3  -2  -3  982.90   59.69
   3  -2   3 1014.60   58.79
  -3  -2  -3  974.60   59.49
   3  -2   3 1008.60   58.89
  -3   2  -3  976.00   59.89
   3   2   3 1049.79   59.49
   3   2   3 1046.70   59.39
   3   2   3  939.21   59.49
  -4  -2  -3  555.94   36.10
   4  -2   3  675.13   37.70
  -4  -2  -3  582.04   37.40
   4  -2   3  591.04   36.50
  -4  -2  -3  578.44   37.80
   4  -2   3  620.04   36.40
  -4  -2  -3  591.74   36.80
   4   2   3  649.74   37.00
  -4   2  -3  583.34   35.90
   4   2   3  639.74   37.60
   4   2   3  609.44   37.30
  -4   2  -3  567.84   35.80
  -4   2  -3  613.84   38.00
   5  -2   3  320.77   20.80
  -5  -2  -3  325.67   22.60
   5  -2   3  315.27   21.00
  -5  -2  -3  307.37   22.70
   5  -2   3  385.46   22.30
  -5  -2  -3  309.67   21.20
   5   2   3  356.16   22.50
  -5   2  -3  284.97   20.20
   5   2   3  339.87   21.30
   5   2   3  386.86   22.10
  -5   2  -3  295.67   20.80
  -5   2  -3  332.97   23.00
  -6  -2  -3  593.94   37.80
  -6  -2  -3  524.75   36.20
   6  -2   3  521.55   36.10
  -6  -2  -3  538.25   38.00
   6  -2   3  626.04   35.90
   6  -2   3  657.63   37.30
   6   2   3  665.73   37.00
  -6   2  -3  526.45   36.30
  -6   2  -3  577.24   38.40
   6   2   3  630.14   36.40
   6   2   3  571.14   37.70
  -7  -2  -3 1092.19   77.29
   7  -2   3 1258.47   75.69
  -7  -2  -3 1148.39   75.79
  -7  -2  -3 1449.95   77.49
   7  -2   3 1414.26   75.29
  -7   2  -3 1188.38   77.69
   7   2   3 1354.86   75.69
   7   2   3 1129.79   76.89
  -7   2  -3 1247.88   75.99
   8  -2   3   73.29   10.70
   8  -2   3   62.09   10.80
  -8  -2  -3   56.19    8.70
  -8  -2  -3   82.49   11.40
  -8  -2  -3   44.80   11.90
   8  -2   3   75.59    8.60
  -8   2  -3   81.19   14.10
  -8   2  -3   45.70    8.30
  -8   2  -3   65.19   12.90
   8   2   3   69.79    9.50
   8   2   3   91.79   10.00
   9  -2   3   69.29   10.00
  -9  -2  -3   74.49   13.40
  -9  -2  -3  104.89   16.40
   9  -2   3   85.99    9.50
   9  -2   3   64.59   12.70
   9   2   3   71.69   10.10
  -9   2  -3   88.69   15.60
  10  -2   3  154.88   18.30
 -10  -2  -3  149.69   19.70
 -10  -2  -3   88.29   16.40
  10  -2   3  105.89   11.50
 -10   2  -3  147.69   20.40
 -10   2  -3  115.69   19.20
 -11  -2  -3  259.67   32.50
 -11  -2  -3  342.47   31.00
 -11   2  -3  328.67   35.50
 -11   2  -3  366.66   30.70
 -12  -2  -3   16.40   16.20
 -12  -2  -3  -21.80   13.00
 -12   2  -3    9.00   18.80
 -12   2  -3    1.60   13.80
  12   2   3    3.80    9.70
 -13  -2  -3  114.89   22.10
  13  -2   3  133.29   25.20
 -13  -2  -3   76.09   18.50
 -13   2  -3  114.49   18.60
 -13   2  -3  102.39   25.00
 -13  -3   3   89.29   20.60
 -13  -3   3   57.19   14.30
  13  -3  -3   34.80    8.80
 -13   3   3   99.09   22.70
 -13   3   3   53.49   14.50
  12  -3  -3   91.89   13.50
 -12  -3   3  169.98   29.30
 -12  -3   3  111.89   15.90
 -12   3   3  110.69   15.70
 -12   3   3   90.39   14.80
 -11  -3   3   11.40   11.10
  11  -3  -3    6.70    6.10
 -11  -3   3   20.00   14.80
 -11   3   3   20.80   15.60
 -11   3   3  -13.30    9.00
 -11   3   3   22.10   11.00
  10  -3  -3  116.09   13.50
  10  -3  -3  134.99   13.20
 -10  -3   3  146.59   18.70
 -10  -3   3  167.78   23.90
 -10   3   3  177.38   19.20
 -10   3   3  173.98   23.60
 -10   3   3  102.19   15.70
  -9  -3   3  244.08   21.70
   9  -3  -3  251.17   17.60
  -9   3   3  175.88   17.70
  -9   3   3  239.38   25.70
  -9   3   3  233.48   18.20
  -8  -3   3   13.30    6.10
  -8  -3   3   26.10    7.10
  -8  -3   3   10.70    9.20
  -8  -3   3   29.40    9.00
   8  -3  -3   29.00    6.00
   8  -3  -3   28.80    4.30
   8   3  -3   25.10    6.20
  -8   3   3   36.20    6.40
  -8   3   3   18.00    5.10
  -8   3   3   26.90    7.90
  -8   3   3   19.70   11.00
  -7  -3   3   35.20    9.40
   7  -3  -3   52.69    5.40
  -7  -3   3   59.69    9.40
   7  -3  -3   56.19    8.60
  -7  -3   3   69.39    9.50
  -7  -3   3   49.30    8.60
   7  -3  -3   63.69    9.00
  -7   3   3   64.99   11.90
  -7   3   3   56.69    9.00
   7   3  -3   50.59    8.90
  -7   3   3   42.50   10.20
  -6  -3   3  106.69   11.10
   6  -3  -3  117.89   10.60
  -6  -3   3  110.59   10.00
  -6  -3   3  113.29   13.70
   6  -3  -3  123.09   12.40
  -6   3   3  111.29   14.20
  -6   3   3  107.89   12.40
   6   3  -3  121.99   10.40
  -6   3   3  122.59   10.80
  -5  -3   3 1031.30   59.99
  -5  -3   3  971.40   60.79
   5  -3  -3 1018.80   60.49
  -5  -3   3  873.61   60.39
   5  -3  -3 1022.20   59.79
  -5   3   3  985.40   60.29
  -5   3   3 1006.90   59.79
   5   3  -3 1043.60   59.69
  -5   3   3  969.20   60.89
  -4  -3   3    0.20    5.00
  -4  -3   3    9.10    2.70
  -4  -3   3    1.40    4.00
   4  -3  -3    4.30    4.10
   4  -3  -3    6.00    3.80
  -4  -3   3   -3.20    4.10
  -4   3   3    6.70    4.50
   4   3  -3    0.80    2.90
  -4   3   3    7.70    3.60
  -4   3   3   15.50    5.00
  -3  -3   3   21.90    4.20
   3  -3  -3   25.10    4.60
  -3  -3   3   28.50    4.40
   3  -3  -3   28.40    4.60
  -3  -3   3   25.80    4.80
  -3  -3   3   25.80    5.30
   3   3  -3   27.20    4.40
  -3   3   3   35.00    6.00
  -3   3   3   35.70    6.40
  -3   3   3   31.20    4.90
  -2  -3   3   74.89    6.10
  -2  -3   3   65.39    6.80
  -2  -3   3   74.09    8.30
   2  -3  -3   78.19    8.10
   2  -3  -3   85.09    7.90
  -2  -3   3   72.89    8.20
  -2   3   3   86.19    7.80
  -2   3   3   79.69    6.80
  -2   3   3   87.19    8.50
  -1  -3   3 1711.63  101.99
   1  -3  -3 1780.82  102.59
  -1  -3   3 1786.32  102.79
  -1  -3   3 1697.93  102.29
  -1  -3   3 1723.13  101.89
   1  -3  -3 1787.52  102.69
  -1   3   3 1601.14  101.79
  -1   3   3 1810.32  102.89
  -1   3   3 1776.42  102.49
   1   3  -3 1590.44  102.29
   0  -3   3   73.49    8.20
   0  -3   3   71.99    5.80
   0  -3   3   63.29    6.40
   0  -3  -3   58.89    6.90
   0  -3  -3   54.09    8.00
   0  -3   3   75.79    5.90
   0   3   3   56.89    7.30
   0   3  -3   76.69    7.60
   0   3   3   70.89    9.10
   1  -3   3   63.09    6.00
  -1  -3  -3   49.80    8.10
   1  -3   3   54.19    5.20
  -1  -3  -3   59.99    6.70
   1  -3   3   47.30    8.10
   1  -3   3   57.19    5.40
   1   3   3   50.39    5.20
   1   3   3   62.29    6.90
  -1   3  -3   57.59    7.60
   1   3   3   43.30    6.70
   2  -3   3    2.60    2.10
   2  -3   3    2.60    2.70
  -2  -3  -3    0.90    4.40
   2  -3   3    3.20    3.60
   2  -3   3    1.80    4.50
   2  -3   3    2.20    2.00
  -2  -3  -3    1.40    3.50
  -2   3  -3    2.40    4.50
   2   3   3    1.60    3.30
   2   3   3   -1.60    3.40
   2   3   3    3.40    3.20
   3  -3   3  945.51   60.29
   3  -3   3 1044.10   59.29
  -3  -3  -3 1009.40   59.69
   3  -3   3  898.31   58.79
   3  -3   3  988.60   58.99
  -3  -3  -3 1009.10   60.49
  -3  -3  -3 1024.60   59.69
   3   3   3  877.41   59.69
   3   3   3 1053.89   59.79
  -3   3  -3 1022.40   60.49
   3   3   3 1048.60   59.79
  -4  -3  -3  161.08   12.20
  -4  -3  -3  173.28   13.40
  -4  -3  -3  136.49   14.50
   4  -3   3  167.18   12.10
   4  -3   3  147.09   11.00
  -4   3  -3  185.18   14.90
   4   3   3  162.18   12.50
   4   3   3  154.98   12.60
   5  -3   3  134.89    9.90
  -5  -3  -3  105.79   13.90
   5  -3   3   89.59   13.60
  -5  -3  -3  125.09   10.90
  -5  -3  -3  126.29   12.90
   5  -3   3  127.69   10.60
   5   3   3  134.49   11.10
   5   3   3   95.39   11.70
   5   3   3  124.29   11.60
  -5   3  -3  126.69   14.40
  -6  -3  -3  110.79   11.90
  -6  -3  -3  146.59   15.10
   6  -3   3  130.79   11.60
  -6  -3  -3  119.19   15.90
  -6   3  -3  130.09   16.40
   6   3   3  131.39   11.60
   6   3   3  115.19   12.50
   6   3   3  112.49   12.90
  -7  -3  -3  183.58   21.10
   7  -3   3  226.38   17.10
  -7  -3  -3  218.58   16.20
  -7  -3  -3  253.27   21.20
   7  -3   3  260.37   16.40
   7   3   3  246.08   17.40
   7   3   3  234.08   18.50
   7   3   3  202.78   18.60
  -7   3  -3  226.48   23.00
  -8  -3  -3   37.60    7.30
  -8  -3  -3   26.80   10.70
  -8  -3  -3   12.20   10.90
   8  -3   3   22.90    6.40
   8   3   3   33.70    6.50
  -8   3  -3   25.40   12.30
   8   3   3   31.90    7.60
  -8   3  -3   21.20    4.60
  -8   3  -3   25.30    5.50
   8   3   3   20.70    7.90
  -9  -3  -3   55.19   13.40
   9  -3   3   39.30    7.60
  -9  -3  -3   22.40   13.90
   9   3   3   47.80    8.70
  -9   3  -3   42.50    8.30
   9   3   3   26.20    9.10
  -9   3  -3   32.90   14.70
 -10  -3  -3   30.10   16.10
  10  -3   3   46.00    8.60
 -10  -3  -3   55.89   14.30
  10   3   3    9.20   14.90
 -10   3  -3   45.80   18.60
 -11  -3  -3   49.50   18.50
  11  -3   3    9.70    8.90
 -11  -3  -3   33.90   14.90
 -11   3  -3   -4.90   19.40
  11   3   3   -4.30    8.30
  10  -4  -3    9.50    7.60
 -10  -4   3  -14.90   11.90
 -10  -4   3   29.50   14.20
 -10   4   3    6.10   14.40
   9  -4  -3   58.79    8.80
  -9  -4   3   84.29   15.10
  -9   4   3   70.59   15.00
  -8  -4   3   -6.60   11.40
  -8  -4   3   -3.70    9.50
   8  -4  -3    7.50    6.90
  -8   4   3    7.80   10.70
   7  -4  -3    9.20    6.30
  -7  -4   3   14.70   10.30
  -7  -4   3    7.40    8.90
  -6  -4   3   -4.50   10.90
  -6  -4   3   -4.50    7.10
  -6  -4   3   -5.70    4.90
  -6  -4   3    7.10    9.00
   6  -4  -3   -2.00    5.80
  -6   4   3   -3.80    7.50
  -6   4   3   14.60    8.40
  -5  -4   3   49.20    7.50
  -5  -4   3   37.40    5.70
  -5  -4   3   18.50    9.10
  -5  -4   3   34.00    7.30
   5  -4  -3   43.30    6.80
   5   4  -3   40.60    7.10
  -5   4   3   34.10    7.30
  -5   4   3   49.50    7.90
  -4  -4   3   -4.60    7.10
  -4  -4   3   13.30    6.10
  -4  -4   3   10.10    5.40
   4  -4  -3    7.40    5.30
  -4  -4   3   19.50    4.20
   4  -4  -3   17.40    9.20
  -4   4   3   10.70    5.80
  -4   4   3   12.40    5.70
  -3  -4   3   -1.10    4.50
  -3  -4   3   -4.30    5.50
  -3  -4   3   -6.70    5.80
   3  -4  -3    5.10    5.00
  -3  -4   3   10.30    3.80
   3  -4  -3   -0.40    5.30
  -3   4   3    2.10    4.80
  -3   4   3   -0.70    4.00
  -3   4   3    6.70    4.10
  -2  -4   3    7.70    5.90
  -2  -4   3    4.90    5.10
   2  -4  -3   17.80    5.00
  -2  -4   3   12.30    3.50
  -2  -4   3   13.30    4.40
   2  -4  -3    7.50    5.10
  -2   4   3   14.50    4.00
  -2   4   3   11.40    5.50
  -2   4   3   10.40    3.30
  -1  -4   3   -0.80    6.00
  -1  -4   3   -5.20    3.60
   1  -4  -3   -4.50    5.00
  -1  -4   3    1.80    3.20
   1  -4  -3    3.60    4.30
  -1   4   3    4.80    3.70
   0  -4  -3   -3.50    5.00
   0  -4  -3    2.50    4.10
   0  -4   3    4.60    3.40
   0  -4   3   -0.70    3.60
   0   4  -3    1.00    4.50
   0   4   3    7.90    3.60
   1  -4   3    4.70    4.00
  -1  -4  -3   -7.20    5.60
   1  -4   3    3.00    3.70
  -1  -4  -3    4.00    4.50
  -1   4  -3    4.70    5.00
   1   4   3    7.70    4.00
   2  -4   3   70.09    8.90
   2  -4   3   89.49    9.40
  -2  -4  -3   71.19   12.00
  -2  -4  -3   81.59   15.60
  -2   4  -3   87.99   10.90
   2   4   3   78.69    9.60
   3  -4   3   59.79    9.00
   3  -4   3   75.29    9.90
  -3  -4  -3   58.99    8.90
   3   4   3   56.99    8.00
  -3   4  -3   84.09   12.00
   4  -4   3   33.60    5.90
   4  -4   3   24.60    6.90
  -4  -4  -3   16.20    7.80
   4   4   3   16.00    7.00
  -5  -4  -3    8.50    8.40
   5  -4   3   10.60    7.30
   5  -4   3   12.70    5.90
  -5   4  -3   14.00    8.50
  -6  -4  -3   20.70   10.20
  -6  -4  -3   49.90    8.80
   6  -4   3   21.80    9.30
   6  -4   3   39.00    7.20
  -7  -4  -3   93.09   12.80
   7  -4   3   99.79   12.70
  -7  -4  -3   93.99   14.30
  -8  -4  -3   14.10   13.30
  -8  -4  -3   44.70   12.50
   8  -4   3   46.00    8.40
  -8   4  -3   72.19   15.70
   1  -5  -3    7.50    7.50
   0  -5  -3   94.39   13.60
 -16   0   4   12.30   13.00
  16   0  -4   33.10   13.90
 -16   0   4   19.50   13.00
 -15   0   4   16.00   12.00
  15   0  -4    7.70   12.90
 -15   0   4   14.00   11.60
 -14   0   4  290.27   27.30
 -14   0   4  335.87   26.10
 -13   0   4    1.10    9.20
 -13   0   4   -2.80    8.60
  13   0  -4   -2.70   11.50
 -12   0   4   37.70    9.30
 -12   0   4   31.50    9.60
  12   0  -4   68.69   12.80
 -11   0   4    1.90    6.20
  11   0  -4    0.60    5.10
 -11   0   4  -13.90   10.00
  11   0  -4   -7.50    5.90
 -10   0   4  213.98   17.10
  10   0  -4  227.18   16.70
  10   0  -4  222.98   17.00
 -10   0   4  217.78   18.00
  -9   0   4   -0.40    4.70
  -9   0   4    0.70    4.80
   9   0  -4    4.30    4.30
  -9   0   4  -12.70    7.20
   9   0  -4   -2.20    4.40
   9   0  -4   -2.20    7.10
  -8   0   4   18.90    4.70
   8   0  -4   10.50    4.40
   8   0  -4   26.50    4.70
   8   0  -4   22.80    5.80
  -8   0   4   19.10    4.50
   7   0  -4    1.20    3.30
  -7   0   4    0.90    4.60
   7   0  -4   -1.70    3.10
  -7   0   4   -3.40    3.10
   7   0  -4   -5.00    3.80
  -7   0   4    7.20    3.30
   6   0  -4  195.98   14.60
  -6   0   4  233.68   14.60
  -6   0   4  218.88   14.60
   6   0  -4  221.48   14.60
   6   0  -4  230.18   15.10
   5   0  -4    1.20    2.10
   5   0  -4    0.60    2.50
  -5   0   4   -0.60    2.10
   5   0  -4   -1.20    2.00
  -5   0   4    5.60    3.40
  -5   0   4    0.80    2.00
  -4   0   4  684.63   40.30
  -4   0   4  688.43   40.30
   4   0  -4  694.63   40.40
   4   0  -4  672.13   40.30
  -4   0   4  627.14   40.80
   4   0  -4  664.73   40.50
   3   0  -4   -0.60    1.20
   3   0  -4    0.30    1.20
   3   0  -4    0.80    1.40
  -3   0   4    0.30    1.30
  -3   0   4    0.00    1.20
  -3   0   4    1.50    1.70
   2   0  -4 3268.37  199.98
  -2   0   4 3348.96  199.68
  -2   0   4 3518.65  200.08
  -1   0   4    0.20    1.00
  -1   0   4    0.40    1.00
  -1   0   4    0.60    1.30
   0   0   4 2897.51  163.58
   0   0  -4 2935.21  164.48
   0   0  -4 2743.03  163.68
   0   0   4 2458.75  163.88
   0   0   4 2835.82  164.38
   1   0   4    1.00    1.50
  -1   0  -4   -1.40    1.30
   1   0   4   -1.10    1.90
  -1   0  -4   -3.60    1.80
  -1   0  -4   -1.00    1.40
   1   0   4   -0.90    1.20
   2   0   4 4005.50  266.37
  -2   0  -4 5198.98  266.77
  -2   0  -4 4287.47  266.47
   2   0   4 4378.06  266.87
   2   0   4 4628.84  267.37
  -2   0  -4 4605.24  267.37
  -3   0  -4   -2.70    2.60
  -3   0  -4    4.70    2.60
   3   0   4    0.20    4.10
   3   0   4   -1.70    2.10
  -3   0  -4   -5.00    3.80
   3   0   4   -1.70    1.80
   3   0   4    2.20    2.10
   4   0   4 2504.45  164.78
   4   0   4 2683.23  165.08
  -4   0  -4 2964.40  165.28
  -4   0  -4 2820.32  165.18
  -4   0  -4 2985.30  165.28
  -5   0  -4   -2.10    4.00
  -5   0  -4    4.90    6.10
   5   0   4    3.70    2.90
  -5   0  -4    0.20    4.40
   5   0   4    2.40    7.10
   5   0   4   -0.70    2.40
  -5   0  -4    0.90    3.50
   6   0   4 2940.91  171.58
  -6   0  -4 3109.39  172.68
  -6   0  -4 2974.00  172.48
  -6   0  -4 2610.44  173.38
   6   0   4 3015.80  171.68
  -6   0  -4 2751.92  172.38
  -7   0  -4   -3.00    5.80
   7   0   4   -2.80    8.80
  -7   0  -4    1.70    6.20
  -7   0  -4    3.20    6.10
   7   0   4    0.00    3.60
   7   0   4    2.90    3.50
  -7   0  -4   -4.30    6.60
  -8   0  -4 3079.69  175.68
   8   0   4 2553.64  173.38
  -8   0  -4 2735.83  174.88
   8   0   4 2698.13  173.28
  -8   0  -4 3151.38  175.08
  -8   0  -4 3345.27  175.58
  -9   0  -4   -2.80    8.20
   9   0   4    6.50    4.30
  -9   0  -4    3.80    9.30
  -9   0  -4    1.60    8.60
  -9   0  -4   12.20   10.20
   9   0   4   19.90   11.70
   9   0   4    4.10    5.00
 -10   0  -4  888.21   55.49
 -10   0  -4  802.82   55.99
  11   0   4   22.50   13.60
 -11   0  -4    5.20   12.00
 -11   0  -4    8.00   13.30
 -11   0  -4   -3.80   10.90
 -12   0  -4 1456.55   89.29
 -12   0  -4 1313.37   87.49
 -13   0  -4   25.70   15.20
 -13   0  -4    6.10   14.00
  13   0   4   16.70   14.90
 -13   0  -4    0.80   15.90
 -14   0  -4   53.79   19.40
 -14   0  -4   39.70   17.30
  14   0   4   70.89   16.70
 -14   0  -4   58.39   18.60
  16  -1  -4   53.09   14.30
 -16   1   4   43.60   14.00
 -16   1   4   15.50   13.90
  15  -1  -4   22.00   12.60
 -15  -1   4   19.50   13.30
 -15  -1   4   22.00   11.30
 -15   1   4   14.30   11.90
 -15   1   4   17.20   12.10
  15   1  -4   50.79   11.80
  14  -1  -4  715.33   44.50
 -14  -1   4  559.14   45.00
 -14  -1   4  557.64   43.40
 -14   1   4  636.74   43.70
  14   1  -4  683.93   43.40
  13  -1  -4  292.07   24.00
 -13  -1   4  277.77   27.00
 -13  -1   4  254.67   24.30
  13   1  -4  346.47   25.70
 -13   1   4  286.37   25.00
 -12  -1   4   29.90   10.10
  12  -1  -4   21.30    6.70
 -12  -1   4   17.10    8.10
  12  -1  -4   20.60    7.10
  12   1  -4    8.70    6.80
 -12   1   4   25.60    9.30
 -12   1   4   27.90    9.10
  12   1  -4   45.50    8.90
 -11  -1   4  169.58   27.20
  11  -1  -4  156.28   13.90
 -11  -1   4  167.48   17.70
 -11  -1   4  140.29   15.40
  11  -1  -4  145.09   14.00
 -11   1   4  184.58   16.60
  11   1  -4  115.19   13.50
 -11   1   4  156.78   16.30
 -10  -1   4 2772.12  167.48
  10  -1  -4 2863.91  166.08
  10  -1  -4 2801.12  166.38
  10  -1  -4 2723.83  166.78
 -10  -1   4 2724.03  167.68
 -10  -1   4 2619.64  166.48
  10   1  -4 2598.14  166.48
 -10   1   4 2653.23  166.58
 -10   1   4 3116.79  166.88
  10   1  -4 2695.23  166.08
  10   1  -4 3202.98  167.08
   9  -1  -4  926.41   55.59
   9  -1  -4  965.70   55.49
  -9  -1   4  753.32   56.49
  -9  -1   4  927.51   56.89
  -9  -1   4  900.21   55.89
   9  -1  -4  944.01   56.29
   9   1  -4  874.81   55.79
   9   1  -4  948.71   55.49
   9   1  -4  863.61   56.19
  -9   1   4  879.01   55.89
  -9   1   4 1036.50   56.19
   8  -1  -4  424.26   26.20
  -8  -1   4  401.86   26.50
  -8  -1   4  417.46   27.30
   8  -1  -4  405.36   26.80
   8  -1  -4  425.76   25.90
   8   1  -4  412.36   26.50
  -8   1   4  411.46   26.30
   8   1  -4  426.06   26.00
  -8   1   4  352.46   27.50
  -8   1   4  409.16   26.50
   7  -1  -4  421.56   25.10
   7  -1  -4  402.86   25.10
  -7  -1   4  403.06   25.80
  -7  -1   4  397.36   25.50
   7  -1  -4  419.76   25.70
   7   1  -4  407.86   24.90
  -7   1   4  371.06   26.30
   7   1  -4  400.36   25.50
  -7   1   4  384.56   25.20
  -7   1   4  382.46   25.40
  -6  -1   4 3965.90  238.98
  -6  -1   4 3561.74  238.88
   6  -1  -4 4126.59  238.88
   6  -1  -4 4307.27  239.28
   6  -1  -4 4455.65  238.98
  -6   1   4 4185.28  238.88
   6   1  -4 4035.70  238.58
  -6   1   4 3844.32  238.98
   6   1  -4 4010.80  239.18
  -6   1   4 4029.20  239.48
   5  -1  -4 1873.81  108.19
  -5  -1   4 1753.22  107.99
  -5  -1   4 1848.92  108.19
   5  -1  -4 1835.52  107.99
   5  -1  -4 1937.11  108.49
  -5   1   4 1894.51  108.49
   5   1  -4 1850.91  107.69
  -5   1   4 1816.02  108.29
   5   1  -4 1631.14  108.69
  -5   1   4 1819.52  107.99
   4  -1  -4 2379.76  138.69
   4  -1  -4 2326.27  138.89
   4  -1  -4 2372.46  139.09
  -4  -1   4 2270.37  138.89
  -4  -1   4 2146.09  138.59
   4   1  -4 2427.96  138.99
  -4   1   4 2342.97  138.69
  -4   1   4 2451.25  139.19
   4   1  -4 2329.17  138.49
  -4   1   4 2400.06  138.99
   4   1  -4 2444.86  138.59
  -3  -1   4  537.15   31.90
  -3  -1   4  522.55   31.60
   3  -1  -4  536.25   31.70
  -3  -1   4  506.05   31.20
  -3   1   4  508.15   31.80
   3   1  -4  549.35   31.70
  -3   1   4  526.45   31.40
  -3   1   4  520.05   31.70
   2  -1  -4 2856.91  168.48
  -2  -1   4 2828.52  168.58
  -2  -1   4 2880.91  168.38
   2  -1  -4 2811.52  168.28
  -2   1   4 2899.71  168.58
  -2   1   4 2905.71  168.98
   2   1  -4 2981.20  168.68
  -2   1   4 2678.93  168.28
   1  -1  -4  857.91   52.19
  -1  -1   4  884.51   52.19
   1  -1  -4  878.61   52.19
  -1  -1   4  878.31   52.09
   1   1  -4  867.51   52.19
  -1   1   4  892.81   52.19
   0  -1  -4 1520.05   85.59
   0  -1  -4 1420.26   85.49
   0  -1   4 1417.46   85.59
   0   1   4 1496.45   85.49
   0   1   4 1416.66   85.49
   0   1  -4 1436.86   85.59
   0   1   4 1395.06   85.29
  -1  -1  -4 1639.64   95.29
   1  -1   4 1384.36   94.99
  -1  -1  -4 1575.44   94.99
   1  -1   4 1639.24   95.29
  -1  -1  -4 1573.84   95.09
   1  -1   4 1682.33   94.79
   1   1   4 1805.22   95.29
  -1   1  -4 1555.74   95.29
   1   1   4 1634.24   95.29
   1   1   4 1611.54   95.09
   1   1   4 1599.14   94.79
  -2  -1  -4 1694.83  100.19
  -2  -1  -4 1759.52  100.09
   2  -1   4 1752.92  100.49
  -2  -1  -4 1727.03  100.39
   2  -1   4 1647.64  100.29
   2  -1   4 1717.43   99.89
  -2   1  -4 1691.93   99.59
   2   1   4 1764.32  100.49
   2   1   4 1775.52  100.19
  -2   1  -4 1452.25   99.59
   2   1   4 1670.53  100.09
  -2   1  -4 1636.84  100.39
  -3  -1  -4  989.00   62.39
  -3  -1  -4 1034.20   62.29
   3  -1   4 1057.99   61.89
  -3  -1  -4 1019.70   61.79
   3  -1   4 1033.60   62.29
  -3  -1  -4 1078.69   62.29
   3  -1   4 1082.19   61.89
   3   1   4 1110.49   62.69
  -3   1  -4 1065.79   62.59
  -3   1  -4  986.60   61.69
   3   1   4  993.80   61.99
  -4  -1  -4 1258.17   74.29
  -4  -1  -4 1226.68   74.39
  -4  -1  -4 1184.68   73.89
   4  -1   4 1338.67   73.99
  -4  -1  -4 1218.08   74.59
  -4   1  -4 1220.48   73.89
   4   1   4 1246.88   73.99
  -4   1  -4 1191.68   74.59
   4   1   4 1220.58   74.79
   4   1   4 1300.57   74.09
   5  -1   4  476.15   27.50
  -5  -1  -4  435.66   28.00
  -5  -1  -4  432.06   28.40
  -5  -1  -4  416.46   27.50
   5  -1   4  428.26   26.80
   5   1   4  431.86   29.00
   5   1   4  460.05   27.30
  -5   1  -4  428.56   28.60
   5   1   4  459.25   27.40
  -5   1  -4  400.56   27.50
   6  -1   4   10.80    3.20
  -6  -1  -4   11.90    5.40
  -6  -1  -4   17.50    5.60
   6  -1   4   15.30    4.20
  -6  -1  -4    3.90    6.00
  -6   1  -4   13.70    5.10
  -6   1  -4   19.40    7.00
   6   1   4   10.40    3.60
   6   1   4   10.00    7.00
  -6   1  -4   11.40    4.90
   6   1   4   19.40    4.10
   7  -1   4  349.47   21.50
  -7  -1  -4  373.06   23.10
  -7  -1  -4  276.17   22.90
  -7  -1  -4  341.77   23.80
   7  -1   4  300.17   20.70
   7   1   4  317.37   21.30
  -7   1  -4  286.67   23.70
  -7   1  -4  286.57   22.50
   7   1   4  341.37   21.20
  -7   1  -4  318.97   23.10
  -8  -1  -4  284.87   25.30
  -8  -1  -4  379.36   25.40
   8  -1   4  311.37   21.30
   8  -1   4  336.87   22.20
   8   1   4  313.57   21.80
  -8   1  -4  318.07   25.00
  -8   1  -4  358.06   26.40
   8   1   4  310.87   26.30
   8   1   4  313.17   21.90
  -8   1  -4  320.57   24.00
  -9  -1  -4   -1.50    9.30
   9  -1   4    6.80    4.50
   9  -1   4   11.30    5.30
  -9  -1  -4    4.50    7.40
  -9  -1  -4   18.20    9.40
  -9  -1  -4   -1.20    9.10
   9   1   4    7.90   11.60
  -9   1  -4   14.80    9.10
  -9   1  -4    4.80   11.00
   9   1   4    1.70    4.20
  -9   1  -4    5.40    8.80
   9   1   4    5.90    4.90
  -9   1  -4   -8.90    7.00
 -10  -1  -4  399.86   30.90
 -10  -1  -4  356.86   31.60
 -10   1  -4  435.56   31.40
  10   1   4  328.17   30.80
 -10   1  -4  443.86   33.30
 -10   1  -4  303.87   28.80
 -10   1  -4  380.76   30.10
  11  -1   4   11.70   14.00
 -11  -1  -4    6.00   13.10
 -11  -1  -4    5.00   11.90
 -11   1  -4  -17.10   11.40
  11   1   4   10.90   11.70
 -11   1  -4   21.20   12.70
 -11   1  -4   11.30   14.70
  12  -1   4   59.09   15.90
 -12  -1  -4   68.49   16.10
 -12  -1  -4   41.00   16.00
 -12  -1  -4   41.70   14.10
 -12   1  -4   29.70   13.40
 -12   1  -4   50.79   14.40
  12   1   4   40.90   14.20
 -12   1  -4   53.39   17.30
 -13  -1  -4   -0.40   14.20
 -13  -1  -4   20.00   16.70
 -13  -1  -4    2.50   15.80
  13  -1   4   17.20   14.60
 -13   1  -4   16.80   14.60
  13   1   4   32.60   14.30
 -13   1  -4   -8.30   18.80
 -13   1  -4   -6.70   14.70
 -14  -1  -4  170.58   29.50
 -14  -1  -4  195.08   34.00
  14  -1   4  234.98   29.40
 -14  -1  -4  121.39   21.20
  14   1   4  177.48   26.80
 -14   1  -4  190.98   30.00
 -14   1  -4  141.99   23.00
 -14   1  -4  202.38   37.40
 -15  -2   4   60.89   14.20
 -15  -2   4   61.19   18.60
 -15   2   4   63.59   14.50
 -15   2   4   52.29   14.70
 -14  -2   4   73.49   13.70
 -14   2   4   75.19   13.50
 -14   2   4   63.99   13.50
 -13  -2   4   -6.70   10.50
  13  -2  -4    0.90    6.00
 -13  -2   4   17.70   13.90
 -13   2   4   -2.50   10.30
 -13   2   4  -10.10   10.00
  13   2  -4    0.60    5.40
  13   2  -4  -12.10    6.70
 -12  -2   4  665.63   42.20
  12  -2  -4  555.14   39.30
 -12   2   4  651.53   42.50
 -11  -2   4  131.79   20.10
 -11  -2   4   82.79   13.30
  11  -2  -4   79.09   10.80
 -11  -2   4   95.99   15.20
  11  -2  -4   84.79   11.70
 -11   2   4   98.99   16.30
  11   2  -4   60.59   10.70
  10  -2  -4   28.80    5.90
 -10  -2   4   26.30    7.10
 -10  -2   4   28.40    8.20
 -10  -2   4   37.90   10.40
  10  -2  -4   23.60    5.50
  10   2  -4   18.10   10.30
 -10   2   4   23.20    8.00
  10   2  -4   26.80    5.20
 -10   2   4   33.30    8.00
 -10   2   4   22.80    8.20
  -9  -2   4   92.29   13.30
   9  -2  -4   79.49   14.90
   9  -2  -4  107.69   10.60
  -9  -2   4   96.29   12.10
  -9  -2   4  131.59   17.00
   9  -2  -4   87.49   13.00
  -9   2   4  117.29   13.10
   9   2  -4   96.79   11.90
  -9   2   4  124.29   13.50
  -9   2   4   96.09   12.50
  -8  -2   4  850.31   49.99
   8  -2  -4  764.62   47.30
  -8  -2   4  697.53   48.70
   8  -2  -4  835.62   47.40
  -8  -2   4  770.82   48.20
   8   2  -4  709.83   46.60
   8   2  -4  797.42   46.60
  -8   2   4  783.82   48.30
  -8   2   4  898.01   48.40
  -8   2   4  690.23   48.20
   8   2  -4  748.93   48.00
  -7  -2   4   49.40    7.10
  -7  -2   4   77.99   11.80
   7  -2  -4   52.39    6.70
  -7  -2   4   49.00    7.00
   7  -2  -4   65.49    7.50
   7  -2  -4   58.79    9.00
   7   2  -4   60.99    4.70
  -7   2   4   49.80    8.70
  -7   2   4   64.99    8.20
   7   2  -4   42.90    7.00
  -7   2   4   64.49    9.20
   7   2  -4   58.59    4.80
   6  -2  -4  128.99   10.50
  -6  -2   4  144.49   12.80
  -6  -2   4  127.29   11.10
   6  -2  -4  140.89   11.50
  -6  -2   4  116.89   10.70
   6  -2  -4  136.89    9.20
  -6   2   4  128.09   10.80
  -6   2   4  141.39   11.10
   6   2  -4  127.29   10.40
  -6   2   4  120.59   10.60
   5  -2  -4 1364.46   79.89
   5  -2  -4 1342.07   79.29
  -5  -2   4 1143.69   80.29
   5  -2  -4 1428.06   80.39
  -5  -2   4 1304.67   80.09
  -5  -2   4 1372.16   79.69
  -5  -2   4 1457.25   80.29
   5   2  -4 1413.76   79.99
  -5   2   4 1362.76   80.19
  -5   2   4 1331.07   80.19
  -5   2   4 1241.68   79.59
  -4  -2   4 1182.48   69.09
   4  -2  -4 1148.79   69.19
   4  -2  -4 1151.08   68.89
  -4  -2   4 1136.29   68.89
  -4  -2   4 1150.78   68.29
  -4   2   4 1146.99   68.99
   4   2  -4 1177.68   68.79
  -4   2   4 1145.99   68.99
  -3  -2   4  104.69    7.10
   3  -2  -4   97.29    8.10
  -3  -2   4  110.49    6.50
  -3  -2   4   96.69    7.80
   3  -2  -4  100.09    8.20
  -3   2   4  103.99    8.00
  -3   2   4   91.69    6.70
   3   2  -4   98.69    7.30
  -3   2   4  104.99    8.20
  -2  -2   4  663.23   40.40
   2  -2  -4  689.43   40.70
   2  -2  -4  696.83   40.80
  -2   2   4  682.73   40.70
  -2   2   4  634.24   39.90
  -2   2   4  682.13   40.70
  -1  -2   4 3222.48  190.78
   1  -2  -4 3361.46  191.08
   1  -2  -4 3418.26  191.18
  -1   2   4 3133.99  190.48
   1   2  -4 3285.77  191.08
  -1   2   4 3115.79  190.98
  -1   2   4 3406.56  191.08
  -1   2   4 2969.50  190.58
   0  -2   4  645.04   37.90
   0  -2   4  603.24   37.30
   0  -2  -4  624.64   37.70
   0  -2  -4  653.13   38.10
   0   2   4  652.53   37.80
   0   2   4  598.84   37.40
   0   2   4  610.14   37.70
   0   2  -4  605.14   37.80
   1  -2   4   80.39    6.20
  -1  -2  -4   76.89    7.60
   1  -2   4   74.19    7.40
   1  -2   4   75.39    5.70
  -1  -2  -4   87.29    6.90
   1   2   4   86.29    6.90
   1   2   4   86.99    7.20
  -1   2  -4   82.99    7.50
   1   2   4   82.39    7.40
  -2  -2  -4 1125.09   66.49
   2  -2   4 1137.19   66.89
  -2  -2  -4 1106.79   66.89
   2  -2   4 1116.29   65.99
   2  -2   4 1085.19   66.49
  -2   2  -4 1072.29   66.89
   2   2   4 1134.99   66.79
   2   2   4 1166.98   66.69
   2   2   4 1088.79   66.69
  -3  -2  -4 3110.69  181.68
   3  -2   4 2828.42  181.28
   3  -2   4 3121.99  181.48
  -3  -2  -4 3088.69  181.28
   3  -2   4 2779.72  180.78
   3  -2   4 2954.50  180.78
  -3  -2  -4 3084.69  181.18
   3   2   4 3264.57  181.38
  -3   2  -4 3110.79  181.78
   3   2   4 3339.57  181.68
  -4  -2  -4    7.50    2.30
   4  -2   4    3.00    4.00
  -4  -2  -4    0.90    3.10
  -4  -2  -4    8.70    4.40
  -4  -2  -4   -0.60    4.40
   4  -2   4    4.80    3.10
   4  -2   4    7.80    2.60
   4   2   4    1.30    4.80
   4   2   4    8.20    4.00
  -4   2  -4    7.60    5.10
   4   2   4    4.00    3.50
  -5  -2  -4   37.50    7.10
   5  -2   4   43.60    5.80
   5  -2   4   49.20    7.60
  -5  -2  -4   44.70    7.50
  -5  -2  -4   43.80    7.10
   5  -2   4   53.29    8.20
  -5  -2  -4   57.49    6.30
   5   2   4   63.89    8.40
   5   2   4   55.09    6.90
   5   2   4   48.10    7.50
  -5   2  -4   74.79   11.30
  -5   2  -4   43.80    4.90
   6  -2   4  253.87   18.40
  -6  -2  -4  256.77   17.90
  -6  -2  -4  224.08   17.80
  -6  -2  -4  251.37   20.70
   6  -2   4  271.67   17.20
  -6  -2  -4  289.07   20.40
  -6   2  -4  264.47   21.20
   6   2   4  269.27   17.80
  -6   2  -4  241.78   17.60
   6   2   4  255.27   20.50
   6   2   4  296.47   18.60
  -7  -2  -4 1981.00  109.29
   7  -2   4 1902.11  108.19
  -7  -2  -4 1621.84  109.39
  -7  -2  -4 1591.84  107.79
  -7  -2  -4 1885.11  107.79
   7  -2   4 1913.01  107.19
   7   2   4 1975.30  108.09
   7   2   4 1623.14  108.99
   7   2   4 1838.12  107.59
  -7   2  -4 1628.84  107.49
  -7   2  -4 1844.12  110.79
   8  -2   4   63.69    8.70
  -8  -2  -4   57.59   10.50
   8  -2   4   58.09   10.40
  -8  -2  -4   87.99   12.70
   8  -2   4   66.59    9.70
  -8  -2  -4   48.90   11.60
   8   2   4   74.89   10.20
  -8   2  -4   50.69   13.10
   8   2   4   31.70   10.20
   8   2   4   51.99    9.70
  -8   2  -4   55.49    8.70
   9  -2   4   50.09    8.50
  -9  -2  -4   43.40   12.70
   9  -2   4   49.30    6.50
  -9  -2  -4   67.99   11.90
  -9   2  -4   64.19   15.10
  -9   2  -4   61.09   10.00
   9   2   4   32.00   12.50
  10  -2   4  131.59   21.20
 -10  -2  -4   96.69   15.00
 -10  -2  -4   67.69   15.60
 -10  -2  -4  115.09   18.30
  10  -2   4   78.59   10.20
  10   2   4   49.30   12.00
 -10   2  -4  116.19   18.30
 -10   2  -4   93.79   18.00
 -11  -2  -4  794.32   50.29
 -11  -2  -4  584.34   51.19
 -11   2  -4  662.73   47.70
 -11   2  -4  714.03   53.09
 -12  -2  -4  246.78   29.20
 -12  -2  -4  270.37   29.20
  12  -2   4  298.97   29.30
 -12  -2  -4  184.88   34.00
 -12   2  -4  175.58   34.70
 -12   2  -4  194.38   28.10
  13  -2   4   48.20   15.70
 -13  -2  -4   30.50   17.20
 -13  -2  -4   43.90   16.40
 -13  -2  -4   64.79   22.40
 -13   2  -4   45.30   24.00
 -13   2  -4   61.09   16.00
  13  -3  -4   30.20    8.50
 -13  -3   4   37.50   12.20
 -13  -3   4   79.69   19.90
 -13   3   4   26.10   13.90
 -12  -3   4   70.29   17.90
 -12  -3   4   66.19   13.70
  12  -3  -4   43.70    7.80
 -12   3   4   51.29   14.00
 -12   3   4   59.69   12.90
  11  -3  -4   19.10    6.50
 -11  -3   4   32.00   14.40
 -11  -3   4   11.20   11.00
 -11   3   4   54.89   16.20
 -11   3   4   13.30    9.30
 -11   3   4   27.40   10.70
 -10  -3   4    7.30   12.20
  10  -3  -4    3.50    5.50
 -10  -3   4   -0.20    9.50
  10  -3  -4    4.10    5.80
 -10   3   4   25.50   12.80
  -9  -3   4  175.88   22.00
   9  -3  -4  208.08   15.60
  -9  -3   4  176.28   16.80
  -9  -3   4  208.68   19.90
  -9   3   4  217.48   23.70
  -9   3   4  192.48   19.20
  -9   3   4  169.98   16.80
   8  -3  -4    2.40    5.20
  -8  -3   4    0.20    5.40
  -8  -3   4   -6.30    8.70
  -8  -3   4    0.80    7.10
   8  -3  -4    8.70    3.20
  -8   3   4    3.30    9.90
  -8   3   4    8.00    6.70
   8   3  -4   -7.40    5.10
  -8   3   4   -8.00    4.80
  -8   3   4   11.00    5.40
  -7  -3   4   30.90    6.50
  -7  -3   4   25.10    7.30
   7  -3  -4   34.60    7.30
   7  -3  -4   49.50    8.20
  -7  -3   4   15.70    7.80
  -7   3   4   28.70    6.90
  -7   3   4    9.60    9.10
  -7   3   4   32.60    6.10
   7   3  -4   29.90    5.70
  -7   3   4   23.80    4.20
   6  -3  -4   90.79   10.20
  -6  -3   4   83.89   10.00
   6  -3  -4   74.89   11.00
  -6  -3   4   70.39   11.40
  -6  -3   4   66.99    7.80
  -6   3   4   78.49   11.00
  -6   3   4   76.29    9.30
  -6   3   4   69.59   10.50
   6   3  -4   85.99    8.60
  -5  -3   4  532.15   32.10
  -5  -3   4  496.35   32.70
   5  -3  -4  516.45   31.70
  -5  -3   4  521.15   31.00
   5  -3  -4  513.45   32.30
  -5   3   4  494.95   31.80
  -5   3   4  459.55   32.70
   5   3  -4  519.85   31.40
  -5   3   4  501.45   32.30
  -4  -3   4  162.08   12.60
   4  -3  -4  162.28   12.40
  -4  -3   4  172.98   10.90
  -4  -3   4  159.28   13.30
   4  -3  -4  168.28   13.00
  -4  -3   4  139.09   12.40
  -4   3   4  162.28   12.30
  -4   3   4  161.78   13.30
   4   3  -4  162.18   11.40
  -4   3   4  163.28   13.10
   3  -3  -4   17.80    4.40
  -3  -3   4   13.70    4.60
  -3  -3   4   21.00    4.70
  -3  -3   4   13.50    3.60
   3  -3  -4   20.80    4.30
  -3  -3   4   17.80    2.70
  -3   3   4   18.90    4.20
  -3   3   4   17.50    4.10
  -3   3   4   20.90    4.70
   2  -3  -4  381.86   24.50
   2  -3  -4  383.86   24.40
  -2  -3   4  366.86   24.50
  -2  -3   4  387.06   23.40
  -2  -3   4  380.26   23.10
  -2  -3   4  378.86   24.20
  -2   3   4  398.46   24.50
  -2   3   4  365.56   23.40
  -2   3   4  402.16   24.40
  -1  -3   4  850.51   51.19
   1  -3  -4  855.11   51.09
  -1  -3   4  816.52   49.90
  -1  -3   4  825.62   49.99
   1  -3  -4  857.81   50.99
  -1  -3   4  856.71   50.59
  -1   3   4  883.71   50.89
  -1   3   4  852.11   50.89
   1   3  -4  784.12   50.69
   0  -3  -4  295.67   19.40
   0  -3   4  292.67   18.20
   0  -3   4  303.27   18.40
   0  -3   4  291.67   18.70
   0  -3   4  299.67   20.00
   0  -3  -4  302.17   20.00
   0   3   4  300.97   19.40
   0   3   4  310.57   19.40
   0   3  -4  279.87   19.50
  -1  -3  -4  121.79   10.10
   1  -3   4  128.49    8.50
   1  -3   4  124.29    8.70
   1  -3   4  128.99    9.50
   1  -3   4  117.69   10.90
  -1  -3  -4  112.99   11.20
   1   3   4  114.89   10.10
   1   3   4  130.99   10.30
  -1   3  -4  123.79   10.90
   1   3   4   99.19    9.10
  -2  -3  -4  397.96   24.40
   2  -3   4  358.06   24.50
  -2  -3  -4  380.26   25.00
   2  -3   4  405.06   23.40
   2  -3   4  388.76   23.50
   2  -3   4  375.46   25.10
   2  -3   4  352.76   23.30
   2   3   4  395.66   24.50
  -2   3  -4  366.46   25.10
   2   3   4  398.66   24.60
   3  -3   4  136.69   13.60
   3  -3   4  166.18   11.10
  -3  -3  -4  155.48   14.00
   3  -3   4  171.78   11.80
  -3  -3  -4  157.08   12.50
   3   3   4  168.08   13.20
   3   3   4  175.98   12.70
  -3   3  -4  171.28   14.30
  -4  -3  -4  490.65   29.70
   4  -3   4  418.66   30.40
  -4  -3  -4  442.56   30.80
  -4  -3  -4  486.75   29.50
   4  -3   4  474.95   28.90
   4   3   4  490.05   29.50
   4   3   4  468.15   29.90
  -4   3  -4  486.65   31.00
   4   3   4  403.56   29.60
   5  -3   4  152.48   12.40
  -5  -3  -4  122.39   16.00
   5  -3   4  172.18   11.80
  -5  -3  -4  141.09   14.40
  -5  -3  -4  155.78   13.10
   5   3   4  161.38   12.80
   5   3   4  144.79   13.90
   5   3   4  162.98   13.80
   6  -3   4  426.86   25.00
   6  -3   4  372.46   31.70
  -6  -3  -4  317.77   28.20
  -6  -3  -4  371.86   27.40
   6  -3   4  378.06   25.60
   6   3   4  365.16   27.10
   6   3   4  406.26   25.90
  -6   3  -4  405.96   29.80
   6   3   4  448.16   26.90
   7  -3   4    6.00    5.60
   7  -3   4  -11.40    9.80
  -7  -3  -4   -4.70    9.10
   7  -3   4    8.20    4.60
  -7  -3  -4    3.40    8.40
   7   3   4    0.80    7.40
   7   3   4    0.00    4.90
   7   3   4   12.20    6.40
  -7   3  -4   -3.60    9.80
  -8  -3  -4  253.07   24.40
  -8  -3  -4  194.58   25.20
   8  -3   4  287.17   18.10
   8  -3   4  259.97   22.10
   8  -3   4  233.98   19.20
  -8  -3  -4  235.48   18.00
  -8   3  -4  240.28   27.00
   8   3   4  270.47   20.40
   9  -3   4   34.20    8.20
  -9  -3  -4   10.60   13.70
  -9  -3  -4   26.50   12.40
   9  -3   4   62.79    9.50
  -9  -3  -4   39.90    8.50
   9   3   4   14.30   10.80
  -9   3  -4   14.10   14.80
 -10  -3  -4  225.78   32.60
  10  -3   4  304.87   24.00
 -10  -3  -4  363.26   31.00
 -10   3  -4  307.97   37.40
 -11  -3  -4  -15.10   15.20
 -11  -3  -4   -1.80   17.00
  11  -3   4   20.10   11.50
 -11   3  -4   -1.30   19.30
  11   3   4    2.20    9.60
 -10  -4   4    2.10   12.90
 -10  -4   4  -17.10   11.70
  10  -4  -4   -0.50    7.50
 -10   4   4   -5.40   13.50
   9  -4  -4   58.29    9.00
  -9  -4   4   71.49   14.30
  -9  -4   4   33.30   12.00
  -9   4   4   43.80   13.70
  -8  -4   4  177.18   23.40
   8  -4  -4  199.68   17.40
  -8   4   4  198.18   22.40
  -7  -4   4  122.69   20.90
   7  -4  -4  150.18   14.30
  -7   4   4  153.48   18.30
  -7   4   4  155.78   17.90
  -6  -4   4   35.10    8.50
  -6  -4   4   36.10    8.00
   6  -4  -4   40.90    7.30
  -6  -4   4   43.60   10.40
  -6   4   4   47.10    8.70
  -5  -4   4   43.90    9.90
  -5  -4   4   51.69    7.70
  -5  -4   4   55.39    8.50
   5  -4  -4   48.00    7.40
  -5  -4   4   60.89    8.10
  -5   4   4   46.10    8.00
  -5   4   4   72.19   11.30
  -4  -4   4  264.67   18.10
   4  -4  -4  265.87   18.80
  -4  -4   4  221.18   20.70
  -4  -4   4  221.28   19.20
  -4  -4   4  278.07   16.90
  -4   4   4  267.67   18.10
  -4   4   4  260.37   17.80
  -4   4   4  213.48   18.80
  -3  -4   4  214.18   17.40
  -3  -4   4  175.88   17.60
  -3  -4   4  230.28   15.40
   3  -4  -4  238.68   17.00
  -3   4   4  237.78   15.90
  -3   4   4  198.88   16.60
  -3   4   4  212.58   14.60
   2  -4  -4  107.49   12.60
  -2  -4   4   79.69   11.70
  -2  -4   4   62.19    8.40
  -2  -4   4   96.69    7.70
   2  -4  -4   80.69   10.10
  -2  -4   4   92.89    8.70
  -2   4   4   93.59    9.80
  -2   4   4   76.29    6.60
  -2   4   4   87.69   10.70
  -1  -4   4    7.50    4.90
  -1  -4   4   17.00    6.60
   1  -4  -4    7.60    5.30
  -1  -4   4   12.00    3.30
  -1  -4   4    8.70    3.60
   1  -4  -4    7.80    4.70
  -1   4   4   14.00    4.90
  -1   4   4    4.70    4.90
   0  -4   4   88.19   12.30
   0  -4  -4  117.09   10.80
   0  -4   4   96.79    8.60
   0  -4   4  101.79    8.70
   0  -4   4   84.09    9.60
   0  -4  -4   95.09   11.90
   0   4   4   83.29   10.60
   0   4  -4  100.39   10.50
   0   4   4  121.29   10.30
   1  -4   4  192.98   13.20
   1  -4   4  155.48   14.10
  -1  -4  -4  173.68   15.80
  -1   4  -4  184.28   15.00
   1   4   4  200.88   14.30
   1   4   4  180.68   14.20
   2  -4   4   48.50    7.90
   2  -4   4   47.40    8.40
  -2  -4  -4   34.30    7.90
   2   4   4   35.70    6.00
   2   4   4   50.99    9.00
  -2   4  -4   48.30    8.30
  -3  -4  -4   11.90    7.20
   3  -4   4    3.80    4.90
   3  -4   4   18.00    5.70
   3   4   4    8.20    4.90
  -3   4  -4   10.50    7.20
   4  -4   4   10.80    6.40
   4  -4   4    9.60    5.40
  -4  -4  -4   -4.70    7.60
   4   4   4    4.00    5.30
  -4   4  -4    7.90    7.70
   5  -4   4   48.30    7.30
  -5  -4  -4   35.20   10.10
  -5   4  -4   56.59   10.40
   5   4   4   34.00   10.10
  -6  -4  -4   -4.60    9.90
   6  -4   4   -1.90    6.10
  -6   4  -4   10.10   10.10
  -7  -4  -4    5.40   11.20
   7  -4   4    6.70    6.70
  -7   4  -4   26.20   12.80
  -8  -4  -4    0.10   10.90
  -8  -4  -4   -4.70   13.50
   8  -4   4   -4.00    7.30
  -8   4  -4   18.50   15.40
 -16   0   5    2.90   12.00
 -16   0   5   19.50   12.50
  16   0  -5   15.00   13.10
 -15   0   5   34.20   12.10
 -15   0   5   37.20   11.60
  14   0  -5    9.30   11.90
 -14   0   5    3.80    9.50
 -14   0   5    4.70    9.60
 -13   0   5  829.92   55.59
 -13   0   5  895.41   55.09
 -12   0   5    3.70    6.50
 -12   0   5    4.10    7.50
 -11   0   5  245.38   17.90
  11   0  -5  224.88   17.60
  11   0  -5  219.58   18.50
  10   0  -5    0.80    4.40
  10   0  -5   -2.10    5.00
 -10   0   5   -2.50    5.30
 -10   0   5    0.00    5.10
  10   0  -5    5.90    8.10
  -9   0   5 2370.46  154.08
   9   0  -5 2693.93  154.38
  -9   0   5 2538.95  154.08
   9   0  -5 2778.12  154.28
   8   0  -5    1.90    3.60
   8   0  -5   -2.90    3.30
  -8   0   5   -6.20    6.00
   8   0  -5    0.30    4.50
  -8   0   5    3.70    4.00
  -8   0   5   -0.60    3.30
   7   0  -5 2277.37  125.29
  -7   0   5 2030.10  124.99
  -7   0   5 2046.80  124.89
   7   0  -5 2069.69  125.09
   7   0  -5 2116.39  125.09
   6   0  -5   -2.70    2.40
   6   0  -5    0.90    2.90
  -6   0   5    3.30    2.50
  -6   0   5   -3.70    2.50
  -6   0   5    9.90    4.80
  -5   0   5 1873.01  121.69
  -5   0   5 2029.90  120.99
  -5   0   5 2103.69  121.09
   5   0  -5 2119.49  121.19
   5   0  -5 2042.80  121.19
   5   0  -5 2120.59  121.09
   4   0  -5    0.50    1.60
  -4   0   5    1.60    1.70
   4   0  -5   -0.50    1.70
  -4   0   5    1.90    1.60
   4   0  -5    1.30    1.90
  -4   0   5    4.60    2.40
  -3   0   5 3115.59  179.28
  -3   0   5 3127.99  179.38
   3   0  -5 2811.42  178.98
   3   0  -5 3082.39  179.58
   3   0  -5 2908.11  179.68
  -3   0   5 3204.98  180.38
  -2   0   5   -2.30    1.30
  -2   0   5   -3.40    1.20
   2   0  -5   -2.70    1.10
   2   0  -5   -2.70    1.40
  -1   0   5  367.06   23.00
  -1   0   5  379.26   23.00
   1   0  -5  381.26   22.90
   1   0  -5  390.56   22.90
  -1   0   5  377.06   22.90
   0   0  -5   -3.10    1.50
   0   0   5   -0.10    1.50
   0   0   5   -3.50    1.20
   0   0  -5   -3.10    1.30
   0   0  -5   -4.20    1.70
   0   0   5   -2.40    1.40
   1   0   5  839.42   49.40
  -1   0  -5  830.92   49.00
   1   0   5  856.51   49.00
  -1   0  -5  834.32   49.40
   1   0   5  783.62   49.00
  -1   0  -5  785.92   49.10
   2   0   5   -0.40    1.70
   2   0   5   -2.40    1.70
  -2   0  -5   -6.80    3.10
   2   0   5   -1.70    1.90
  -2   0  -5   -1.50    2.00
   2   0   5   -1.00    3.10
   3   0   5   22.00    4.00
   3   0   5   22.90    5.20
   3   0   5   10.10    3.80
   3   0   5   18.00    3.30
  -3   0  -5   12.90    5.30
  -3   0  -5   19.90    3.70
  -3   0  -5   17.00    3.40
   4   0   5   -1.50    2.10
  -4   0  -5   -0.40    3.60
  -4   0  -5   -0.40    3.30
   4   0   5    0.30    2.60
   4   0   5   -0.40    5.20
   5   0   5   77.59    6.90
  -5   0  -5   72.89    9.40
  -5   0  -5   91.19   12.60
  -5   0  -5   88.69    8.70
   5   0   5   78.79    7.40
  -5   0  -5   64.29    9.40
  -6   0  -5    3.10    5.50
  -6   0  -5   -3.10    6.40
   6   0   5   -0.90    2.80
  -6   0  -5   -5.00    5.00
   6   0   5   10.40    3.50
   6   0   5    2.10    8.10
  -6   0  -5    4.30    5.10
   7   0   5  232.28   16.00
  -7   0  -5  228.78   20.40
  -7   0  -5  239.58   19.50
   7   0   5  245.88   16.50
  -7   0  -5  219.38   19.10
  -7   0  -5  238.48   18.80
   8   0   5   13.50   11.50
  -8   0  -5    2.80    8.40
  -8   0  -5   -4.20    7.30
  -8   0  -5    9.40    8.00
   8   0   5    1.30    4.40
   8   0   5    1.40    3.90
  -8   0  -5   -2.60    7.30
  -9   0  -5  943.81   53.69
   9   0   5  685.23   49.70
   9   0   5  693.63   49.80
  -9   0  -5  889.61   52.89
  -9   0  -5  911.51   53.39
  -9   0  -5  770.12   52.79
 -10   0  -5   -1.30   11.20
 -10   0  -5  -11.70   10.50
 -10   0  -5    0.00   10.40
  10   0   5    8.00   13.10
 -11   0  -5   16.20   12.10
 -11   0  -5   47.50   14.70
  11   0   5   67.29   14.60
 -11   0  -5   26.00   13.30
 -12   0  -5  -14.00   12.90
 -12   0  -5   16.20   14.30
  12   0   5   30.50   13.90
 -12   0  -5   -5.60   15.10
 -13   0  -5  722.83   55.09
 -13   0  -5  690.83   56.29
 -13   0  -5  810.52   57.79
  13   0   5  890.61   57.19
 -14   0  -5   -2.60   17.40
  14   0   5   23.40   15.30
 -14   0  -5  -32.90   15.60
 -14   0  -5   -5.80   18.50
 -16  -1   5   11.10   16.40
  16   1  -5   24.00   11.40
 -16   1   5    8.80   11.60
 -16   1   5    7.50   12.80
  15  -1  -5   33.20   13.00
 -15  -1   5   35.50   10.50
 -15  -1   5   46.60   13.90
 -15   1   5   47.00   12.10
 -15   1   5   45.30   12.40
 -14  -1   5   12.00   11.30
 -14  -1   5   13.70   10.10
  14  -1  -5   25.40   10.50
 -14   1   5   10.00    9.60
 -14   1   5   21.70   10.50
  13  -1  -5   23.10    8.30
 -13  -1   5   31.70    9.80
 -13  -1   5   42.80   11.40
  13   1  -5   51.99    9.90
 -13   1   5   28.10   10.00
 -13   1   5   30.70    9.80
 -12  -1   5   12.30    7.20
 -12  -1   5   21.20    9.50
  12  -1  -5   24.70    6.50
  12  -1  -5   12.20    6.30
  12   1  -5    7.20    6.30
 -12   1   5   16.70    8.20
 -12   1   5   10.70    7.70
 -11  -1   5    0.40    8.10
 -11  -1   5    3.70    6.30
  11  -1  -5    4.60    5.30
  11  -1  -5   12.20    5.40
  11   1  -5   -1.40    5.30
 -11   1   5    8.90    6.40
 -11   1   5    2.50    6.20
  10  -1  -5    4.90    4.80
 -10  -1   5    7.20    5.30
 -10  -1   5    1.60    6.50
  10  -1  -5   -1.90    5.40
  10  -1  -5    5.50    4.50
 -10  -1   5  -10.50    6.90
  10   1  -5   18.20    6.70
 -10   1   5    0.90    8.10
  10   1  -5   -1.00    4.50
  10   1  -5    4.40    4.80
 -10   1   5   -2.50    5.30
 -10   1   5   -4.20    5.50
  -9  -1   5  504.05   32.80
   9  -1  -5  505.35   33.30
  -9  -1   5  528.25   33.40
   9  -1  -5  559.34   32.50
   9  -1  -5  523.65   32.60
   9   1  -5  512.15   33.00
   9   1  -5  561.34   33.80
  -9   1   5  515.45   33.00
   9   1  -5  510.75   32.30
  -9   1   5  420.26   34.60
  -9   1   5  536.25   32.90
   8  -1  -5  712.83   43.20
  -8  -1   5  684.73   42.70
   8  -1  -5  709.43   42.60
   8  -1  -5  702.43   42.40
  -8  -1   5  689.03   43.00
   8   1  -5  698.73   42.90
  -8   1   5  641.64   44.00
  -8   1   5  691.93   42.80
   8   1  -5  718.53   42.30
  -8   1   5  699.93   42.60
  -7  -1   5  410.46   25.70
  -7  -1   5  385.36   25.50
   7  -1  -5  425.76   26.00
   7  -1  -5  416.06   25.50
   7  -1  -5  418.06   25.50
  -7   1   5  383.46   26.60
  -7   1   5  395.36   25.70
   7   1  -5  408.66   25.80
   7   1  -5  425.46   25.10
  -7   1   5  389.76   25.40
  -6  -1   5   40.30    5.80
   6  -1  -5   33.30    5.00
  -6  -1   5   35.70    5.40
   6  -1  -5   42.30    5.50
   6  -1  -5   38.40    6.10
  -6   1   5   42.00    6.50
  -6   1   5   42.40    5.90
   6   1  -5   32.30    5.50
  -6   1   5   32.00    5.10
   6   1  -5   34.00    4.30
   5  -1  -5 1192.28   74.19
  -5  -1   5 1145.19   73.89
   5  -1  -5 1290.27   74.09
  -5  -1   5 1219.28   74.29
   5  -1  -5 1287.87   74.49
  -5   1   5 1314.77   74.09
  -5   1   5 1323.47   74.69
   5   1  -5 1291.17   74.39
  -5   1   5 1211.48   74.29
   5   1  -5 1201.08   73.69
  -4  -1   5 2143.19  126.59
   4  -1  -5 2199.38  126.59
  -4  -1   5 2125.29  126.19
   4  -1  -5 2046.00  127.09
   4  -1  -5 2257.17  126.39
  -4   1   5 2058.29  126.59
  -4   1   5 2217.88  126.39
   4   1  -5 2278.77  126.69
  -4   1   5 1955.20  127.19
   3  -1  -5 2304.47  133.49
   3  -1  -5 2143.99  133.29
  -3  -1   5 2273.47  133.29
  -3  -1   5 2142.99  133.29
  -3  -1   5 2431.76  133.59
  -3   1   5 2253.37  133.09
  -3   1   5 2229.78  133.39
  -3   1   5 2181.08  133.39
   3   1  -5 2365.36  133.39
  -2  -1   5  318.17   19.20
   2  -1  -5  320.77   19.30
   2  -1  -5  299.67   19.30
  -2  -1   5  314.37   19.40
  -2  -1   5  302.07   18.60
  -2   1   5  316.27   19.00
  -2   1   5  316.47   19.30
  -2   1   5  310.97   19.30
   1  -1  -5 1052.89   60.69
  -1  -1   5 1028.90   60.79
  -1   1   5  983.30   60.69
  -1   1   5 1073.59   60.79
   1   1  -5 1040.00   60.79
  -1   1   5  951.70   60.39
   0  -1  -5 1670.63   95.99
   0  -1   5 1574.84   95.99
   0  -1  -5 1598.84   95.89
   0  -1   5 1771.82   95.59
   0   1   5 1630.04   95.99
   0   1  -5 1600.94   95.99
   0   1   5 1497.35   95.49
   1  -1   5 4646.24  271.07
  -1  -1  -5 4447.35  271.37
   1  -1   5 4938.71  270.97
   1  -1   5 4852.71  270.97
  -1  -1  -5 4369.06  271.17
  -1  -1  -5 4654.93  271.67
   1   1   5 4823.32  270.87
   1   1   5 4217.18  270.27
   1   1   5 4468.45  270.87
   1   1   5 4623.64  271.77
  -1   1  -5 4452.75  270.37
  -2  -1  -5  102.09    6.90
   2  -1   5   96.09    7.90
  -2  -1  -5  100.79    7.60
  -2  -1  -5   99.99    8.20
   2  -1   5  109.89    7.00
   2   1   5  106.79    7.70
  -2   1  -5   85.69    6.50
   2   1   5  115.09    8.70
   2   1   5   88.99    6.80
  -2   1  -5   97.89    8.20
   2   1   5   99.59    7.30
  -2   1  -5   96.89    6.40
   3  -1   5   50.59    6.20
  -3  -1  -5   49.30    6.10
   3  -1   5   59.19    5.30
  -3  -1  -5   46.10    6.90
  -3  -1  -5   51.29    5.20
   3   1   5   56.29    5.80
   3   1   5   51.09    7.60
  -3   1  -5   56.89    4.90
   3   1   5   56.09    5.50
  -4  -1  -5 1472.75   87.69
   4  -1   5 1447.66   86.99
   4  -1   5 1475.45   87.09
  -4  -1  -5 1486.05   87.59
  -4  -1  -5 1482.45   87.19
   4  -1   5 1409.56   87.29
  -4  -1  -5 1440.16   87.79
   4   1   5 1529.45   87.29
  -4   1  -5 1510.05   88.09
   4   1   5 1538.75   88.29
  -4   1  -5 1367.96   86.99
   4   1   5 1431.56   87.19
  -5  -1  -5 3088.89  183.68
  -5  -1  -5 3066.69  184.28
   5  -1   5 3156.08  183.38
  -5  -1  -5 3176.68  184.18
   5  -1   5 3063.49  183.48
  -5  -1  -5 2966.80  184.08
   5   1   5 3159.98  184.78
  -5   1  -5 2854.21  183.48
   5   1   5 3114.59  183.58
  -5   1  -5 3200.38  184.48
   5   1   5 3304.47  183.68
  -6  -1  -5  203.68   16.10
   6  -1   5  236.18   15.00
  -6  -1  -5  177.68   16.30
  -6  -1  -5  218.78   16.80
   6  -1   5  211.88   14.30
  -6  -1  -5  201.78   17.40
   6   1   5  221.58   14.80
  -6   1  -5  215.38   17.60
  -6   1  -5  181.88   15.60
   6   1   5  216.78   14.90
   6   1   5  199.78   18.80
   7  -1   5  203.58   14.30
  -7  -1  -5  148.19   16.00
  -7  -1  -5  156.08   17.30
  -7  -1  -5  204.48   16.00
   7  -1   5  168.58   12.90
  -7  -1  -5  173.08   17.10
  -7   1  -5  163.78   16.00
   7   1   5  206.18   19.50
   7   1   5  192.38   14.00
  -7   1  -5  173.88   17.80
   7   1   5  192.88   14.00
   8  -1   5  431.06   27.70
  -8  -1  -5  352.06   30.60
  -8  -1  -5  477.65   30.60
  -8  -1  -5  479.05   30.10
   8  -1   5  410.56   27.00
   8   1   5  392.36   27.40
   8   1   5  424.06   32.20
  -8   1  -5  418.06   29.70
  -8   1  -5  435.06   31.60
   8   1   5  409.56   27.50
  -9  -1  -5  841.22   48.10
  -9  -1  -5  691.63   48.50
   9  -1   5  659.53   44.50
   9  -1   5  647.74   44.00
  -9   1  -5  811.52   49.20
  -9   1  -5  700.13   46.60
  -9   1  -5  663.23   46.30
 -10  -1  -5   54.69   13.80
 -10  -1  -5   89.59   14.10
 -10  -1  -5   75.89   13.60
 -10   1  -5   82.39   12.90
  10   1   5   71.89   14.40
 -10   1  -5   72.99   13.70
 -10   1  -5   68.59   15.30
 -11  -1  -5  229.78   28.70
 -11  -1  -5  230.78   24.70
 -11  -1  -5  240.38   26.20
  11   1   5  200.48   26.10
 -11   1  -5  238.68   26.40
 -11   1  -5  255.87   29.70
 -11   1  -5  219.68   24.70
 -12  -1  -5  126.79   18.40
 -12  -1  -5  101.69   16.30
 -12  -1  -5  103.09   19.30
 -12   1  -5   87.19   18.00
 -12   1  -5  132.39   24.70
  12   1   5  148.49   24.30
 -12   1  -5   99.99   21.20
 -13  -1  -5   96.39   18.50
 -13  -1  -5   73.99   19.80
  13  -1   5   90.09   16.20
 -13  -1  -5   48.10   17.10
  13   1   5   83.19   17.00
 -13   1  -5   87.39   17.20
 -13   1  -5   62.09   21.30
 -13   1  -5   67.39   17.00
 -15  -2   5   38.20   16.60
 -15  -2   5   22.70   13.40
 -15   2   5   43.90   13.20
 -15   2   5    7.50   12.20
  14  -2  -5    0.40    6.60
 -14  -2   5    4.10   10.10
 -14  -2   5    5.70   14.50
 -14   2   5   -0.20   11.00
  14   2  -5    0.30    5.70
 -14   2   5   12.80   10.70
 -13  -2   5   21.50   10.40
  13  -2  -5   26.40    6.80
 -13  -2   5   33.60   13.60
 -13   2   5   30.20   10.70
 -13   2   5   22.50   10.30
  12  -2  -5  465.95   32.40
 -12  -2   5  553.94   35.10
 -12   2   5  489.85   35.80
 -11  -2   5  172.58   16.60
  11  -2  -5  137.59   14.40
  11  -2  -5  159.98   13.80
  11   2  -5  138.39   13.00
 -11   2   5  146.69   16.40
  10  -2  -5    2.90    5.20
 -10  -2   5   13.50    6.60
 -10  -2   5   23.50    9.40
 -10  -2   5    3.00    6.30
  10  -2  -5    2.30    4.70
  10   2  -5    9.00    4.20
 -10   2   5   -4.50    6.70
  10   2  -5   -2.30    3.80
   9  -2  -5    9.00    4.80
   9  -2  -5   11.60    4.80
   9  -2  -5    7.30    6.30
  -9  -2   5    5.30    5.80
  -9  -2   5   13.00    5.80
  -9  -2   5   14.30    8.10
  -9   2   5   13.80    6.20
   9   2  -5   11.70    3.30
   9   2  -5    5.60    3.60
  -9   2   5    7.70    6.00
   9   2  -5   10.50    5.50
  -9   2   5   13.60    6.80
   8  -2  -5 1085.79   64.39
   8  -2  -5 1106.99   64.49
  -8  -2   5 1051.09   65.19
   8  -2  -5 1118.19   65.79
  -8  -2   5 1148.29   66.59
  -8   2   5 1041.10   65.09
  -8   2   5  981.10   65.39
  -8   2   5 1170.98   64.99
   8   2  -5 1037.30   65.09
   8   2  -5 1027.20   63.29
   8   2  -5 1020.40   63.29
   7  -2  -5 1075.99   59.69
   7  -2  -5 1026.00   60.79
   7  -2  -5 1018.60   59.99
  -7  -2   5  962.70   60.39
  -7  -2   5 1002.40   61.19
  -7   2   5  966.90   60.59
   7   2  -5  951.70   60.89
  -7   2   5  976.50   59.99
  -7   2   5  979.40   60.39
   6  -2  -5    3.30    3.80
  -6  -2   5    6.40    4.20
   6  -2  -5   -1.50    3.50
  -6  -2   5    5.50    3.90
   6  -2  -5    1.00    2.30
  -6  -2   5   -0.30    4.40
  -6   2   5    1.00    3.70
  -6   2   5   -3.60    3.10
   6   2  -5   -1.50    3.20
  -6   2   5    5.30    4.00
  -5  -2   5  255.07   17.50
   5  -2  -5  254.87   16.80
  -5  -2   5  265.37   17.10
   5  -2  -5  256.77   17.20
  -5  -2   5  267.97   16.60
  -5  -2   5  244.88   16.80
  -5   2   5  248.78   17.20
  -5   2   5  263.77   17.40
  -5   2   5  241.88   16.20
   5   2  -5  262.67   16.70
  -4  -2   5 1046.90   62.39
   4  -2  -5 1066.59   63.29
  -4  -2   5 1085.79   63.09
  -4  -2   5 1074.79   63.39
  -4  -2   5  962.60   62.49
   4  -2  -5 1035.50   62.99
  -4   2   5 1054.49   63.19
   4   2  -5 1080.19   62.89
  -4   2   5 1058.59   62.49
  -4   2   5 1079.29   63.19
   3  -2  -5 1844.92  107.89
   3  -2  -5 1860.21  107.99
  -3  -2   5 1801.72  107.69
  -3  -2   5 1846.52  107.99
  -3   2   5 1842.82  107.89
  -3   2   5 1781.62  107.19
  -3   2   5 1751.82  107.79
   2  -2  -5    6.40    3.00
  -2  -2   5    8.80    3.30
   2  -2  -5    9.00    2.90
  -2  -2   5    6.60    2.50
  -2   2   5    9.70    1.70
  -2   2   5    9.70    2.90
  -2   2   5    8.80    3.10
   2   2  -5    7.70    3.10
   1  -2  -5 2908.61  164.88
  -1  -2   5 2777.22  164.78
  -1  -2   5 2708.03  164.38
   1  -2  -5 2731.03  164.68
  -1   2   5 2938.11  164.78
  -1   2   5 2757.52  164.28
  -1   2   5 2789.62  164.68
   1   2  -5 2699.93  164.68
   0  -2   5  542.85   34.10
   0  -2  -5  571.64   33.80
   0  -2   5  527.85   33.40
   0  -2  -5  568.94   34.10
   0   2   5  570.44   34.00
   0   2   5  547.15   33.50
   0   2   5  574.04   34.00
   0   2  -5  539.75   33.90
  -1  -2  -5   20.10    3.40
  -1  -2  -5   17.50    4.10
   1  -2   5   18.10    3.10
   1  -2   5   29.00    4.30
  -1   2  -5   16.30    4.00
   1   2   5   18.60    3.90
   1   2   5   22.00    3.60
   1   2   5   27.20    4.60
   2  -2   5   25.80    4.80
   2  -2   5   37.60    4.40
   2  -2   5   23.50    4.40
  -2  -2  -5   31.30    5.10
   2   2   5   30.90    5.60
   2   2   5   21.90    4.60
   2   2   5   29.20    4.00
  -2   2  -5   30.30    5.10
   3  -2   5 1421.26   98.79
   3  -2   5 1721.93   99.09
  -3  -2  -5 1657.23   99.69
  -3  -2  -5 1600.54   99.09
   3  -2   5 1656.43   99.49
   3   2   5 1772.52   99.39
   3   2   5 1653.53   99.29
   3   2   5 1844.72   99.89
  -3   2  -5 1687.73   99.79
   4  -2   5   59.09    7.50
  -4  -2  -5   40.90    6.90
  -4  -2  -5   54.29    4.90
  -4  -2  -5   69.99    8.60
  -4  -2  -5   53.19    9.40
   4  -2   5   58.59    7.60
   4  -2   5   58.49    7.80
   4  -2   5   55.29    5.90
   4   2   5   57.89    7.70
  -4   2  -5   60.49    9.50
   4   2   5   62.79    7.40
   4   2   5   58.09    9.90
  -5  -2  -5  103.49    8.30
   5  -2   5  113.59   10.80
   5  -2   5  105.39   10.20
  -5  -2  -5   94.09    9.60
  -5  -2  -5  100.39   11.30
  -5  -2  -5   83.39   12.00
   5  -2   5  103.09    8.30
   5   2   5  111.59   10.30
  -5   2  -5   90.49    7.00
   5   2   5  112.39   13.00
   5   2   5  101.89    9.40
  -5   2  -5   94.59    7.10
  -5   2  -5  107.99   12.90
  -6  -2  -5   44.40    9.00
  -6  -2  -5   51.79    7.80
  -6  -2  -5   54.29    8.50
   6  -2   5   57.69   10.90
  -6  -2  -5   59.19    8.40
   6  -2   5   64.69    9.30
   6  -2   5   48.30    6.70
   6   2   5   51.79    9.30
  -6   2  -5   48.90   10.00
  -6   2  -5   47.80    6.20
   6   2   5   66.49    9.30
   6   2   5   55.79    8.30
  -6   2  -5   52.79    7.20
  -7  -2  -5  391.16   27.20
  -7  -2  -5  314.77   24.70
  -7  -2  -5  361.26   24.40
   7  -2   5  379.86   23.40
  -7  -2  -5  335.87   27.50
  -7   2  -5  393.46   28.60
   7   2   5  316.17   27.40
  -7   2  -5  330.07   24.10
   7   2   5  390.56   24.20
   7   2   5  412.46   24.80
  -8  -2  -5   -7.10    8.20
   8  -2   5   22.10   17.50
   8  -2   5   16.00    4.60
   8  -2   5   11.70    6.10
  -8  -2  -5    4.30    9.90
  -8  -2  -5   10.70    7.20
  -8   2  -5    8.70    6.30
  -8   2  -5    0.10    4.20
   8   2   5    5.80    5.90
  -8   2  -5   -1.00   10.60
  -9  -2  -5   29.60   11.10
  -9  -2  -5   34.10    9.70
  -9  -2  -5   21.60   12.30
   9  -2   5   62.09   13.70
   9  -2   5   27.30    5.60
  -9   2  -5   20.80   13.20
   9   2   5   13.60   10.80
  -9   2  -5   27.40    8.70
 -10  -2  -5   76.29   14.50
 -10  -2  -5   55.59   15.60
 -10  -2  -5   99.99   13.70
  10   2   5   33.50   12.10
 -10   2  -5   50.59   16.90
 -10   2  -5   70.99   11.70
 -11  -2  -5  221.08   27.30
 -11  -2  -5  204.88   31.70
 -11  -2  -5  282.37   26.20
 -11   2  -5  229.38   25.40
 -11   2  -5  237.38   32.50
 -12  -2  -5    3.10   14.50
 -12  -2  -5   11.80   14.70
  12  -2   5   23.20   15.10
 -12  -2  -5    6.00   17.70
 -12   2  -5  -32.10   18.80
 -12   2  -5   16.80   13.50
  12   2   5    9.00   12.50
 -13  -3   5   30.90   12.80
  13  -3  -5   22.20    8.70
 -13   3   5   29.70   12.80
  12  -3  -5    5.00    6.40
 -12  -3   5    6.80   11.00
 -12  -3   5   40.60   15.30
 -12   3   5    5.50   10.60
 -12   3   5   -0.40   16.90
 -11  -3   5  334.17   25.20
  11  -3  -5  248.28   20.80
 -11   3   5  269.67   25.50
 -11   3   5  323.07   24.10
 -10  -3   5  -12.70    6.90
  10  -3  -5    2.90    5.50
 -10  -3   5   22.00   11.70
 -10  -3   5    9.70    9.00
  10  -3  -5   -2.20    5.80
 -10  -3   5    3.60    8.40
 -10   3   5   13.70    8.40
 -10   3   5   -5.30    7.20
  -9  -3   5  166.48   21.00
  -9  -3   5  148.39   16.40
   9  -3  -5  133.39   13.10
  -9   3   5  112.79   13.80
  -9   3   5  130.89   15.80
  -8  -3   5   12.60    5.70
   8  -3  -5   24.90    6.10
  -8  -3   5    9.10    7.40
  -8  -3   5   10.20    6.80
  -8  -3   5   12.90    9.40
   8   3  -5   11.70    5.60
  -8   3   5   17.50    6.90
  -8   3   5    4.70    5.40
  -7  -3   5  354.66   23.30
   7  -3  -5  375.56   23.90
  -7  -3   5  363.46   25.00
  -7  -3   5  334.77   24.30
  -7   3   5  351.76   24.80
  -7   3   5  348.17   24.20
   7   3  -5  343.87   23.40
  -6  -3   5   52.59    7.40
   6  -3  -5   41.80    6.70
  -6  -3   5   30.90    5.10
  -6  -3   5   38.60    6.70
   6  -3  -5   35.10    5.90
  -6   3   5   33.30    6.40
   6   3  -5   34.80    5.40
   5  -3  -5  313.17   20.70
   5  -3  -5  309.17   21.40
  -5  -3   5  293.27   21.50
  -5  -3   5  316.37   21.40
  -5   3   5  304.27   21.30
   5   3  -5  315.57   20.10
  -5   3   5  320.17   21.00
  -4  -3   5  286.57   19.50
  -4  -3   5  274.87   19.50
   4  -3  -5  301.97   19.30
   4  -3  -5  269.17   19.20
  -4  -3   5  293.47   17.60
  -4   3   5  288.97   19.20
  -4   3   5  286.87   19.80
  -4   3   5  269.07   19.50
  -3  -3   5  189.58   13.60
   3  -3  -5  188.38   13.80
  -3  -3   5  173.88   14.10
   3  -3  -5  181.68   13.80
  -3  -3   5  165.58   12.60
  -3  -3   5  215.38   11.80
  -3   3   5  185.28   14.10
  -3   3   5  181.48   13.60
  -3   3   5  185.18   13.00
  -2  -3   5   14.40    3.90
   2  -3  -5   10.50    3.90
  -2  -3   5    9.40    4.70
  -2  -3   5   14.10    2.70
  -2  -3   5    9.00    2.40
  -2   3   5   13.90    2.80
  -2   3   5   14.60    4.40
  -2   3   5   13.30    4.20
   1  -3  -5  307.37   20.10
   1  -3  -5  298.47   19.60
  -1  -3   5  293.17   18.10
  -1  -3   5  302.77   20.10
  -1  -3   5  289.27   19.10
  -1  -3   5  291.97   18.10
  -1   3   5  307.87   19.70
   1   3  -5  290.77   19.80
  -1   3   5  313.37   19.90
   0  -3   5  792.32   46.60
   0  -3   5  740.43   47.00
   0  -3   5  779.42   48.20
   0  -3   5  764.72   47.10
   0  -3  -5  744.73   47.70
   0  -3  -5  811.22   48.10
   0   3  -5  772.42   47.90
   0   3   5  852.81   47.90
   0   3   5  818.22   47.90
   1  -3   5    3.70    2.70
   1  -3   5    3.10    3.60
   1  -3   5    5.50    2.30
  -1  -3  -5   -4.20    4.70
   1  -3   5   -0.90    4.80
  -1  -3  -5    1.70    3.60
   1   3   5    0.00    3.30
  -1   3  -5    7.70    5.10
   1   3   5    5.60    3.90
   1   3   5   -3.80    4.10
  -2  -3  -5   79.29   11.20
   2  -3   5   96.49    7.50
  -2  -3  -5   95.49    9.00
   2  -3   5  101.99    7.70
   2  -3   5   84.79    7.40
   2  -3   5   77.29   10.20
   2   3   5   85.79   10.00
   2   3   5   77.89    9.10
  -2   3  -5   91.59   10.50
   2   3   5  104.59    9.50
   3  -3   5   -8.20    5.20
   3  -3   5    6.70    3.50
  -3  -3  -5    4.00    3.80
   3  -3   5    4.20    5.40
   3  -3   5    4.20    5.00
  -3  -3  -5   -1.50    5.50
   3   3   5    5.50    4.50
   3   3   5    2.60    5.10
   3   3   5    1.30    4.20
  -3   3  -5    4.60    6.10
  -4  -3  -5  400.46   26.20
   4  -3   5  426.06   27.40
  -4  -3  -5  364.36   27.40
   4  -3   5  378.86   25.60
   4   3   5  405.66   27.20
   4   3   5  423.46   26.30
  -4   3  -5  393.46   28.20
   4   3   5  435.26   26.80
   5  -3   5   25.70    7.60
  -5  -3  -5   20.10    8.30
   5  -3   5   36.60    5.60
   5  -3   5   37.90    6.50
  -5   3  -5   56.19    9.80
   5   3   5   31.60    7.60
   5   3   5   40.00    6.00
   5   3   5   62.19    9.60
   6  -3   5  117.39   10.20
   6  -3   5   91.09   14.30
  -6  -3  -5  119.79   14.40
  -6  -3  -5   89.79   16.00
   6  -3   5  102.99   11.60
   6   3   5  120.29   11.80
  -6   3  -5  134.09   17.20
   6   3   5  108.89   14.80
   6   3   5  148.19   13.30
   7  -3   5   97.29    9.80
   7  -3   5   70.49   10.50
  -7  -3  -5   63.79   12.10
  -7   3  -5   75.19   13.50
   7   3   5  103.39   12.70
   7   3   5   69.59   10.90
  -8  -3  -5   87.19   15.00
   8  -3   5  106.29   14.50
   8  -3   5  116.19   11.50
  -8  -3  -5  119.99   10.30
  -8  -3  -5   82.49   13.60
   8   3   5   86.59   17.00
  -8   3  -5  125.99   22.10
   9  -3   5   20.10    6.10
  -9  -3  -5  -17.70   10.50
   9  -3   5   14.70    8.80
  -9  -3  -5    6.50   13.10
   9   3   5   -2.90    9.60
  -9   3  -5   -9.70   13.90
 -10  -3  -5   89.09   19.20
  10  -3   5  136.49   21.90
 -10  -3  -5   99.49   17.50
 -10   3  -5   63.09   20.70
  11  -3   5   99.59   17.30
 -11  -3  -5   71.09   18.00
 -10  -4   5   31.00   14.00
  10  -4  -5   34.80    8.60
 -10   4   5    3.20   13.40
  -9  -4   5   -8.70    9.90
   9  -4  -5    6.50    7.10
  -9  -4   5   -8.20   11.80
  -9   4   5   20.00   11.80
  -8  -4   5   22.10   11.00
   8  -4  -5    9.10    6.80
  -8   4   5    7.70    9.20
  -8   4   5   23.90   10.20
  -7  -4   5   22.50    8.40
  -7  -4   5   33.10   10.70
   7  -4  -5   20.70    7.20
  -7   4   5   38.10    9.40
  -7   4   5   16.20    8.40
  -6  -4   5  152.88   18.20
  -6  -4   5  133.59   15.70
   6  -4  -5  152.38   14.20
  -6   4   5  172.78   15.90
  -6   4   5  115.59   15.80
  -5  -4   5  109.79   12.30
   5  -4  -5  113.59   12.90
  -5  -4   5  117.49   15.80
  -5  -4   5   93.29   13.60
  -5   4   5  133.29   12.70
  -5   4   5  101.79   13.50
  -5   4   5  138.29   12.80
  -4  -4   5   -0.40    6.70
   4  -4  -5    9.40    6.00
  -4  -4   5    9.80    4.80
  -4  -4   5   12.30    3.90
  -4  -4   5    2.70    7.20
  -4   4   5   17.60    6.50
  -4   4   5   11.00    4.80
  -4   4   5   10.30    5.60
  -3  -4   5   59.79    6.70
  -3  -4   5   36.60    7.40
   3  -4  -5   61.89   10.00
  -3  -4   5   70.09   11.60
  -3  -4   5   50.89    8.30
  -3   4   5   52.99    6.10
  -3   4   5   45.10    7.40
  -3   4   5   65.49    9.60
  -2  -4   5  361.86   22.60
  -2  -4   5  388.86   23.00
   2  -4  -5  347.27   24.80
  -2  -4   5  346.47   24.70
  -2  -4   5  357.46   25.40
  -2   4   5  355.16   24.70
  -2   4   5  384.86   24.30
  -1  -4   5  284.67   18.40
  -1  -4   5  274.97   20.30
   1  -4  -5  295.57   21.30
  -1  -4   5  301.67   18.60
  -1  -4   5  283.97   21.30
  -1   4   5  308.47   20.50
  -1   4   5  287.77   20.70
   0  -4   5   18.20    3.90
   0  -4   5   24.50    7.20
   0  -4   5   15.10    5.00
   0  -4   5   20.60    3.80
   0  -4  -5   15.60    6.60
   0   4   5   23.80    5.80
   0   4   5   13.50    5.80
   1  -4   5   11.80    3.30
   1  -4   5   17.40    4.20
  -1  -4  -5    6.90    6.50
   1  -4   5   15.40    7.00
   1  -4   5   14.10    4.40
   1   4   5   13.30    5.70
   1   4   5   21.50    5.60
  -2  -4  -5  301.27   23.40
   2  -4   5  269.37   20.00
   2  -4   5  295.17   20.90
   2  -4   5  345.47   20.70
   2   4   5  346.57   21.70
  -2   4  -5  337.67   23.00
   2   4   5  286.47   21.50
  -3  -4  -5  220.08   19.90
   3  -4   5  186.68   14.70
   3  -4   5  251.87   16.40
  -3   4  -5  243.08   19.30
   3   4   5  211.18   17.10
  -4  -4  -5   77.39   15.20
   4  -4   5  101.99   11.50
   4   4   5   72.09   11.80
  -4   4  -5  116.09   15.70
  -5  -4  -5    3.30    9.30
   5  -4   5   -4.00    5.80
   5   4   5   -3.20    6.40
  -5   4  -5   15.20    9.80
  -6  -4  -5   88.49   13.90
   6  -4   5   69.49   12.90
  -6   4  -5  126.99   18.60
   7  -4   5   82.69   13.90
  -7  -4  -5   87.19   15.30
  -7   4  -5   93.99   15.50
 -16   0   6   22.40   10.90
 -16   0   6   32.40   12.30
 -15   0   6    5.90    9.70
 -15   0   6    6.90   10.70
  15   0  -6    2.10   12.00
 -14   0   6  348.67   27.10
 -14   0   6  358.96   28.60
  13   0  -6   -0.10   11.00
 -13   0   6   -7.10    7.80
 -13   0   6   -8.70    6.90
 -12   0   6  306.17   22.40
 -12   0   6  314.77   23.60
  11   0  -6   -3.50    8.50
 -11   0   6    0.60    6.80
  11   0  -6   -2.10    5.30
  11   0  -6   -4.60    5.30
 -11   0   6    3.00    6.50
  10   0  -6 3363.06  193.08
 -10   0   6 3181.88  192.78
  10   0  -6 3411.16  193.08
 -10   0   6 3051.29  192.78
  -9   0   6   -4.20    4.10
  -9   0   6   -1.10    7.40
   9   0  -6   -4.30    5.00
  -9   0   6    0.90    4.40
   9   0  -6   -0.80    3.80
   9   0  -6   -1.90    4.30
   8   0  -6  121.49   10.60
   8   0  -6  146.99   11.40
  -8   0   6  120.39   10.10
  -8   0   6   96.09   13.80
   8   0  -6  114.99   10.30
  -8   0   6  128.29   10.40
   7   0  -6    3.30    3.50
   7   0  -6    0.60    3.00
  -7   0   6   -1.70    3.00
   7   0  -6   -0.20    3.00
  -7   0   6   10.70    5.60
  -7   0   6   -0.70    2.90
  -6   0   6 7938.51  481.55
   6   0  -6 8294.27  481.85
  -6   0   6 8207.08  481.55
   6   0  -6 8133.89  481.05
  -5   0   6    0.70    2.10
  -5   0   6   -0.10    2.00
   5   0  -6    2.90    2.40
   5   0  -6   -1.10    2.00
   5   0  -6    2.10    2.10
   4   0  -6  248.78   15.40
  -4   0   6  243.68   15.30
  -4   0   6  237.08   15.40
  -4   0   6  249.18   15.80
   4   0  -6  234.08   15.40
   4   0  -6  234.58   15.30
  -3   0   6    0.70    1.70
  -3   0   6    1.90    1.60
   3   0  -6    3.10    1.90
   3   0  -6    0.10    1.40
  -2   0   6 8247.27  488.15
   2   0  -6 8048.49  488.35
  -2   0   6 7797.72  488.45
  -2   0   6 9085.29  489.25
   2   0  -6 8188.58  488.45
   1   0  -6   -1.40    1.50
  -1   0   6   -3.60    1.70
   1   0  -6    2.10    1.80
  -1   0   6    0.20    1.50
   1   0  -6    0.80    1.60
  -1   0   6    0.20    1.80
   0   0  -6   31.00    3.90
   0   0   6   32.00    4.20
   0   0  -6   37.30    4.40
   0   0  -6   33.10    3.70
   0   0   6   33.10    3.70
   1   0   6    0.50    2.50
  -1   0  -6   -1.30    2.70
  -1   0  -6   -0.40    1.90
   1   0   6   -2.40    1.90
  -1   0  -6    0.90    2.20
   2   0   6 6551.04  428.26
   2   0   6 6374.46  428.96
   2   0   6 7954.40  428.66
   2   0   6 7020.80  427.76
  -2   0  -6 7438.26  427.96
  -2   0  -6 8275.77  431.06
  -2   0  -6 7224.18  429.46
   3   0   6   -0.90    4.70
  -3   0  -6    2.50    3.20
   3   0   6   -0.70    2.00
   3   0   6    2.10    2.40
  -3   0  -6    0.30    2.70
  -4   0  -6 1089.79   70.29
  -4   0  -6 1045.40   68.39
  -4   0  -6 1183.48   68.69
   4   0   6 1144.49   68.09
   4   0   6 1238.78   68.29
   5   0   6   -1.10    2.50
   5   0   6    3.30    3.00
  -5   0  -6   -5.90    6.90
   5   0   6    3.40    6.20
  -5   0  -6    1.90    4.80
  -5   0  -6   -0.40    4.40
  -6   0  -6 2372.26  145.19
  -6   0  -6 2554.04  145.39
   6   0   6 2529.55  144.39
  -6   0  -6 2392.96  146.89
   6   0   6 2320.17  144.19
   7   0   6    9.30   10.40
  -7   0  -6   -0.40    7.10
   7   0   6   -1.50    3.20
   7   0   6    0.90    3.70
  -7   0  -6   -1.40    6.50
  -7   0  -6    8.40    7.60
  -7   0  -6   -5.90    6.60
  -8   0  -6 1357.46   75.79
   8   0   6 1069.29   72.29
   8   0   6 1105.59   72.09
  -8   0  -6 1249.97   74.79
  -8   0  -6 1126.29   74.29
  -8   0  -6 1304.57   74.89
  -9   0  -6    4.10   14.60
  -9   0  -6  -16.90    8.40
  -9   0  -6    3.20   11.20
   9   0   6    5.40   12.70
 -10   0  -6    9.20   11.90
  10   0   6   34.80   14.10
 -10   0  -6   -6.40   10.80
 -10   0  -6    2.10   11.10
  11   0   6   14.00   14.50
 -11   0  -6    7.00   13.00
 -11   0  -6   -9.00   14.00
 -12   0  -6  227.68   28.90
 -12   0  -6  294.17   31.80
 -12   0  -6  248.58   32.20
 -13   0  -6   21.90   17.20
  13   0   6   38.10   16.40
 -13   0  -6  -13.30   15.80
 -13   0  -6   -0.80   17.40
 -16  -1   6   33.20   15.70
  16  -1  -6   16.60   13.50
 -16   1   6   27.00   12.90
 -16   1   6   27.90   12.50
 -15  -1   6  173.48   25.50
  15  -1  -6  251.07   23.70
 -15  -1   6  214.48   21.80
 -15   1   6  191.98   23.10
 -15   1   6  184.78   21.10
  14  -1  -6  347.77   26.00
 -14  -1   6  332.37   29.70
 -14  -1   6  316.27   25.90
 -14   1   6  362.16   26.90
 -14   1   6  276.97   27.10
  13  -1  -6   63.39    9.10
 -13  -1   6   45.20    9.80
 -13  -1   6   57.39   11.30
  13   1  -6   39.80    9.60
 -13   1   6   46.30   10.10
 -13   1   6   47.80   10.00
 -12  -1   6    7.60    8.40
 -12  -1   6    4.30    6.80
  12  -1  -6    0.00    6.10
  12  -1  -6    1.70    5.70
  12   1  -6   -6.60    5.60
  12   1  -6   20.80    7.80
 -12   1   6    4.70    7.30
 -12   1   6    5.20    7.40
  11  -1  -6  652.33   36.00
 -11  -1   6  571.04   36.50
 -11  -1   6  471.35   38.50
  11  -1  -6  568.34   36.40
 -11   1   6  587.24   36.30
 -11   1   6  542.15   36.60
  11   1  -6  533.05   35.70
  10  -1  -6  276.27   18.20
 -10  -1   6  246.48   19.50
 -10  -1   6  263.87   18.80
  10  -1  -6  260.57   18.50
  10  -1  -6  229.28   19.10
 -10   1   6  270.07   18.70
  10   1  -6  256.37   18.00
 -10   1   6  257.77   18.90
  10   1  -6  223.98   18.70
  -9  -1   6   69.19    9.70
  -9  -1   6   67.39    9.10
   9  -1  -6   77.49    8.60
   9  -1  -6   60.09    9.70
   9  -1  -6   58.99    8.90
   9   1  -6   75.29    8.00
   9   1  -6   63.89    9.00
  -9   1   6   56.29    9.10
  -9   1   6   77.59    9.30
  -9   1   6   71.79   12.60
   8  -1  -6    3.00    3.60
   8  -1  -6    1.10    3.50
  -8  -1   6   -7.40    5.00
  -8  -1   6    6.60    3.90
  -8  -1   6   -1.00    3.90
   8  -1  -6    1.60    4.50
   8   1  -6   -1.60    3.70
   8   1  -6   -1.10    4.40
  -8   1   6    0.80    3.90
  -8   1   6    1.80    3.80
  -8   1   6    8.70    5.80
   7  -1  -6  609.04   36.60
  -7  -1   6  599.44   36.70
  -7  -1   6  565.74   36.50
   7  -1  -6  595.64   36.60
   7  -1  -6  604.94   37.00
   7   1  -6  600.14   36.00
  -7   1   6  584.74   37.60
   7   1  -6  619.14   36.90
  -7   1   6  600.74   36.40
  -6  -1   6   94.09    7.10
   6  -1  -6   74.19    8.00
  -6  -1   6   87.59    7.90
   6  -1  -6   81.09    7.70
   6  -1  -6   87.09    7.90
  -6   1   6   97.49    8.90
   6   1  -6   83.39    7.70
   6   1  -6   88.09    6.30
  -6   1   6   88.99    7.90
  -6   1   6   81.59    7.10
   5  -1  -6  604.24   37.20
  -5  -1   6  587.34   36.80
   5  -1  -6  637.14   37.50
   5  -1  -6  630.84   37.00
  -5  -1   6  582.14   37.20
  -5   1   6  640.14   37.70
   5   1  -6  617.64   37.30
  -5   1   6  635.24   37.00
   5   1  -6  599.44   36.40
  -5   1   6  619.74   37.30
   4  -1  -6   23.90    4.50
   4  -1  -6   28.10    4.60
  -4  -1   6   30.20    5.30
  -4  -1   6   27.30    3.20
  -4  -1   6   34.90    4.50
  -4   1   6   27.70    3.80
  -4   1   6   32.20    4.80
   4   1  -6   28.70    4.10
  -4   1   6   27.80    4.50
   3  -1  -6  433.06   26.70
  -3  -1   6  446.16   26.20
  -3  -1   6  418.26   27.40
   3  -1  -6  468.05   26.90
  -3  -1   6  442.56   26.70
  -3   1   6  421.26   26.80
  -3   1   6  437.36   26.40
  -3   1   6  438.46   26.80
   2  -1  -6  162.08   11.10
  -2  -1   6  181.78   10.50
  -2  -1   6  161.78   10.90
  -2  -1   6  160.38   10.20
  -1  -1   6 1059.19   60.89
  -1  -1   6 1052.89   60.79
   1  -1  -6  999.50   61.39
  -1   1   6 1063.49   60.99
  -1   1   6  970.40   61.39
   1   1  -6 1033.00   61.49
   0  -1   6  650.23   36.80
   0  -1  -6  632.74   37.40
   0  -1  -6  637.14   37.50
   0   1   6  636.04   37.60
   0   1  -6  599.64   37.50
   0   1   6  566.34   36.90
  -1  -1  -6    0.90    2.10
   1  -1   6    2.90    1.60
  -1  -1  -6    0.70    2.80
   1  -1   6    3.50    4.00
  -1  -1  -6    4.40    1.90
   1  -1   6   -0.50    2.30
   1   1   6    0.60    1.80
  -1   1  -6   -0.30    2.70
   1   1   6    1.40    2.10
   1   1   6    1.50    3.10
   1   1   6    2.40    2.30
  -2  -1  -6 2522.35  145.09
  -2  -1  -6 2424.16  145.29
   2  -1   6 2523.75  144.89
   2  -1   6 2478.35  145.39
  -2  -1  -6 2372.56  145.39
   2   1   6 2531.85  145.79
   2   1   6 2472.25  145.19
   2   1   6 2581.84  145.29
  -2   1  -6 2375.06  144.59
   2   1   6 2296.27  144.79
  -2   1  -6 2449.66  145.49
   3  -1   6 1315.47   80.09
   3  -1   6 1428.36   79.79
  -3  -1  -6 1356.86   80.19
  -3  -1  -6 1292.37   80.29
   3  -1   6 1325.97   79.79
  -3  -1  -6 1301.17   79.69
   3   1   6 1308.07   79.89
  -3   1  -6 1285.47   79.49
   3   1   6 1415.36   80.89
  -3   1  -6 1303.87   80.49
   3   1   6 1434.56   80.09
  -4  -1  -6   30.70    5.50
   4  -1   6   34.30    5.00
  -4  -1  -6   37.60    5.90
   4  -1   6   34.60    5.00
   4   1   6   31.80    6.20
   4   1   6   30.60    5.20
  -4   1  -6   28.40    5.30
  -4   1  -6   36.00    6.20
  -5  -1  -6   60.49    9.80
  -5  -1  -6   68.99    8.30
   5  -1   6   66.89    7.20
  -5  -1  -6   50.99    8.80
   5  -1   6   68.89    6.60
   5   1   6   63.09   11.30
   5   1   6   61.69    6.90
  -5   1  -6   68.09   10.60
   5   1   6   64.59    7.40
  -5   1  -6   53.39    7.80
  -6  -1  -6 2229.68  140.99
  -6  -1  -6 2424.66  140.39
   6  -1   6 2413.36  139.99
  -6  -1  -6 2254.77  140.99
   6  -1   6 2383.56  139.69
  -6  -1  -6 2375.76  140.99
   6   1   6 2456.95  139.99
   6   1   6 2316.47  139.89
  -6   1  -6 2114.79  139.99
   6   1   6 2473.15  141.99
  -6   1  -6 2487.55  141.49
  -7  -1  -6 1061.69   70.29
   7  -1   6 1216.58   68.69
   7  -1   6 1065.29   68.09
  -7  -1  -6 1064.79   70.29
  -7  -1  -6 1157.88   70.09
  -7  -1  -6 1161.38   69.49
   7   1   6 1183.08   68.49
  -7   1  -6 1112.99   70.59
   7   1   6 1161.38   68.49
  -7   1  -6 1031.40   69.19
   7   1   6 1267.37   71.89
   8  -1   6  125.79   10.90
  -8  -1  -6  124.79   15.90
  -8  -1  -6  120.09   15.30
   8  -1   6  129.59   11.80
  -8  -1  -6   95.39   17.20
  -8   1  -6  104.59   17.40
  -8   1  -6  115.19   15.20
  -8   1  -6   98.89   13.60
   8   1   6  144.59   12.10
  -9  -1  -6  -11.00   10.00
  -9  -1  -6   -5.80    9.00
  -9  -1  -6   -0.30    9.40
  -9   1  -6   -4.30   11.40
  -9   1  -6    9.10    8.70
  -9   1  -6   -3.20    8.00
   9   1   6   11.50   11.40
 -10  -1  -6 1197.48   67.59
 -10  -1  -6 1107.89   67.89
 -10  -1  -6  926.81   68.19
  10   1   6  932.21   68.49
 -10   1  -6 1146.39   69.69
 -10   1  -6  953.90   66.49
 -11  -1  -6  290.37   32.80
 -11  -1  -6  320.07   30.20
 -11  -1  -6  367.66   30.50
 -11   1  -6  328.87   30.20
 -11   1  -6  311.67   33.70
 -12  -1  -6  170.38   27.10
 -12  -1  -6  202.58   33.20
 -12  -1  -6  178.08   26.30
  12   1   6  170.08   28.10
 -12   1  -6  171.68   26.80
 -12   1  -6  181.28   33.70
 -13  -1  -6   17.30   19.50
  13  -1   6   11.70   15.20
 -13  -1  -6  -11.80   15.40
 -13  -1  -6   -8.50   16.30
  13   1   6   33.20   16.70
 -13   1  -6    7.60   15.30
 -13   1  -6    3.70   20.30
 -15  -2   6   31.20   14.80
 -15  -2   6   42.30   16.50
 -15   2   6   15.60   12.50
 -15   2   6   44.20   13.40
 -14  -2   6   14.00   14.20
  14  -2  -6    1.20    6.70
 -14  -2   6   18.00   10.40
 -14   2   6   16.70   10.90
 -14   2   6    5.30   10.80
 -13  -2   6  109.59   16.80
 -13  -2   6  146.29   23.60
  13  -2  -6  102.29   13.70
 -13   2   6  102.59   18.00
 -13   2   6  129.69   17.60
  12  -2  -6   88.49   11.30
 -12  -2   6   89.59   14.60
  12   2  -6   70.79   10.50
 -12   2   6   69.39   10.90
 -12   2   6  124.59   16.30
  11  -2  -6  232.38   16.20
 -11  -2   6  234.48   18.40
 -11  -2   6  170.58   18.20
 -11   2   6  211.48   18.70
  11   2  -6  206.98   15.30
  10  -2  -6    0.10    5.10
 -10  -2   6    9.10    8.30
  10  -2  -6    5.40    4.80
 -10  -2   6   -0.50    5.60
 -10  -2   6   -1.60    6.00
 -10   2   6    0.40    6.00
  10   2  -6    3.90    3.30
  10   2  -6   -1.40    3.40
 -10   2   6   -2.20    6.10
   9  -2  -6  431.76   27.20
   9  -2  -6  458.15   27.30
  -9  -2   6  438.16   28.30
  -9  -2   6  471.55   30.00
   9   2  -6  409.76   25.40
   9   2  -6  376.96   27.90
  -9   2   6  484.55   27.90
  -9   2   6  412.66   28.40
   9   2  -6  377.56   25.40
  -9   2   6  372.86   29.00
   8  -2  -6  156.18   14.90
  -8  -2   6  195.18   15.50
  -8  -2   6  159.08   13.90
   8  -2  -6  182.18   13.30
   8  -2  -6  181.68   12.90
  -8   2   6  177.48   13.60
   8   2  -6  159.38   13.80
  -8   2   6  183.08   14.50
  -8   2   6  173.18   14.90
  -7  -2   6  764.22   46.30
   7  -2  -6  758.72   46.00
  -7  -2   6  723.93   46.40
   7  -2  -6  766.62   46.80
  -7   2   6  772.82   46.50
  -7   2   6  745.53   46.70
  -7   2   6  753.02   45.80
   7   2  -6  755.42   46.40
   6  -2  -6  257.57   17.10
  -6  -2   6  258.17   18.20
  -6  -2   6  252.67   18.00
  -6  -2   6  252.57   17.00
  -6  -2   6  250.97   17.30
  -6   2   6  257.57   17.90
  -6   2   6  259.37   17.50
   6   2  -6  256.97   17.20
  -6   2   6  245.28   16.40
  -5  -2   6  847.72   55.09
   5  -2  -6  911.11   55.59
  -5  -2   6  958.50   55.69
  -5  -2   6  920.41   55.69
  -5  -2   6  990.10   56.19
   5  -2  -6  895.81   55.89
  -5   2   6  927.51   55.09
   5   2  -6  978.00   55.59
  -5   2   6  902.01   55.89
  -5   2   6  913.41   55.79
  -4  -2   6   -1.20    2.10
   4  -2  -6    2.80    3.20
  -4  -2   6    0.70    3.00
  -4  -2   6    7.00    1.60
  -4  -2   6    0.10    3.80
   4  -2  -6    4.00    3.10
  -4   2   6    3.40    3.20
  -4   2   6    2.30    2.10
  -4   2   6    4.20    3.20
   4   2  -6    6.40    2.60
  -3  -2   6 1396.76   79.99
   3  -2  -6 1307.27   79.59
   3  -2  -6 1389.66   79.69
  -3  -2   6 1350.76   79.39
  -3   2   6 1269.07   78.89
  -3   2   6 1301.17   79.69
  -3   2   6 1335.57   79.69
  -2  -2   6  650.53   40.40
  -2  -2   6  701.13   40.90
   2  -2  -6  700.23   40.90
   2  -2  -6  696.73   40.80
  -2   2   6  667.23   40.80
  -2   2   6  677.23   40.00
   2   2  -6  632.84   40.60
  -2   2   6  642.94   40.70
   1  -2  -6  878.21   52.69
   1  -2  -6  910.81   52.49
  -1  -2   6  877.41   52.69
  -1  -2   6  866.91   52.19
  -1   2   6  758.62   51.49
  -1   2   6  895.51   52.49
  -1   2   6  911.91   52.59
  -1   2   6  904.81   51.99
   1   2  -6  854.41   52.49
   0  -2   6  433.36   27.60
   0  -2  -6  456.65   28.10
   0  -2   6  430.26   28.30
   0  -2  -6  458.85   28.50
   0   2   6  473.45   27.70
   0   2   6  468.15   28.40
   0   2   6  462.55   28.10
   0   2  -6  447.66   28.30
  -1  -2  -6 1228.38   71.19
   1  -2   6 1217.48   71.49
   1  -2   6 1017.40   70.39
  -1  -2  -6 1198.98   71.49
   1  -2   6 1258.67   70.39
   1   2   6 1254.07   71.29
  -1   2  -6 1179.58   71.49
   1   2   6 1193.48   70.99
   1   2   6 1173.98   71.39
   2  -2   6  257.67   17.20
   2  -2   6  218.18   16.20
  -2  -2  -6  247.98   16.50
   2  -2   6  267.17   15.90
  -2  -2  -6  250.27   17.60
  -2   2  -6  240.18   17.50
   2   2   6  261.07   16.90
   2   2   6  268.27   17.90
   2   2   6  254.97   16.50
   3  -2   6  591.14   37.80
   3  -2   6  652.33   37.10
  -3  -2  -6  586.64   37.50
  -3  -2  -6  588.44   38.30
   3  -2   6  582.74   37.60
   3  -2   6  614.24   37.20
  -3   2  -6  610.64   38.40
   3   2   6  629.24   37.70
   3   2   6  654.83   38.60
  -4  -2  -6  763.72   49.50
   4  -2   6  826.82   49.10
  -4  -2  -6  784.72   50.39
   4  -2   6  890.11   50.29
   4  -2   6  756.12   49.70
   4   2   6  822.62   49.70
  -4   2  -6  822.32   50.69
   4   2   6  796.72   49.60
   4   2   6  871.81   51.09
  -5  -2  -6  320.37   24.90
   5  -2   6  350.26   22.30
   5  -2   6  381.36   23.30
  -5  -2  -6  331.77   23.10
  -5  -2  -6  358.96   22.00
   5   2   6  381.16   23.50
   5   2   6  345.87   23.10
  -5   2  -6  329.27   24.50
   5   2   6  355.46   26.20
   6  -2   6    7.50    5.00
   6  -2   6    7.10    3.70
  -6  -2  -6    8.20    8.50
   6  -2   6   26.10    9.50
  -6  -2  -6   13.10    5.30
  -6  -2  -6   -0.30    6.50
  -6  -2  -6   16.50    4.60
  -6   2  -6   10.10    3.50
   6   2   6   11.40    5.20
   6   2   6   12.50    4.80
  -6   2  -6   10.30    3.00
  -6   2  -6    9.80    9.70
   6   2   6    7.40    8.40
   7  -2   6  159.88   13.60
  -7  -2  -6  118.59   18.00
   7  -2   6  117.59   11.10
  -7  -2  -6  133.39   12.90
  -7  -2  -6  120.19   15.90
  -7   2  -6  145.09   18.40
   7   2   6  154.78   13.40
  -7   2  -6  132.09   11.90
  -8  -2  -6  671.13   41.00
   8  -2   6  686.03   38.40
  -8  -2  -6  531.55   41.50
  -8  -2  -6  614.74   38.30
   8  -2   6  552.14   36.80
   8   2   6  494.15   41.20
  -8   2  -6  543.15   37.70
  -8   2  -6  639.04   42.70
  -9  -2  -6   42.80   13.50
  -9  -2  -6   41.90    9.80
  -9  -2  -6   28.90   12.00
   9   2   6   28.90   12.40
  -9   2  -6   38.60   14.80
  -9   2  -6   29.40    8.80
 -10  -2  -6   62.99   15.60
 -10  -2  -6   75.39   14.10
 -10  -2  -6   98.79   18.50
 -10   2  -6  104.59   19.10
 -10   2  -6  109.99   17.30
 -11  -2  -6    3.00   13.80
  11  -2   6   34.20   15.40
 -11  -2  -6    8.60   15.70
 -11  -2  -6    5.00   12.30
 -11   2  -6   11.70   11.40
 -11   2  -6  -32.40   17.30
  11   2   6   -2.00   12.80
 -12  -2  -6  159.48   25.40
 -12  -2  -6  109.49   21.50
 -12  -2  -6  128.89   19.70
 -12   2  -6  108.79   24.20
 -13  -3   6   35.30   12.20
 -13   3   6   54.29   12.80
  12  -3  -6  171.68   17.10
 -12  -3   6  233.68   22.60
 -12   3   6  188.48   22.20
  11  -3  -6   36.90    7.50
 -11  -3   6   62.69   14.80
 -11  -3   6   52.69   11.00
 -11   3   6   34.60    9.30
 -11   3   6   31.80    9.90
  10  -3  -6   30.60    6.90
 -10  -3   6   71.39   14.10
 -10  -3   6   35.60    9.20
  10  -3  -6   38.40    6.20
 -10   3   6   37.60    8.90
 -10   3   6   34.60    8.20
  -9  -3   6   73.29   10.20
  -9  -3   6   54.79    9.60
  -9  -3   6   66.49   12.20
   9  -3  -6   76.49   10.80
  -9   3   6   86.09   13.40
  -9   3   6   65.09    8.40
  -8  -3   6  463.75   37.00
  -8  -3   6  502.35   41.30
  -8  -3   6  518.25   35.50
   8  -3  -6  605.84   34.90
   8   3  -6  540.05   34.80
  -8   3   6  534.05   34.20
  -8   3   6  591.34   37.20
  -8   3   6  566.64   35.70
  -7  -3   6   17.80    5.30
  -7  -3   6   14.50    6.30
  -7  -3   6   18.30    6.80
  -7  -3   6    8.60    7.30
   7  -3  -6   25.90    5.70
   7   3  -6   18.70    5.10
  -7   3   6    9.80    4.60
  -7   3   6   26.30    6.50
  -7   3   6   28.30    6.30
   6  -3  -6  120.49   11.80
   6  -3  -6  107.99   13.20
  -6  -3   6  109.39    9.90
  -6  -3   6  116.09   12.80
  -6  -3   6  112.79   12.30
   6   3  -6  116.09   10.40
  -6   3   6  131.79   12.00
  -6   3   6  119.59   12.30
  -5  -3   6   67.69    9.80
  -5  -3   6   70.09    6.70
  -5  -3   6   75.19   10.70
   5  -3  -6   67.79   10.70
   5  -3  -6   76.59   10.00
  -5   3   6   90.69   10.70
  -5   3   6   70.99    9.40
  -4  -3   6 1509.55   88.99
  -4  -3   6 1567.84   89.49
   4  -3  -6 1473.35   89.19
  -4  -3   6 1471.25   87.99
   4  -3  -6 1543.15   89.09
  -4   3   6 1561.24   89.19
  -4   3   6 1475.85   89.09
  -4   3   6 1298.17   88.89
  -3  -3   6   23.00    4.60
   3  -3  -6   26.20    5.00
  -3  -3   6   22.00    5.60
   3  -3  -6   16.30    5.20
  -3   3   6   16.10    4.70
  -3   3   6   19.80    4.20
  -3   3   6   19.10    5.20
   2  -3  -6   49.50    8.40
  -2  -3   6   56.19    7.10
  -2  -3   6   54.39    8.70
   2  -3  -6   64.39    7.60
  -2   3   6   60.09    8.40
  -2   3   6   47.60    7.80
  -1  -3   6   -2.50    4.70
   1  -3  -6   -6.50    4.20
  -1  -3   6   -7.10    3.20
   1  -3  -6    1.90    3.50
  -1   3   6    5.20    3.20
  -1   3   6   -2.50    4.20
  -1   3   6    7.60    4.10
  -1   3   6   -0.70    1.80
   1   3  -6    0.70    4.50
   0  -3  -6 1910.31  111.49
   0  -3  -6 1909.51  111.79
   0  -3   6 1828.02  111.69
   0  -3   6 1850.81  110.19
   0  -3   6 1738.53  110.79
   0   3  -6 1841.62  111.49
   0   3   6 1962.10  111.59
   0   3   6 1933.11  111.49
  -1  -3  -6   80.09    9.50
   1  -3   6   79.69    7.60
  -1  -3  -6   66.79   11.00
   1  -3   6   94.29    6.80
   1  -3   6   80.59   10.50
   1   3   6   81.59    9.00
  -1   3  -6   92.59   10.90
   1   3   6   74.99    9.10
   1   3   6   94.49   10.50
   2  -3   6   44.20    6.90
   2  -3   6   43.80    5.90
  -2  -3  -6   33.60    5.30
   2  -3   6   46.30    6.10
   2  -3   6   32.10    5.80
   2   3   6   41.30    6.80
   2   3   6   35.30    5.70
   2   3   6   48.40    8.00
  -2   3  -6   42.60    7.30
  -3  -3  -6   44.40    7.60
   3  -3   6   41.80    7.00
   3  -3   6   40.10    5.60
   3  -3   6   45.70    6.90
   3  -3   6   30.90    6.30
  -3  -3  -6   41.10    7.50
   3   3   6   39.40    6.00
   3   3   6   32.40    7.00
  -3   3  -6   44.60    8.60
   3   3   6   38.40    6.30
  -4  -3  -6  537.65   37.90
   4  -3   6  564.34   36.90
   4  -3   6  524.15   35.70
   4  -3   6  589.94   35.30
   4   3   6  624.04   36.80
  -4   3  -6  575.04   37.70
   4   3   6  575.94   36.20
   4   3   6  621.54   37.70
   5  -3   6   91.69   10.60
  -5  -3  -6   76.79   14.20
   5  -3   6   78.89   12.20
   5  -3   6   83.39    8.60
  -5   3  -6  119.09   15.20
   5   3   6   92.49   10.70
   5   3   6   90.39   14.20
  -6  -3  -6   79.09   12.00
   6  -3   6   63.89   10.90
   6  -3   6   74.09    9.60
   6  -3   6   48.40    8.30
   6   3   6   69.09   10.90
   6   3   6   99.29   12.00
  -6   3  -6   81.29   12.60
   7  -3   6   41.20    9.00
   7  -3   6   53.29    8.80
   7  -3   6   41.70    6.00
  -7  -3  -6   37.10   11.50
  -7   3  -6   52.39   12.60
   7   3   6   41.20   10.50
  -8  -3  -6   30.90   11.30
   8  -3   6   33.50    9.70
  -8  -3  -6   23.10   12.90
   8  -3   6   32.80    6.00
   8   3   6   25.60   10.50
  -8   3  -6   23.80   13.70
  -9  -3  -6   67.89   16.30
  -9  -3  -6   93.99   14.90
  -9   3  -6   68.59   18.20
 -10  -3  -6    3.60   12.80
 -10  -3  -6   -6.10   15.60
  10  -3   6   18.60   14.50
  10   3   6   11.10   11.10
 -10   3  -6   -7.80   18.10
   9  -4  -6    5.80    7.80
  -9  -4   6   19.10   11.20
  -9  -4   6    4.20   10.10
  -9   4   6   -4.70   10.50
  -9   4   6    4.00    9.90
  -8  -4   6   23.70   10.50
  -8  -4   6   14.10    9.00
   8  -4  -6   23.00    7.40
  -8   4   6   10.50   15.30
  -8   4   6    1.90   10.00
   7  -4  -6   15.00    7.10
  -7  -4   6   17.60   11.80
  -7   4   6   -2.80    8.00
  -7   4   6   32.30    9.20
   6  -4  -6   22.00    7.20
  -6  -4   6   17.00    6.80
  -6  -4   6   20.10    8.50
  -6  -4   6   34.80    9.40
  -6   4   6   17.50    7.60
  -6   4   6   34.50    8.00
  -6   4   6   30.50    7.60
  -5  -4   6   -0.60    7.80
  -5  -4   6   -3.40    5.20
   5  -4  -6   -9.00    5.90
  -5  -4   6   -7.70    7.00
  -5   4   6    1.90    7.00
  -5   4   6    7.60    5.90
  -5   4   6    2.20    6.10
   4  -4  -6   -6.00    5.80
  -4  -4   6    4.10    7.10
  -4  -4   6    5.70    6.90
  -4  -4   6   -3.30    4.40
  -4   4   6   -4.60    6.30
  -4   4   6   13.10    6.00
  -4   4   6    7.90    4.30
  -3  -4   6    8.90    3.80
   3  -4  -6   14.50    6.00
  -3  -4   6   12.60    6.60
  -3  -4   6   10.00    7.20
  -3   4   6   18.80    5.90
  -3   4   6   10.50    6.70
  -2  -4   6  105.79   11.70
  -2  -4   6   78.29   13.00
   2  -4  -6   89.59   12.00
  -2  -4   6   90.89    8.10
  -2   4   6  103.59   12.80
  -2   4   6   89.19   11.30
  -1  -4   6   64.09    9.70
   1  -4  -6   62.89   10.90
  -1  -4   6   76.79   12.20
  -1  -4   6   72.39    8.70
  -1  -4   6   64.29    6.80
  -1   4   6   67.89   11.70
  -1   4   6   61.99   10.40
   0  -4   6   -1.00    4.50
   0  -4  -6   -3.80    5.90
   0  -4   6   -1.60    3.30
   0   4  -6    2.60    5.90
   0   4   6    9.80    5.60
   0   4   6   -1.10    5.90
   1  -4   6    8.80    4.10
  -1  -4  -6    2.30    6.60
   1  -4   6    3.50    4.10
  -1   4  -6    8.00    6.20
   1   4   6   13.70    5.90
   1   4   6    4.30    6.00
  -2  -4  -6    7.50    7.70
   2  -4   6   14.60    4.90
   2  -4   6    9.20    4.00
   2   4   6   22.30    6.10
   2   4   6    4.50    6.20
  -2   4  -6   13.80    7.60
   3  -4   6   63.89    8.00
  -3  -4  -6   64.09   10.40
   3  -4   6   88.99   10.30
   3   4   6   71.09   11.90
  -3   4  -6   78.39   15.10
   4  -4   6   27.40    6.40
  -4  -4  -6   24.70    9.30
  -4   4  -6   40.90   10.40
   4   4   6   29.40    7.70
  -5  -4  -6   38.60   11.00
   5  -4   6   34.90    7.40
   5   4   6   34.20    8.40
   6  -4   6    1.20    7.00
  -6  -4  -6   -4.00   10.60
  -6   4  -6   28.40   11.90
  -7  -4  -6   12.70   13.40
   7  -4   6   26.10    8.40
  -7   4  -6   27.50   13.90
 -16   0   7    5.80   10.40
 -16   0   7    7.90   11.50
  16   0  -7   19.60   12.40
  15   0  -7   44.80   13.30
 -15   0   7   30.50   11.10
 -15   0   7   23.10    9.90
 -14   0   7  -10.80    8.50
 -14   0   7    1.40    7.80
  14   0  -7   -9.00   10.70
 -13   0   7  191.18   18.80
 -13   0   7  204.88   17.50
 -12   0   7  -10.60    6.00
  12   0  -7    2.00   10.90
 -12   0   7   -4.60    6.10
 -11   0   7  298.17   21.00
  11   0  -7  266.87   21.30
 -11   0   7  293.97   22.90
  11   0  -7  298.87   21.10
  10   0  -7   -5.20    4.60
 -10   0   7   -6.20    9.00
 -10   0   7   -3.80    4.70
  10   0  -7   -2.30    5.00
 -10   0   7   -0.70    4.90
  10   0  -7   -7.40    6.00
  -9   0   7  286.47   19.20
   9   0  -7  293.57   20.10
   9   0  -7  268.57   19.40
  -9   0   7  286.47   19.30
  -8   0   7   -0.50    3.50
  -8   0   7    1.00    3.40
   8   0  -7   -1.70    3.50
   8   0  -7   -0.40    3.60
   8   0  -7    1.90    3.90
  -8   0   7    3.80    6.40
   7   0  -7    4.70    3.20
  -7   0   7    3.00    3.00
  -7   0   7   12.50    5.40
   7   0  -7    7.60    3.20
  -7   0   7    6.20    3.00
   7   0  -7    6.40    3.70
  -6   0   7    4.20    4.00
  -6   0   7    2.60    2.70
   6   0  -7   -1.50    2.40
  -6   0   7    1.10    2.70
   6   0  -7   -2.10    2.60
   6   0  -7    0.10    2.90
  -5   0   7 2065.89  122.89
   5   0  -7 2071.39  122.89
   5   0  -7 2154.18  123.09
   5   0  -7 2035.70  122.99
  -5   0   7 2068.99  122.99
  -4   0   7    0.20    2.00
  -4   0   7    1.30    2.00
   4   0  -7    1.20    1.80
   4   0  -7    3.00    2.30
  -4   0   7    3.60    2.50
   3   0  -7  643.04   38.20
   3   0  -7  598.74   38.10
  -3   0   7  691.43   38.60
  -3   0   7  626.54   38.20
  -3   0   7  648.24   38.30
  -3   0   7  619.34   38.30
   2   0  -7    1.30    1.80
  -2   0   7    0.80    1.90
  -2   0   7    0.80    2.30
   2   0  -7    1.20    1.80
   1   0  -7 2625.44  156.68
   1   0  -7 2654.93  156.68
  -1   0   7 2715.53  156.58
  -1   0   7 2592.94  156.68
  -1   0   7 2719.23  156.78
   1   0  -7 2628.04  156.48
   0   0   7   -2.20    2.10
   0   0   7    1.50    2.30
   0   0   7    0.40    1.80
   0   0  -7   -0.40    1.90
   0   0  -7    0.90    2.30
   0   0  -7   -1.10    2.60
  -1   0  -7 1446.96   86.19
   1   0   7 1628.14   86.29
   1   0   7 1339.27   86.19
  -1   0  -7 1412.76   86.39
   1   0   7 1380.56   86.49
  -1   0  -7 1522.55   86.79
  -2   0  -7    1.90    2.70
  -2   0  -7    4.20    3.20
   2   0   7    3.50    3.70
   2   0   7    3.70    2.50
  -2   0  -7   -4.40    4.40
   3   0   7 2716.73  150.68
  -3   0  -7 2525.95  150.78
  -3   0  -7 2589.64  152.18
  -3   0  -7 2492.15  150.88
   3   0   7 2386.66  150.58
   3   0   7 2501.65  150.58
   3   0   7 2622.84  151.48
   4   0   7    0.80    3.30
  -4   0  -7  -10.20    6.20
   4   0   7    0.80    2.60
   4   0   7   -2.00    3.00
  -4   0  -7    2.90    3.80
   4   0   7   -0.50    6.00
  -4   0  -7    0.30    4.30
   5   0   7 2412.36  141.69
  -5   0  -7 2402.96  144.39
  -5   0  -7 2230.28  142.09
   5   0   7 2392.66  141.59
  -5   0  -7 2511.35  142.49
  -6   0  -7   -5.00    8.30
   6   0   7    7.80    9.10
  -6   0  -7    9.20    6.70
  -6   0  -7    3.90    5.70
   6   0   7    1.10    3.30
   6   0   7    4.10    3.70
   7   0   7  432.36   28.00
  -7   0  -7  470.55   32.10
  -7   0  -7  404.46   30.40
  -7   0  -7  439.96   30.30
  -8   0  -7    1.20    8.20
  -8   0  -7   -7.40    8.80
  -8   0  -7   17.90    8.90
   8   0   7    3.00   12.00
   8   0   7   -4.40    8.10
  -9   0  -7 1154.98   69.99
  -9   0  -7 1030.20   69.19
 -10   0  -7  -15.00   11.80
 -10   0  -7   -4.90   11.40
  10   0   7   19.10   13.80
  11   0   7   64.19   15.90
 -11   0  -7   33.20   14.10
 -11   0  -7   13.10   14.60
 -12   0  -7  -18.20   15.40
  12   0   7   22.50   16.30
 -12   0  -7   26.10   15.50
  13   0   7  488.15   43.00
 -13   0  -7  371.96   41.40
 -13   0  -7  333.87   40.90
  16  -1  -7   49.60   14.00
 -16  -1   7   63.09   16.10
 -16   1   7   55.49   13.60
 -15  -1   7   12.70    9.60
  15  -1  -7   17.40   10.70
 -15  -1   7   21.60   11.70
 -15   1   7   14.30   11.10
 -15   1   7   10.90   10.50
  15   1  -7   31.80   10.60
 -14  -1   7   68.89   12.70
 -14  -1   7   90.19   15.80
  14  -1  -7   85.79   14.10
 -14   1   7   65.09   11.90
 -14   1   7  105.19   16.40
  13  -1  -7  545.75   34.90
 -13  -1   7  576.54   37.80
 -13  -1   7  515.25   35.30
  13   1  -7  452.25   34.80
 -13   1   7  583.04   36.00
 -13   1   7  506.35   35.90
 -12  -1   7  343.37   24.60
 -12  -1   7  317.97   23.30
  12  -1  -7  344.57   22.40
 -12   1   7  290.77   23.50
  12   1  -7  294.17   22.50
 -12   1   7  316.87   22.80
 -11  -1   7   -9.00    8.80
 -11  -1   7   -2.60    5.70
  11  -1  -7    2.20    5.10
  11  -1  -7   -1.70    5.50
 -11   1   7    7.30    5.80
  11   1  -7   -1.60    4.80
 -11   1   7   -6.10    5.20
 -10  -1   7  138.69   18.70
 -10  -1   7  159.88   13.80
  10  -1  -7  157.88   13.60
  10  -1  -7  175.48   13.40
  10  -1  -7  157.38   14.90
 -10   1   7  152.98   13.10
  10   1  -7  161.18   12.80
   9  -1  -7 2248.18  130.19
   9  -1  -7 2310.07  130.49
  -9  -1   7 2041.80  130.29
  -9  -1   7 2203.98  130.39
   9  -1  -7 2279.97  130.89
   9   1  -7 2294.97  130.59
   9   1  -7 2156.38  129.89
  -9   1   7 2183.98  130.19
  -9   1   7 2174.08  130.49
  -9   1   7 2013.70  131.89
  -8  -1   7  682.93   43.60
   8  -1  -7  748.83   43.60
   8  -1  -7  741.13   43.70
   8  -1  -7  718.83   44.20
  -8  -1   7  673.23   43.80
  -8   1   7  715.73   45.30
  -8   1   7  718.53   43.50
   8   1  -7  696.63   44.00
   8   1  -7  732.93   43.20
  -8   1   7  713.13   43.90
  -7  -1   7  498.85   31.40
  -7  -1   7  499.95   31.10
   7  -1  -7  500.65   31.70
   7  -1  -7  509.65   31.30
   7  -1  -7  515.35   31.30
   7   1  -7  486.65   31.60
  -7   1   7  524.35   32.60
  -7   1   7  506.25   31.50
  -7   1   7  511.95   31.20
   7   1  -7  515.75   30.60
  -6  -1   7  280.67   17.90
   6  -1  -7  283.47   18.70
   6  -1  -7  289.57   18.20
   6  -1  -7  286.77   18.50
  -6  -1   7  287.47   18.40
  -6   1   7  289.27   18.60
  -6   1   7  289.07   19.30
   6   1  -7  279.17   17.40
   6   1  -7  280.67   18.50
  -6   1   7  284.27   18.10
  -5  -1   7 3030.00  186.98
   5  -1  -7 3100.49  186.98
   5  -1  -7 3202.88  187.28
  -5  -1   7 3110.39  186.88
  -5   1   7 3189.08  187.08
   5   1  -7 3367.56  187.18
  -5   1   7 3212.98  187.38
  -5   1   7 3141.99  186.88
  -4  -1   7  851.01   48.20
  -4  -1   7  815.92   47.60
   4  -1  -7  737.13   47.60
   4  -1  -7  790.72   47.60
  -4  -1   7  710.73   47.60
  -4  -1   7  798.32   47.10
  -4   1   7  842.62   47.90
  -4   1   7  796.52   47.40
  -3  -1   7 2141.69  127.99
   3  -1  -7 2055.99  127.99
  -3  -1   7 2200.78  127.79
   3  -1  -7 2235.28  128.19
  -3  -1   7 2265.47  128.39
  -3  -1   7 2231.48  127.69
  -3   1   7 2180.68  128.09
  -3   1   7 2076.09  128.09
  -3   1   7 2103.39  127.89
  -2  -1   7  696.83   42.90
  -2  -1   7  737.13   42.10
   2  -1  -7  711.33   42.60
   2  -1  -7  681.03   42.60
  -2  -1   7  724.73   42.60
  -2  -1   7  730.33   42.10
  -2   1   7  704.03   42.70
  -2   1   7  713.53   42.70
  -2   1   7  677.93   42.40
  -1  -1   7 1013.30   61.39
  -1  -1   7 1045.00   60.79
  -1  -1   7  972.30   60.79
   1  -1  -7 1046.10   61.39
  -1   1   7 1085.09   61.49
   1   1  -7  989.90   61.39
  -1   1   7 1065.89   61.39
  -1   1   7 1001.00   60.89
   0  -1   7 1558.34   92.99
   0  -1  -7 1476.85   93.39
   0  -1   7 1639.84   93.39
   0  -1  -7 1584.44   93.59
   0   1  -7 1536.75   93.69
   0   1   7 1675.73   93.59
   0   1   7 1509.25   93.09
   0   1   7 1631.24   93.79
   1  -1   7 1247.48   74.19
  -1  -1  -7 1152.88   73.59
  -1  -1  -7 1237.28   74.29
  -1  -1  -7 1224.58   73.99
   1  -1   7 1256.37   73.59
   1   1   7 1235.18   73.89
   1   1   7 1293.97   74.49
   1   1   7 1225.68   73.59
  -1   1  -7 1243.98   74.39
   1   1   7 1310.17   74.09
  -2  -1  -7   59.99    6.70
  -2  -1  -7   66.99    7.50
   2  -1   7   62.79    5.60
  -2  -1  -7   62.99    5.70
   2  -1   7   63.69    6.90
   2   1   7   68.69    7.90
   2   1   7   62.59    6.40
   2   1   7   58.19    5.50
   2   1   7   66.99    6.20
  -2   1  -7   61.49    4.80
  -2   1  -7   68.79    7.50
   3  -1   7   97.49    7.60
   3  -1   7  104.29    7.70
  -3  -1  -7   97.79    8.90
  -3  -1  -7   85.89    9.50
  -3  -1  -7   96.69    7.90
   3  -1   7   88.59    8.50
   3   1   7   95.79    8.00
  -3   1  -7   87.99    7.20
  -3   1  -7   95.89    9.50
   3   1   7   88.99   10.50
   4  -1   7  289.17   19.90
  -4  -1  -7  309.57   19.40
   4  -1   7  287.37   19.00
   4  -1   7  311.67   19.20
  -4  -1  -7  287.67   20.50
  -4  -1  -7  285.67   20.10
   4   1   7  303.97   19.30
  -4   1  -7  286.07   19.00
   4   1   7  310.67   21.70
  -4   1  -7  293.27   20.60
   4   1   7  312.87   19.50
  -5  -1  -7  378.56   26.50
  -5  -1  -7  364.86   26.20
   5  -1   7  412.76   25.00
   5  -1   7  380.26   24.70
  -5  -1  -7  391.86   25.50
   5   1   7  378.36   24.90
  -5   1  -7  415.36   27.00
   5   1   7  406.16   25.20
   5   1   7  421.26   27.90
  -5   1  -7  393.06   25.10
  -6  -1  -7    0.10    5.60
  -6  -1  -7   -4.10    5.40
  -6  -1  -7   -1.00    6.40
   6  -1   7    2.40    3.40
   6  -1   7    2.20    3.90
   6  -1   7    5.20    9.90
   6   1   7    0.80    3.60
  -6   1  -7    1.70    7.10
  -6   1  -7    3.50    4.80
  -6   1  -7   -5.30    4.10
   6   1   7    1.70    4.10
   6   1   7   -4.30    7.70
   7  -1   7   26.40    4.60
   7  -1   7   25.50    5.30
  -7  -1  -7   13.90    8.10
  -7  -1  -7   28.80    7.70
  -7  -1  -7   15.90    9.30
   7   1   7   23.60    4.60
  -7   1  -7   12.90    6.30
  -7   1  -7   25.30    6.80
   7   1   7   22.60    5.00
   8  -1   7    0.80    4.80
  -8  -1  -7    2.70    8.10
  -8  -1  -7   -7.80    7.90
   8  -1   7    5.20    5.10
  -8  -1  -7   -4.90    9.20
   8  -1   7   17.80   12.20
  -8   1  -7    3.00    7.00
  -8   1  -7  -11.00    7.10
   8   1   7   -8.20   10.70
  -8   1  -7  -19.40    9.80
  -9  -1  -7   76.19   13.00
  -9  -1  -7   79.29   13.80
  -9  -1  -7  103.09   13.60
  -9   1  -7   80.89   11.60
  -9   1  -7   64.69   11.20
  -9   1  -7   63.19   14.20
   9   1   7   82.39   15.60
 -10  -1  -7   15.20   12.60
 -10  -1  -7    4.20   11.10
 -10   1  -7    7.00   14.40
 -10   1  -7   11.90   17.10
  10   1   7    9.00   13.80
 -11  -1  -7  195.18   25.10
 -11  -1  -7  226.48   25.50
 -11  -1  -7  192.48   28.80
  11   1   7  140.99   21.30
 -11   1  -7  207.18   25.00
 -11   1  -7  164.38   31.00
 -12  -1  -7   19.20   17.10
 -12  -1  -7   -3.30   14.90
 -12  -1  -7   -4.00   14.90
  12  -1   7   20.60   15.50
  12   1   7  -10.40   15.50
 -12   1  -7   -0.30   14.10
 -12   1  -7  -14.20   17.80
 -15  -2   7  113.89   20.40
 -15   2   7   85.59   15.00
  14  -2  -7   55.29    8.70
 -14  -2   7   70.69   14.50
 -14  -2   7   63.49   11.90
 -14   2   7   44.60   11.90
 -14   2   7   64.79   12.20
 -13  -2   7   37.00   12.10
 -13  -2   7   30.00    9.50
  13  -2  -7   17.60    6.80
 -13   2   7    5.50    9.00
 -13   2   7   18.10    9.90
  12  -2  -7    4.90    5.70
 -12  -2   7    5.70    7.70
 -12  -2   7   18.30   10.20
  12  -2  -7    8.60    7.00
 -12   2   7   -3.00    8.30
 -12   2   7   -2.50    7.50
  12   2  -7   -0.60    3.80
 -11  -2   7  352.26   25.40
  11  -2  -7  367.86   24.00
 -11  -2   7  428.76   28.70
 -11  -2   7  287.27   25.50
 -11   2   7  398.96   25.90
 -11   2   7  348.57   25.50
  11   2  -7  325.07   22.40
  10  -2  -7   76.79    9.50
 -10  -2   7   68.09   11.50
  10  -2  -7   55.59    9.70
 -10  -2   7   83.69   13.60
 -10  -2   7   44.80    8.50
 -10   2   7   62.79   10.00
 -10   2   7   76.49   11.80
   9  -2  -7    6.30    4.90
   9  -2  -7   -0.50    4.30
  -9  -2   7   12.00    6.00
  -9  -2   7   -0.40    5.20
   9   2  -7    1.00    5.40
  -9   2   7   11.10    8.60
  -9   2   7   -2.90    4.90
  -8  -2   7  125.59   12.20
   8  -2  -7  146.59   10.90
   8  -2  -7  128.69   12.90
  -8  -2   7  131.89   12.00
  -8   2   7  130.59   12.40
   8   2  -7  127.19   11.90
  -8   2   7  123.69   11.10
  -8   2   7  153.38   13.60
   7  -2  -7  787.82   45.50
   7  -2  -7  741.43   46.00
  -7  -2   7  676.83   45.20
  -7  -2   7  724.73   45.50
  -7  -2   7  748.73   46.30
  -7   2   7  789.12   45.90
  -7   2   7  712.33   44.90
   7   2  -7  776.32   45.60
  -7   2   7  726.63   46.20
   6  -2  -7   57.29    8.10
   6  -2  -7   61.09    7.60
  -6  -2   7   68.79    6.70
  -6  -2   7   56.29    8.90
  -6  -2   7   54.69    8.00
  -6   2   7   60.09    6.60
   6   2  -7   62.99    8.00
  -6   2   7   71.69    8.50
  -6   2   7   72.99    8.60
   5  -2  -7  321.07   19.80
  -5  -2   7  301.17   20.30
  -5  -2   7  299.87   19.40
  -5  -2   7  281.27   18.40
   5  -2  -7  294.37   19.70
  -5   2   7  285.07   19.80
  -5   2   7  310.07   18.70
  -5   2   7  302.17   19.90
   5   2  -7  301.87   19.30
  -4  -2   7  552.44   34.90
  -4  -2   7  554.14   34.00
  -4  -2   7  585.64   35.70
   4  -2  -7  583.24   35.40
   4  -2  -7  553.74   35.20
  -4   2   7  595.54   35.30
  -4   2   7  577.84   35.40
  -4   2   7  578.84   34.40
   3  -2  -7  382.86   24.90
  -3  -2   7  414.66   25.20
  -3  -2   7  399.06   24.50
   3  -2  -7  396.96   24.80
  -3   2   7  378.96   24.80
  -3   2   7  393.76   24.90
  -3   2   7  388.76   23.90
  -2  -2   7   35.80    5.40
   2  -2  -7   36.40    5.00
  -2  -2   7   33.20    6.20
   2  -2  -7   46.90    5.80
   2   2  -7   38.40    6.10
  -2   2   7   29.40    4.60
  -2   2   7   43.80    5.90
   1  -2  -7  602.94   35.60
   1  -2  -7  585.24   35.30
  -1  -2   7  539.75   35.40
  -1  -2   7  559.94   34.90
   1   2  -7  564.84   35.50
  -1   2   7  549.54   34.20
  -1   2   7  598.04   34.80
  -1   2   7  600.54   35.50
  -1   2   7  582.04   35.30
   0  -2   7 1129.69   64.49
   0  -2  -7 1097.89   65.69
   0  -2   7 1088.09   65.89
   0  -2  -7 1124.49   65.89
   0   2  -7 1042.80   65.79
   0   2   7 1060.89   64.59
   0   2   7 1097.29   65.89
   0   2   7 1090.09   65.29
   0   2   7 1122.79   65.69
   1  -2   7   31.00    5.40
  -1  -2  -7   21.10    5.00
   1  -2   7   34.60    3.70
  -1  -2  -7   28.40    5.30
   1  -2   7   20.50    4.50
  -1   2  -7   30.50    5.50
   1   2   7   31.30    4.00
   1   2   7   27.70    5.40
   1   2   7   31.00    4.60
  -2  -2  -7   17.50    3.80
  -2  -2  -7   24.80    5.40
   2  -2   7   18.80    4.90
   2  -2   7   22.40    5.00
   2  -2   7   22.70    3.30
  -2   2  -7   24.20    5.60
   2   2   7   20.80    5.50
   2   2   7   19.90    4.10
   2   2   7   27.10    4.10
  -3  -2  -7  520.45   35.00
   3  -2   7  583.14   34.70
  -3  -2  -7  544.95   36.00
   3  -2   7  565.34   35.70
   3  -2   7  594.34   34.70
   3   2   7  571.14   35.20
   3   2   7  567.04   35.10
  -3   2  -7  551.24   36.10
   3   2   7  618.14   36.80
  -4  -2  -7 1029.80   65.19
  -4  -2  -7 1063.29   67.29
   4  -2   7 1104.79   66.09
   4  -2   7 1158.68   65.99
   4  -2   7 1053.99   66.49
  -4  -2  -7 1101.99   66.49
   4   2   7 1136.99   66.49
   4   2   7 1215.28   67.99
   4   2   7 1080.29   66.29
  -4   2  -7 1060.69   67.29
   5  -2   7   75.59    7.80
   5  -2   7   76.49    9.00
  -5  -2  -7   58.49    9.70
  -5  -2  -7   75.89    7.50
   5   2   7   88.19    9.60
   5   2   7   77.89    9.10
   5   2   7   74.59   10.70
  -6  -2  -7   25.70    5.00
   6  -2   7   27.70    5.80
  -6  -2  -7   13.60    8.40
   6  -2   7   22.70    4.40
   6   2   7   24.80    5.60
  -6   2  -7   20.90    3.30
  -6   2  -7   20.90    8.60
  -7  -2  -7  224.88   16.70
  -7  -2  -7  191.38   21.00
   7  -2   7  187.38   15.30
   7  -2   7  244.08   17.00
  -7   2  -7  208.38   15.40
   7   2   7  202.88   23.30
  -7   2  -7  235.38   22.10
  -8  -2  -7  400.36   32.40
   8  -2   7  370.56   27.10
  -8  -2  -7  487.25   28.80
  -8   2  -7  407.16   27.60
   8   2   7  354.06   33.70
  -8   2  -7  462.85   33.50
  -9  -2  -7  269.47   22.40
  -9  -2  -7  243.48   27.20
  -9  -2  -7  284.77   26.30
  -9   2  -7  245.88   20.50
   9   2   7  198.08   28.40
  -9   2  -7  246.68   28.30
 -10  -2  -7   24.10   14.00
 -10  -2  -7    7.60   11.00
 -10  -2  -7   34.50   14.40
  10   2   7   11.80   13.20
 -10   2  -7   14.60    9.20
 -10   2  -7   12.30   17.00
 -11  -2  -7    2.10   16.30
 -11  -2  -7  -10.10   14.80
 -11  -2  -7   -5.20   13.00
  11  -2   7   19.80   15.40
 -11   2  -7  -18.30   18.50
  11   2   7  -11.10   13.80
 -13  -3   7   -3.90   10.50
 -13  -3   7   45.10   16.60
  12  -3  -7   51.29    8.10
 -12  -3   7   80.89   12.10
 -12   3   7   67.19   11.70
 -11  -3   7    3.10    8.60
 -11  -3   7   22.30   13.00
  11  -3  -7   -0.10    5.80
 -11   3   7    1.30    8.40
 -11   3   7   -2.20    8.50
 -10  -3   7   16.00    8.10
  10  -3  -7   20.90    6.70
 -10   3   7   26.40    8.20
 -10   3   7   13.20    7.60
  -9  -3   7   23.20    9.30
  -9  -3   7   22.20    6.40
   9  -3  -7    4.90    6.10
  -9  -3   7   -4.90    7.10
  -9   3   7    7.40    7.10
  -9   3   7    0.80    6.20
   8  -3  -7  355.26   22.90
  -8  -3   7  280.27   23.00
  -8  -3   7  325.97   23.50
  -8  -3   7  318.67   24.10
  -8  -3   7  324.77   25.00
  -8   3   7  330.17   22.20
  -8   3   7  336.07   23.20
   8   3  -7  314.67   22.60
  -7  -3   7   90.19   12.10
   7  -3  -7  107.59   11.40
  -7  -3   7   96.49   13.20
  -7  -3   7   85.69   12.90
  -7   3   7  127.29   14.20
  -7   3   7   86.89   10.00
   7   3  -7  101.79   10.40
  -7   3   7  100.69   11.80
  -6  -3   7   -4.20    5.00
  -6  -3   7   -4.00    6.10
  -6  -3   7   13.80    5.60
   6  -3  -7    4.50    4.80
  -6  -3   7   -3.70    4.00
  -6   3   7   -3.20    3.60
  -6   3   7    3.90    5.70
   6   3  -7    0.00    3.70
  -6   3   7   16.80    5.60
  -5  -3   7   53.19    8.60
  -5  -3   7   80.79    9.30
  -5  -3   7   53.79    8.30
   5  -3  -7   79.99    9.90
  -5  -3   7   62.19    6.60
  -5   3   7   80.79    9.60
  -5   3   7   84.89   10.60
  -5   3   7   54.79    6.50
  -4  -3   7  557.34   35.10
  -4  -3   7  569.44   34.40
  -4  -3   7  556.44   32.80
   4  -3  -7  580.74   34.90
   4  -3  -7  553.94   34.80
  -4   3   7  495.45   33.00
  -4   3   7  516.45   33.70
  -4   3   7  577.34   35.00
  -4   3   7  549.95   34.60
   3  -3  -7  621.24   38.40
  -3  -3   7  644.74   39.00
  -3  -3   7  651.93   38.10
   3  -3  -7  544.35   40.20
  -3   3   7  654.13   38.60
  -3   3   7  656.93   36.80
  -3   3   7  611.14   38.30
  -3   3   7  612.94   37.60
  -3   3   7  551.74   37.10
   2  -3  -7  125.09   11.30
  -2  -3   7  139.59   10.60
  -2  -3   7  127.69   11.90
  -2   3   7  131.29   11.60
  -2   3   7  121.49    9.80
  -2   3   7  132.99    8.80
  -2   3   7  130.49   12.00
   1  -3  -7  690.03   41.00
  -1  -3   7  669.53   40.40
  -1  -3   7  669.13   41.50
  -1   3   7  712.53   41.20
  -1   3   7  564.94   40.20
  -1   3   7  675.13   41.20
   1   3  -7  666.43   41.10
   0  -3  -7  128.09   10.90
   0  -3  -7   84.69   16.40
   0  -3   7  116.39    9.80
   0  -3   7  126.29   12.30
   0   3  -7  135.59   12.10
   0   3   7  131.49   10.90
   0   3   7  116.69   12.00
   0   3   7  106.59   10.20
  -1  -3  -7  356.66   23.70
   1  -3   7  325.57   22.70
  -1  -3  -7  364.66   24.60
   1  -3   7  351.06   24.50
   1  -3   7  370.26   22.20
   1   3   7  356.86   23.70
   1   3   7  372.66   24.50
  -1   3  -7  375.36   24.50
   1   3   7  370.46   23.70
   2  -3   7   93.59    8.30
  -2  -3  -7   92.79   12.10
   2  -3   7   89.79    8.30
   2  -3   7   96.09   11.10
   2  -3   7   80.79    9.80
   2  -3   7   80.79    8.30
  -2  -3  -7   87.59   12.00
   2   3   7   93.29   12.40
   2   3   7  115.09   10.70
   2   3   7   92.49   10.00
  -3  -3  -7  683.13   43.80
   3  -3   7  593.24   41.90
   3  -3   7  756.52   43.90
   3  -3   7  684.43   42.80
   3   3   7  691.23   43.10
   3   3   7  702.23   42.80
  -3   3  -7  678.23   43.80
   3   3   7  721.43   43.90
  -4  -3  -7    8.90    7.60
   4  -3   7    9.40    5.10
   4  -3   7    4.60    3.80
   4  -3   7    9.30    6.20
   4   3   7   15.10    7.50
  -4   3  -7   21.30    7.90
   4   3   7   15.10    5.50
   4   3   7   12.40    6.00
   5  -3   7  122.99   14.10
   5  -3   7  106.29   10.60
  -5  -3  -7  113.89   16.60
   5  -3   7  133.19   13.60
  -5   3  -7  151.08   16.90
   5   3   7  162.28   14.20
   6  -3   7   35.90    5.90
   6  -3   7   63.69    9.40
   6  -3   7   77.69   12.60
  -6  -3  -7   46.90   11.00
  -6   3  -7   61.79   12.10
   6   3   7   55.69   10.80
   7  -3   7  276.17   20.10
   7  -3   7  326.07   23.20
  -7  -3  -7  262.57   26.40
  -7   3  -7  327.67   27.70
   7   3   7  261.77   25.80
   8  -3   7   18.60   12.40
  -8  -3  -7    5.00   12.10
   8  -3   7    1.60    5.80
  -8   3  -7   -8.70   12.30
   8   3   7   -1.50   10.60
  -9  -3  -7   20.30   15.20
  -9   3  -7   43.60   16.70
   9   3   7   -0.80   11.80
  -9  -4   7    4.60   10.00
  -9  -4   7   35.30   11.50
   9  -4  -7   26.20    7.90
  -9   4   7   25.30   10.30
  -9   4   7    4.40   10.90
  -8  -4   7   48.90   11.30
   8  -4  -7   39.10    8.80
  -8   4   7   43.00    9.60
   7  -4  -7   83.29   12.60
  -7  -4   7   69.89   11.40
  -7   4   7   79.99   14.20
  -7   4   7   72.39   11.60
  -6  -4   7  162.78   18.10
   6  -4  -7  156.48   15.70
  -6   4   7  149.09   16.90
  -6   4   7  170.68   15.50
  -5  -4   7   40.70    8.60
  -5  -4   7   32.80    6.30
   5  -4  -7   42.50    7.70
  -5   4   7   38.80    8.60
  -4  -4   7    1.60    4.20
  -4  -4   7    0.20   13.80
  -4  -4   7    0.80    6.60
   4  -4  -7   -2.00    6.10
  -4   4   7   16.80    6.50
  -4   4   7    7.60    7.20
   3  -4  -7   61.19   11.20
  -3  -4   7   49.20    6.60
  -3  -4   7   67.59   11.40
  -3   4   7   63.79    9.00
  -3   4   7   69.19   11.30
  -2  -4   7  144.49   13.30
  -2  -4   7  137.09   10.00
   2  -4  -7  123.99   13.90
  -2   4   7  141.19   15.10
  -2   4   7  159.28   13.70
  -1  -4   7   24.30    5.70
  -1  -4   7   29.50    5.10
   1  -4  -7   13.90    7.00
  -1   4   7   21.00    7.20
  -1   4   7   30.50    6.30
   0  -4  -7   10.60    7.30
   0  -4   7   25.10    5.20
   0  -4   7   27.20    4.20
   0   4   7   30.90    6.60
   0   4   7   22.20    6.90
   0   4  -7   29.30    6.90
  -1  -4  -7   21.60    7.80
   1  -4   7   32.80    4.90
   1  -4   7   30.40    5.20
  -1   4  -7   33.70    8.00
   1   4   7   21.40    7.40
  -2  -4  -7   20.90    8.70
   2  -4   7   21.50    4.80
   2  -4   7   29.40    5.40
   2   4   7   20.50    7.60
   2   4   7   27.90    7.00
  -2   4  -7   33.10    8.50
  -3  -4  -7    1.50    8.60
   3  -4   7    9.60    5.50
   3  -4   7    8.30    4.30
   3   4   7    8.00    7.40
  -3   4  -7   13.70    8.80
   4  -4   7   21.60    6.40
  -4  -4  -7   22.70   10.10
   4   4   7   19.80    8.80
  -4   4  -7   40.50   10.60
  -5  -4  -7   -2.00   10.40
   5   4   7   -2.40    8.20
  -5   4  -7   23.50   11.10
  -6  -4  -7   -0.20   11.40
   6  -4   7   -8.20    7.20
   6   4   7   -4.70   10.90
  -6   4  -7   13.10   12.30
 -16   0   8  388.36   31.70
 -16   0   8  408.36   33.00
 -15   0   8    7.00    9.30
  15   0  -8   -0.10   11.50
 -15   0   8    5.30   10.00
 -14   0   8  160.98   17.00
 -14   0   8  168.68   19.10
 -13   0   8    1.80    6.30
  13   0  -8    1.00   10.40
 -13   0   8    1.80    7.10
 -12   0   8  874.91   52.79
 -12   0   8  814.02   52.69
  11   0  -8   -0.40    5.90
 -11   0   8   -0.50    5.20
 -11   0   8    3.60    5.50
 -11   0   8  -14.80   11.50
  11   0  -8    0.90    5.50
  11   0  -8   -6.20    7.20
  10   0  -8  311.17   22.30
 -10   0   8  330.47   22.10
 -10   0   8  300.47   28.10
 -10   0   8  346.97   21.90
  10   0  -8  323.87   22.30
   9   0  -8    1.80    4.20
  -9   0   8    2.30    4.10
   9   0  -8    0.80    4.60
  -9   0   8    7.40    7.60
  -9   0   8   -3.50    3.70
   9   0  -8   -5.50    4.10
   8   0  -8 1695.03  102.49
  -8   0   8 1664.03  102.39
   8   0  -8 1730.33  102.69
  -8   0   8 1793.92  102.39
  -8   0   8 1718.63  104.19
  -7   0   8    1.60    3.30
   7   0  -8    0.10    3.40
   7   0  -8   -0.70    2.90
  -7   0   8    1.80    5.00
   7   0  -8   -0.70    3.10
   6   0  -8  435.56   26.00
  -6   0   8  406.36   25.80
   6   0  -8  428.06   26.00
   6   0  -8  406.06   25.70
  -6   0   8  396.96   25.70
  -6   0   8  430.56   26.90
   5   0  -8    1.50    2.60
  -5   0   8    4.20    3.30
  -5   0   8    0.40    2.50
  -5   0   8    1.40    2.40
  -4   0   8 1708.03   98.99
   4   0  -8 1611.74   98.79
  -4   0   8 1620.34  100.49
   4   0  -8 1680.73   98.89
  -4   0   8 1723.33   98.89
  -3   0   8    1.10    2.20
  -3   0   8    0.50    2.40
  -3   0   8   -1.70    2.10
   3   0  -8    1.10    2.10
  -3   0   8    0.40    2.90
   3   0  -8   -1.30    2.20
  -2   0   8  474.65   28.40
   2   0  -8  468.95   28.30
   2   0  -8  460.65   28.30
  -2   0   8  475.05   28.40
  -2   0   8  454.85   28.60
  -1   0   8   -2.00    2.30
  -1   0   8   -2.90    2.70
   1   0  -8   -2.10    2.40
   1   0  -8   -1.60    2.40
   1   0  -8   -0.20    2.10
  -1   0   8    2.60    2.10
   0   0  -8  343.37   20.10
   0   0  -8  301.67   19.40
   0   0   8  307.07   19.60
   0   0   8  320.07   19.50
   0   0   8  302.17   19.80
   0   0  -8  299.77   19.60
   1   0   8   -0.20    2.30
   1   0   8    0.20    3.00
  -1   0  -8   -2.70    4.00
   1   0   8   -3.70    2.50
  -1   0  -8   -2.60    2.90
  -1   0  -8   -1.90    2.50
  -2   0  -8  967.50   59.89
  -2   0  -8  993.10   59.79
   2   0   8 1024.40   60.29
   2   0   8  989.70   59.69
  -2   0  -8  964.90   60.79
   2   0   8 1037.90   59.69
   3   0   8    1.40    2.80
  -3   0  -8    1.70    3.90
   3   0   8   -2.40    4.90
   3   0   8   -1.80    3.10
  -3   0  -8   -0.50    5.80
   3   0   8    6.20    3.00
   4   0   8  290.57   19.10
  -4   0  -8  330.97   20.30
  -4   0  -8  250.17   23.10
  -4   0  -8  294.67   20.00
   4   0   8  301.97   19.30
  -5   0  -8    2.60    4.90
  -5   0  -8    3.70    5.40
   5   0   8   -3.70    3.00
   5   0   8    5.90    8.00
  -5   0  -8  -15.70   16.40
   5   0   8    0.10    3.50
  -6   0  -8 1958.40  127.49
  -6   0  -8 2081.59  129.59
   6   0   8 2044.20  126.59
   6   0   8 2300.57  126.89
  -6   0  -8 2273.37  127.99
  -7   0  -8    0.10    7.10
  -7   0  -8   13.70    8.10
   7   0   8   -2.50   12.10
   7   0   8   -1.90    2.40
  -7   0  -8   -7.50    7.30
   7   0   8    0.60    4.20
   8   0   8   33.80   13.40
  -8   0  -8   12.20    8.80
  -8   0  -8   29.70   10.80
  -9   0  -8    4.30   10.10
  -9   0  -8   -1.40   11.60
   9   0   8    3.00   13.60
 -10   0  -8  783.72   57.59
 -10   0  -8  924.71   58.89
  11   0   8    9.40   15.80
 -11   0  -8   -1.10   13.90
 -11   0  -8  -25.60   15.10
 -12   0  -8    3.90   16.00
 -12   0  -8    4.60   17.80
  12   0   8   25.40   17.10
 -16   1   8   11.10   11.80
  15  -1  -8   51.79   10.90
 -15  -1   8   53.09   10.90
 -15  -1   8   48.30   12.50
 -15   1   8   49.40   11.00
 -15   1   8   32.80   11.40
 -14  -1   8   11.00   10.00
 -14  -1   8    8.10    7.20
  14  -1  -8    7.00    7.50
 -14   1   8    7.90    8.40
 -14   1   8    2.00    8.70
  14   1  -8   21.10    9.60
  13  -1  -8   25.50    6.80
 -13  -1   8   36.00    8.90
 -13  -1   8   14.80    7.00
 -13   1   8   21.70    8.10
  13   1  -8   18.90    7.10
 -13   1   8   22.70    7.80
 -12  -1   8   35.00    7.80
  12  -1  -8   53.79    9.50
 -12  -1   8   39.60    8.20
 -12   1   8   39.00    7.90
 -12   1   8   27.00    7.40
  12   1  -8   30.80    6.90
 -11  -1   8  533.15   35.70
  11  -1  -8  626.74   35.50
  11  -1  -8  523.65   36.00
 -11   1   8  545.35   36.00
 -11   1   8  574.74   35.60
  11   1  -8  534.05   35.00
 -10  -1   8   68.59    9.80
 -10  -1   8   56.89    8.80
  10  -1  -8   65.99    9.80
  10  -1  -8   72.49    9.00
  10  -1  -8   45.20    7.40
 -10   1   8   64.89    9.50
 -10   1   8   46.30    6.80
  10   1  -8   38.80    6.80
  10   1  -8   65.59    7.80
  -9  -1   8  384.16   25.60
  -9  -1   8  401.56   25.70
   9  -1  -8  410.56   25.40
   9  -1  -8  364.36   26.00
   9  -1  -8  402.46   25.90
   9   1  -8  407.66   24.80
  -9   1   8  412.96   28.70
  -9   1   8  391.86   25.40
  -9   1   8  388.66   25.90
   9   1  -8  384.96   26.10
   8  -1  -8  642.84   40.70
  -8  -1   8  626.34   40.00
   8  -1  -8  637.84   40.10
  -8  -1   8  638.74   40.40
   8  -1  -8  671.83   40.30
  -8   1   8  654.83   40.50
   8   1  -8  664.33   39.50
   8   1  -8  656.43   40.60
  -8   1   8  680.83   40.10
  -8   1   8  678.93   42.00
  -7  -1   8 1111.89   71.29
   7  -1  -8 1261.97   72.09
   7  -1  -8 1207.68   71.69
   7  -1  -8 1185.88   71.69
  -7  -1   8 1196.58   71.79
  -7   1   8 1183.38   71.79
  -7   1   8 1220.68   72.69
  -7   1   8 1233.68   71.49
   7   1  -8 1205.48   71.99
   7   1  -8 1169.48   70.99
  -6  -1   8 1159.68   73.09
  -6  -1   8 1198.18   73.49
   6  -1  -8 1216.28   73.49
   6  -1  -8 1287.67   73.79
   6   1  -8 1261.77   73.69
  -6   1   8 1273.17   74.19
  -6   1   8 1222.98   73.59
   6   1  -8 1234.78   72.69
  -6   1   8 1222.48   73.29
   5  -1  -8  760.62   45.60
  -5  -1   8  711.73   45.90
  -5  -1   8  736.53   45.10
   5  -1  -8  783.32   45.80
  -5  -1   8  737.13   45.60
  -5  -1   8  824.82   46.50
  -5   1   8  739.13   45.70
   5   1  -8  767.62   45.60
  -5   1   8  765.12   46.00
  -5   1   8  734.23   45.30
  -4  -1   8 1320.87   77.39
   4  -1  -8 1284.97   76.99
  -4  -1   8 1257.17   76.39
   4  -1  -8 1254.37   76.79
  -4  -1   8 1315.47   76.89
  -4  -1   8 1340.37   76.79
  -4   1   8 1280.77   76.69
  -4   1   8 1244.38   76.89
  -4   1   8 1318.57   77.09
  -3  -1   8 1641.84   94.89
  -3  -1   8 1655.03   94.49
  -3  -1   8 1523.35   94.29
   3  -1  -8 1652.83   94.89
  -3  -1   8 1617.74   95.09
   3  -1  -8 1500.15   94.79
  -3   1   8 1534.15   94.79
  -3   1   8 1645.84   94.69
  -3   1   8 1603.54   94.89
  -2  -1   8 3651.53  206.98
  -2  -1   8 3498.75  207.28
   2  -1  -8 3415.76  207.08
  -2  -1   8 3526.75  207.18
  -2  -1   8 3734.23  207.48
   2  -1  -8 3343.07  207.08
  -2   1   8 3352.86  207.18
  -2   1   8 3589.74  207.18
  -2   1   8 3491.05  206.98
   1  -1  -8  422.16   25.00
  -1  -1   8  408.46   24.30
  -1  -1   8  369.96   24.40
   1  -1  -8  412.56   25.20
  -1  -1   8  399.36   25.10
  -1   1   8  399.46   24.60
  -1   1   8  398.16   25.20
  -1   1   8  405.06   25.00
   1   1  -8  411.46   25.20
   0  -1   8  621.94   35.90
   0  -1   8  608.34   36.20
   0  -1  -8  602.34   36.40
   0  -1   8  593.64   36.70
   0  -1  -8  584.04   36.60
   0   1   8  613.24   36.90
   0   1   8  573.94   36.00
   0   1  -8  592.84   36.70
   0   1   8  608.54   36.50
   1  -1   8 1807.32  109.59
   1  -1   8 1900.11  109.09
  -1  -1  -8 1711.63  109.09
   1  -1   8 2086.69  109.69
  -1  -1  -8 1804.22  109.49
  -1  -1  -8 1848.62  109.69
   1   1   8 1746.63  109.09
  -1   1  -8 1812.02  109.79
   1   1   8 1816.32  109.89
   1   1   8 1885.41  109.49
   1   1   8 1879.01  109.39
  -2  -1  -8 3486.35  212.58
  -2  -1  -8 3692.23  212.48
   2  -1   8 4139.49  212.98
   2  -1   8 3740.43  211.98
  -2  -1  -8 3299.77  211.98
   2  -1   8 3589.14  212.48
  -2   1  -8 3409.86  212.58
   2   1   8 3351.06  211.88
   2   1   8 3512.35  212.28
  -2   1  -8 3466.95  211.58
   2   1   8 3741.53  212.98
   2   1   8 3740.73  212.48
   3  -1   8  412.56   23.30
   3  -1   8  339.87   23.70
  -3  -1  -8  354.86   24.40
  -3  -1  -8  360.06   23.90
   3  -1   8  366.66   23.30
  -3  -1  -8  369.26   23.40
   3   1   8  385.76   23.50
   3   1   8  356.86   23.10
   3   1   8  397.56   23.80
  -3   1  -8  351.66   22.80
  -3   1  -8  375.26   24.60
   3   1   8  396.96   25.50
  -4  -1  -8    3.50    4.10
   4  -1   8    3.20    3.30
  -4  -1  -8    2.50    4.10
   4  -1   8   -1.30    4.40
   4  -1   8    4.50    3.30
   4  -1   8    0.60    7.30
  -4  -1  -8   -1.90    5.10
   4   1   8   -3.40    6.10
   4   1   8    5.40    3.20
  -4   1  -8    8.60    3.30
  -4   1  -8    2.90    5.30
   4   1   8    0.30    3.40
  -5  -1  -8  615.34   36.90
   5  -1   8  564.64   36.70
   5  -1   8  619.64   36.50
  -5  -1  -8  561.54   37.70
   5  -1   8  569.24   36.30
  -5  -1  -8  583.94   37.90
  -5   1  -8  622.44   38.20
  -5   1  -8  562.04   36.40
   5   1   8  630.84   39.30
   5   1   8  540.75   36.30
   5   1   8  621.44   36.70
  -6  -1  -8 1618.54  101.69
  -6  -1  -8 1798.12  100.99
   6  -1   8 1714.13  100.39
  -6  -1  -8 1599.54  101.79
   6  -1   8 1613.34  100.19
   6   1   8 1706.03  104.39
   6   1   8 1604.64  100.29
  -6   1  -8 1647.74  100.49
  -6   1  -8 1826.32  102.29
   7  -1   8   43.90    8.10
   7  -1   8  115.49   25.00
  -7  -1  -8   51.89   10.00
   7  -1   8   67.89    9.20
  -7  -1  -8   56.99    8.90
  -7   1  -8   57.49   11.30
   7   1   8   65.89   12.20
  -7   1  -8   54.09   10.20
  -7   1  -8   48.90    7.90
  -8  -1  -8  132.29   21.00
  -8  -1  -8  185.78   18.90
   8   1   8  203.58   23.60
  -8   1  -8  170.18   20.90
  -8   1  -8  144.39   17.30
  -8   1  -8  205.68   17.50
  -9  -1  -8  139.99   22.30
  -9  -1  -8  165.58   20.30
   9   1   8  171.78   24.40
  -9   1  -8  132.39   22.90
  -9   1  -8  157.78   18.60
 -10  -1  -8  283.47   26.90
 -10  -1  -8  243.58   30.20
  10   1   8  242.28   29.80
 -10   1  -8  270.27   37.00
 -10   1  -8  264.87   30.20
 -11  -1  -8    3.20   14.30
  11  -1   8   49.90   16.30
 -11  -1  -8   21.70   15.40
  11   1   8   13.60   15.90
 -11   1  -8    7.10   16.80
 -11   1  -8   36.40   13.60
 -12  -1  -8  257.27   36.60
 -12  -1  -8  195.78   30.80
  12   1   8  222.88   32.80
 -12   1  -8  178.48   35.00
 -12   1  -8  199.38   30.60
 -14  -2   8   69.09   12.00
  14  -2  -8   81.49   12.50
 -14   2   8   94.09   13.20
 -14   2   8   63.89   12.10
  13  -2  -8   30.50    7.60
 -13  -2   8   43.80    8.90
 -13   2   8   26.50    9.40
 -13   2   8   49.10   10.10
 -12  -2   8   -0.30    7.70
  12  -2  -8    1.10    5.70
 -12  -2   8    8.70    9.60
  12  -2  -8   -4.70    6.90
 -12   2   8    1.90    7.30
 -11  -2   8  530.85   35.30
  11  -2  -8  527.25   34.50
  11  -2  -8  526.85   35.20
 -11  -2   8  576.94   36.90
 -11   2   8  564.14   35.10
 -11   2   8  513.95   35.90
  10  -2  -8  230.98   18.10
 -10  -2   8  240.08   19.70
  10  -2  -8  260.47   18.10
 -10  -2   8  238.98   19.20
 -10   2   8  253.97   18.30
 -10   2   8  250.57   19.50
   9  -2  -8   91.39   10.20
  -9  -2   8   91.89   11.10
   9  -2  -8   82.99    9.60
  -9  -2   8   78.29   10.40
  -9   2   8   83.19   11.20
  -9   2   8   60.09    9.50
   8  -2  -8   48.60    8.40
  -8  -2   8   33.60    6.10
  -8  -2   8   43.20    8.20
  -8  -2   8   43.90    8.30
  -8   2   8   64.49   11.00
   8   2  -8   34.30    6.30
  -8   2   8   56.59    9.30
  -8   2   8   41.70    7.20
  -7  -2   8  866.31   52.39
  -7  -2   8  887.61   53.49
   7  -2  -8  812.92   52.69
  -7  -2   8  806.92   51.79
   7  -2  -8  879.61   52.39
  -7   2   8  870.51   51.79
  -7   2   8  863.01   52.59
  -7   2   8  861.21   53.09
   7   2  -8  889.71   52.49
  -6  -2   8  831.82   49.40
  -6  -2   8  767.82   48.50
  -6  -2   8  805.32   50.29
   6  -2  -8  790.22   49.60
   6  -2  -8  809.72   49.30
  -6   2   8  832.42   48.70
  -6   2   8  826.92   49.50
  -6   2   8  803.02   49.80
   6   2  -8  827.22   49.30
   5  -2  -8   97.89    9.80
  -5  -2   8  104.59    9.30
   5  -2  -8   99.09    9.60
  -5  -2   8  107.49    7.50
  -5  -2   8  114.59   10.70
  -5   2   8  107.09    9.90
  -5   2   8  113.19   10.00
  -5   2   8  113.69    8.20
   4  -2  -8  570.04   34.70
   4  -2  -8  560.24   34.50
  -4  -2   8  590.94   35.20
  -4  -2   8  551.84   34.30
  -4  -2   8  540.25   33.20
  -4   2   8  545.75   34.60
  -4   2   8  556.14   34.50
  -4   2   8  547.85   33.70
   3  -2  -8  617.94   36.40
  -3  -2   8  607.64   36.60
   3  -2  -8  550.44   36.10
  -3  -2   8  585.14   35.90
  -3  -2   8  589.34   34.80
  -3   2   8  578.44   36.30
  -3   2   8  583.94   36.30
  -3   2   8  594.44   35.50
  -2  -2   8  750.12   45.90
   2  -2  -8  748.23   45.60
  -2  -2   8  750.82   45.30
   2  -2  -8  772.92   45.80
  -2   2   8  760.32   45.60
  -2   2   8  715.33   44.70
  -2   2   8  755.52   45.70
   2   2  -8  749.73   45.60
  -1  -2   8   48.00    7.20
  -1  -2   8   52.09    6.40
   1  -2  -8   45.40    7.80
  -1  -2   8   57.49    4.00
  -1  -2   8   60.59    5.70
   1  -2  -8   52.59    6.80
  -1   2   8   45.20    4.70
  -1   2   8   55.89    7.80
   1   2  -8   57.99    7.60
  -1   2   8   64.69    7.40
  -1   2   8   59.59    6.00
   0  -2  -8 1461.35   83.09
   0  -2   8 1351.56   82.89
   0  -2   8 1429.66   81.69
   0  -2  -8 1395.66   82.79
   0   2   8 1295.37   81.69
   0   2   8 1391.26   82.79
   0   2  -8 1320.97   82.89
   0   2   8 1416.06   83.09
   0   2   8 1398.56   82.39
  -1  -2  -8   31.70    6.20
   1  -2   8   37.00    5.70
  -1  -2  -8   41.20    5.90
   1  -2   8   37.80    4.30
  -1   2  -8   31.10    5.90
   1   2   8   29.90    6.10
   1   2   8   42.30    6.00
   1   2   8   35.90    6.70
  -2  -2  -8   93.59    8.90
   2  -2   8   97.99    7.80
   2  -2   8   74.59    9.80
  -2  -2  -8   90.09   10.70
   2   2   8   93.49   11.80
  -2   2  -8  109.89   11.10
   2   2   8   97.59    8.60
   2   2   8  104.29    9.20
   3  -2   8   40.90    6.30
  -3  -2  -8   35.30    6.60
  -3  -2  -8   39.00    7.10
   3  -2   8   35.90    6.40
   3  -2   8   41.40    6.30
   3   2   8   45.80    7.10
  -3   2  -8   52.89   10.10
   3   2   8   36.60    5.20
   3   2   8   37.00    7.70
   4  -2   8 1035.00   59.29
   4  -2   8  930.31   59.89
  -4  -2  -8  903.11   59.59
   4  -2   8 1046.20   59.19
  -4  -2  -8  991.70   58.59
   4   2   8 1013.60   61.49
   4   2   8  991.10   59.69
   4   2   8  943.81   59.49
   5  -2   8   75.69    8.90
   5  -2   8   60.89    7.90
  -5  -2  -8   66.69    9.90
  -5  -2  -8   67.39    7.70
   5   2   8   70.39    9.00
  -5   2  -8   83.89   12.80
   6  -2   8   23.30    4.90
  -6  -2  -8   30.80    5.60
   6  -2   8   27.40    6.00
  -6  -2  -8   17.80    9.00
  -6   2  -8   25.10    9.30
   6   2   8   27.10    5.80
   6   2   8   19.70   10.30
  -7  -2  -8   38.00   10.50
  -7  -2  -8   60.29   10.10
   7  -2   8   34.40    5.70
   7  -2   8   41.90    7.00
  -7   2  -8   33.20    6.30
  -7   2  -8   44.00    7.60
   7   2   8   22.30   11.80
  -7   2  -8   41.90   11.30
  -8  -2  -8  231.88   26.00
  -8   2  -8  257.67   18.50
  -8   2  -8  247.38   25.40
   8   2   8  244.98   26.80
  -9  -2  -8   89.29   16.20
  -9  -2  -8   93.69   15.80
  -9   2  -8   78.09   13.70
   9   2   8   85.99   17.00
  -9   2  -8  112.09   17.40
 -10  -2  -8   89.39   17.90
 -10  -2  -8   99.79   14.70
 -10   2  -8   98.39   20.50
  10   2   8  105.09   18.50
  11  -2   8   59.49   15.60
 -11  -2  -8   28.20   18.30
 -11   2  -8   14.90   20.40
  11   2   8   20.90   16.40
 -12  -3   8   61.29   14.20
  12  -3  -8   28.20    7.60
 -12  -3   8   46.80   10.90
 -12   3   8   40.40   10.30
 -11  -3   8   14.30   11.40
  11  -3  -8    3.50    6.60
 -11  -3   8    3.40    8.30
 -11   3   8    5.90    8.30
 -11   3   8    6.20    8.80
 -10  -3   8  302.67   28.10
 -10  -3   8  273.17   23.00
  10  -3  -8  280.67   21.20
 -10   3   8  305.77   22.30
 -10   3   8  277.57   23.30
  -9  -3   8    3.20    6.80
  -9  -3   8   29.70    9.10
  -9  -3   8    9.50    5.80
   9  -3  -8    0.10    6.20
  -9   3   8   11.60    6.40
  -9   3   8    9.40    7.10
  -8  -3   8  217.18   18.40
  -8  -3   8  187.08   16.60
   8  -3  -8  195.88   16.00
  -8   3   8  192.08   17.10
  -8   3   8  170.18   15.00
  -7  -3   8  162.98   15.30
   7  -3  -8  178.78   14.70
  -7  -3   8  166.48   20.90
  -7  -3   8  179.78   16.30
  -7   3   8  158.98   13.00
  -7   3   8  181.68   15.50
   7   3  -8  164.28   13.70
  -6  -3   8  154.38   13.50
   6  -3  -8  170.68   14.10
  -6  -3   8  172.68   13.90
  -6  -3   8  165.68   16.20
  -6   3   8  175.98   16.30
  -6   3   8  155.28   12.00
  -5  -3   8   -3.20    4.70
  -5  -3   8    5.10    3.60
  -5  -3   8   -4.30    3.50
   5  -3  -8   -2.20    5.10
  -5  -3   8  -12.10    6.10
  -5   3   8    9.30    5.20
  -5   3   8   -3.40    3.00
  -5   3   8   -0.90    5.60
  -4  -3   8  114.39   10.90
  -4  -3   8  111.19   12.00
   4  -3  -8  114.39   11.40
  -4   3   8  106.89    8.90
  -4   3   8  114.49    8.60
  -4   3   8  125.19   12.40
  -4   3   8  117.99   11.50
  -3  -3   8  558.84   36.80
  -3  -3   8  588.34   36.00
   3  -3  -8  604.44   36.60
  -3   3   8  575.64   36.50
  -3   3   8  541.55   35.20
  -3   3   8  589.04   36.60
  -3   3   8  599.34   34.80
   2  -3  -8    7.00    5.50
  -2  -3   8   15.90    5.70
  -2  -3   8   15.60    4.20
  -2   3   8   12.40    4.90
  -2   3   8   12.10    2.80
  -2   3   8   15.20    5.40
  -2   3   8   12.10    3.70
  -1  -3   8   60.39   10.50
   1  -3  -8   78.09   10.70
  -1  -3   8   96.39    8.70
  -1   3   8  101.89    9.70
   1   3  -8   85.79   10.00
  -1   3   8   76.39   10.80
  -1   3   8   82.19    8.40
   0  -3  -8    1.20    5.50
   0  -3   8   -2.50    2.60
   0  -3   8   -8.20    5.30
   0  -3   8   -0.60    3.60
   0   3   8    1.90    4.60
   0   3   8    5.40    4.00
   0   3   8   -0.70    5.50
   1  -3   8  441.76   26.60
  -1  -3  -8  419.16   28.40
   1  -3   8  388.96   26.70
   1  -3   8  434.16   32.30
  -1   3  -8  435.36   28.40
   1   3   8  429.36   27.60
   1   3   8  413.96   27.30
   1   3   8  440.06   28.80
   2  -3   8    4.30    3.90
   2  -3   8    1.50    4.50
  -2  -3  -8   -0.40    6.40
   2   3   8    5.80    4.80
   2   3   8   -4.40    6.70
  -2   3  -8   -1.40    6.80
   2   3   8   -2.10    4.80
   3  -3   8  140.39   11.10
   3  -3   8  121.09   12.30
  -3  -3  -8  112.79   15.50
   3   3   8  151.98   13.30
  -3   3  -8  151.68   15.50
   3   3   8  122.39   19.20
   4  -3   8   72.69   10.90
  -4  -3  -8   50.09   10.00
   4  -3   8   59.59    8.30
   4  -3   8   65.79    8.70
  -4   3  -8   78.29   14.40
   4   3   8   62.69   10.40
   4   3   8   73.09   11.40
   5  -3   8  193.98   15.90
   5  -3   8  156.88   13.20
  -5  -3  -8  141.39   18.70
  -5   3  -8  199.08   20.40
   5   3   8  199.88   16.40
   5   3   8  133.29   20.20
   6  -3   8    8.50    7.60
   6  -3   8   15.10   12.50
   6  -3   8    7.40    4.50
  -6  -3  -8   11.40    9.90
   6   3   8    9.20   10.50
  -6   3  -8    9.80   10.10
  -7  -3  -8   95.49   14.50
   7  -3   8   67.59   10.00
   7   3   8   79.39   13.90
  -8  -3  -8  107.09   16.90
   8   3   8   74.99   14.70
   9  -3   8   39.00   15.20
  -9  -3  -8    5.50   18.70
  -9   3  -8   13.40   16.90
   9   3   8  -13.30   12.50
   9  -4  -8   83.49   14.20
  -9  -4   8   89.79   13.30
  -9   4   8   74.19   11.80
  -8  -4   8   26.10   10.20
   8  -4  -8   17.90    8.40
  -8   4   8   23.20    9.50
  -7  -4   8    7.60    9.00
   7  -4  -8    5.50    7.20
  -7   4   8    4.90    8.30
  -6  -4   8   25.80    8.50
   6  -4  -8   27.30    7.70
  -6   4   8   23.20    8.80
   5  -4  -8  259.27   21.10
  -5  -4   8  264.37   21.20
  -5   4   8  278.57   21.70
  -4  -4   8   77.59   12.40
   4  -4  -8   66.29    9.40
   3  -4  -8    4.00    6.70
  -3  -4   8   12.20    6.20
  -3   4   8    9.90    7.90
   2  -4  -8  152.48   16.50
  -2  -4   8  181.78   14.80
  -2   4   8  181.98   17.40
   1  -4  -8  261.57   21.20
  -1  -4   8  253.47   18.60
  -1   4   8  261.27   20.70
   0  -4   8  306.87   22.30
   0  -4  -8  324.07   24.70
   0   4  -8  360.56   24.10
   0   4   8  338.97   24.30
  -1  -4  -8   28.20    8.70
   1  -4   8   35.70    5.70
   1  -4   8   36.50    6.10
  -1   4  -8   49.20    8.90
  -2  -4  -8    6.00    8.50
   2  -4   8   18.10    4.80
   2  -4   8    9.10    5.40
  -2   4  -8   25.80    9.10
   2   4   8   12.30    9.00
   3  -4   8  104.79   10.90
   3  -4   8  122.99   12.50
   3   4   8  137.49   16.80
   4  -4   8  151.78   16.00
  -4  -4  -8  162.98   21.90
   4   4   8  189.68   19.50
  -4   4  -8  229.18   22.50
  -5  -4  -8   50.39   12.80
   5  -4   8   49.00    9.80
  -5   4  -8   67.29   13.20
   5   4   8   33.90   10.80
 -16   0   9   18.60   10.30
  16   0  -9    9.30   12.70
 -15   0   9   28.60    9.50
 -15   0   9   26.30   10.00
 -14   0   9   -6.10    7.80
 -14   0   9    2.40    7.70
 -13   0   9  722.13   48.70
 -13   0   9  810.42   48.60
  12   0  -9   -3.90    8.20
 -12   0   9    3.70    5.90
 -12   0   9   -0.40    6.10
  11   0  -9    4.80    5.50
 -11   0   9   12.80    5.40
  11   0  -9   11.90    7.00
 -11   0   9   14.60    5.60
 -10   0   9   -4.60    8.70
  10   0  -9   -2.00    5.10
  10   0  -9   -4.70    4.70
 -10   0   9    6.20    4.70
 -10   0   9   -2.10    5.00
  10   0  -9   -0.60    4.40
   9   0  -9 2840.72  147.59
   9   0  -9 2314.57  147.29
  -9   0   9 2454.75  147.29
   9   0  -9 2461.85  147.59
  -9   0   9 2453.85  147.29
  -9   0   9 2362.06  149.19
  -8   0   9    3.60    4.00
   8   0  -9   -1.90    3.60
   8   0  -9    0.80    4.10
  -8   0   9    4.40    6.10
  -8   0   9    3.30    3.70
   8   0  -9    2.90    3.50
  -7   0   9   17.40    3.70
   7   0  -9   19.90    3.80
  -7   0   9   17.90    5.50
   7   0  -9   21.90    4.20
   7   0  -9   26.50    4.50
  -7   0   9   19.40    3.90
  -6   0   9    1.10    2.90
  -6   0   9    6.00    4.00
   6   0  -9    2.10    3.00
   6   0  -9   -1.10    2.60
  -6   0   9    0.20    3.10
  -5   0   9 4813.42  273.37
  -5   0   9 4546.25  273.17
   5   0  -9 4433.76  273.07
  -5   0   9 4700.23  273.57
   5   0  -9 4690.13  273.17
  -4   0   9    0.70    2.70
  -4   0   9   -0.30    2.60
  -4   0   9    6.60    2.80
   4   0  -9   -1.40    2.70
  -4   0   9    3.30    3.80
   4   0  -9   -1.00    2.70
  -3   0   9   33.40    5.40
   3   0  -9   38.50    4.70
   3   0  -9   41.60    5.20
  -3   0   9   34.80    4.90
  -3   0   9   34.80    5.00
  -3   0   9   31.20    5.80
  -2   0   9    3.90    2.30
  -2   0   9    3.10    2.70
   2   0  -9    3.30    2.50
   2   0  -9    1.30    2.40
  -2   0   9   -4.40    2.80
   1   0  -9 5696.23  344.57
  -1   0   9 6331.07  345.77
   1   0  -9 6039.00  346.57
  -1   0   9 5821.32  344.37
  -1   0   9 5760.92  345.57
   1   0  -9 5452.45  344.37
   0   0  -9    0.00    2.70
   0   0  -9    1.50    3.20
   0   0   9   -1.40    2.70
   0   0   9   -1.70    3.10
   0   0   9   -1.50    2.40
   1   0   9  833.32   49.30
  -1   0  -9  826.02   49.30
   1   0   9  800.32   49.70
  -1   0  -9  813.82   49.50
   1   0   9  826.82   49.40
  -1   0  -9  821.72   50.19
  -2   0  -9   -8.80    4.90
  -2   0  -9   -0.90    3.70
   2   0   9    2.70    2.90
   2   0   9    2.40    4.00
   2   0   9    2.30    3.50
  -2   0  -9    0.00    3.30
   3   0   9 2553.34  146.29
   3   0   9 2379.56  146.29
   3   0   9 2465.45  146.29
  -3   0  -9 2386.16  146.39
   3   0   9 2519.45  147.19
  -3   0  -9 2445.66  147.89
  -3   0  -9 2542.35  146.69
   4   0   9   -0.50    6.40
   4   0   9    0.70    3.40
  -4   0  -9    3.80    5.00
   4   0   9   -2.80    3.10
  -4   0  -9   -0.30    4.50
   4   0   9    1.70    4.10
  -4   0  -9  -13.90    7.00
  -5   0  -9  739.13   46.30
  -5   0  -9  675.53   49.30
  -5   0  -9  758.62   46.60
   5   0   9  795.62   45.70
   6   0   9    0.20    4.00
  -6   0  -9    4.00    6.60
  -6   0  -9   -4.80    6.00
   6   0   9   -4.40    2.10
  -6   0  -9  -13.80    8.80
  -7   0  -9  398.36   29.00
  -7   0  -9  367.36   27.10
  -7   0  -9  339.67   26.50
  -8   0  -9    2.10    8.50
  -8   0  -9   -4.20    9.70
   8   0   9   13.70   13.00
  -9   0  -9  430.16   32.20
  -9   0  -9  371.76   31.20
 -10   0  -9   10.70   11.80
 -10   0  -9  -22.00   12.90
  10   0   9    9.00   15.30
 -11   0  -9  -29.70   15.10
 -11   0  -9    1.40   13.40
  11   0   9   30.70   16.80
 -12   0  -9   37.90   16.80
 -15  -1   9   16.10   11.20
 -15  -1   9   21.60    9.30
  15  -1  -9   12.80    8.70
  15   1  -9   23.60    9.40
 -15   1   9    6.80    9.70
 -15   1   9   10.60    9.50
 -14  -1   9  115.79   17.30
  14  -1  -9  104.39   13.90
 -14  -1   9   92.59   15.00
 -14   1   9   92.19   15.90
 -14   1   9  101.49   15.10
 -13  -1   9  347.87   25.00
 -13  -1   9  338.87   26.10
  13  -1  -9  390.76   24.50
  13   1  -9  304.67   24.20
 -13   1   9  340.87   25.50
 -13   1   9  355.96   25.20
  12  -1  -9    9.80    5.90
 -12  -1   9   10.10    6.80
 -12  -1   9   11.30    6.70
 -12   1   9    8.70    6.90
 -12   1   9    7.00    6.10
  12   1  -9    5.90    5.50
  11  -1  -9   82.39   10.10
 -11  -1   9   57.69    9.60
 -11  -1   9   69.89   10.70
  11  -1  -9   66.79   10.70
 -11   1   9   59.49    8.20
 -11   1   9   55.39   11.20
  11   1  -9   50.79    8.90
  10  -1  -9  125.99   12.90
 -10  -1   9  145.69   12.80
  10  -1  -9  151.08   14.70
 -10  -1   9  141.69   12.60
 -10   1   9  125.99   12.30
 -10   1   9  140.19   13.00
  10   1  -9  131.89   11.00
   9  -1  -9  157.68   12.30
   9  -1  -9  134.59   12.90
  -9  -1   9  143.79   12.20
  -9  -1   9  148.69   12.60
   9  -1  -9  154.58   12.40
  -9   1   9  150.28   15.80
  -9   1   9  144.29   11.70
  -9   1   9  152.28   13.60
   9   1  -9  133.19   12.90
   9   1  -9  155.98   10.90
  -8  -1   9  113.69   14.10
  -8  -1   9  128.09   10.40
   8  -1  -9  129.89   10.90
  -8  -1   9  125.39   11.40
   8  -1  -9  130.39   10.90
   8  -1  -9  131.49   11.50
  -8   1   9  128.69   11.40
   8   1  -9  136.19    9.40
   8   1  -9  133.89   11.40
  -8   1   9  139.49   14.20
  -8   1   9  126.39   10.40
  -7  -1   9  260.37   17.40
  -7  -1   9  240.58   19.20
  -7  -1   9  255.17   16.90
   7  -1  -9  272.77   17.60
   7  -1  -9  267.47   17.70
   7   1  -9  261.17   16.10
  -7   1   9  247.18   17.10
  -7   1   9  255.87   17.80
   7   1  -9  251.27   17.50
  -7   1   9  279.67   18.90
  -6  -1   9  240.68   17.60
   6  -1  -9  236.08   16.40
  -6  -1   9  236.28   16.10
   6  -1  -9  247.18   16.30
  -6  -1   9  239.48   15.50
  -6   1   9  244.48   16.30
   6   1  -9  228.68   14.70
  -6   1   9  251.77   17.00
  -6   1   9  240.28   15.70
  -5  -1   9   38.50    4.70
  -5  -1   9   50.59    6.70
   5  -1  -9   34.30    5.80
  -5  -1   9   33.30    5.90
   5  -1  -9   27.80    4.50
  -5  -1   9   33.20    6.10
  -5   1   9   33.10    6.10
  -5   1   9   29.20    5.10
  -5   1   9   33.80    6.50
  -4  -1   9  231.98   14.50
   4  -1  -9  220.68   14.80
  -4  -1   9  231.88   14.00
   4  -1  -9  221.28   14.70
  -4  -1   9  210.98   14.70
  -4  -1   9  223.88   15.60
  -4   1   9  204.98   14.80
  -4   1   9  215.08   14.50
  -4   1   9  212.88   15.00
  -3  -1   9  239.68   16.30
   3  -1  -9  227.18   15.80
  -3  -1   9  246.18   15.10
  -3  -1   9  261.07   15.20
   3  -1  -9  235.68   15.80
  -3  -1   9  242.68   15.90
  -3   1   9  229.38   15.90
  -3   1   9  235.18   15.90
  -3   1   9  243.38   15.50
  -3   1   9  231.68   15.90
   2  -1  -9   70.59    6.80
   2  -1  -9   62.99    7.10
  -2  -1   9   71.89    5.80
  -2  -1   9   74.09    5.70
  -2  -1   9   64.99    7.50
  -2   1   9   68.09    6.40
  -2   1   9   67.19    7.30
   1  -1  -9  356.36   23.40
   1  -1  -9  365.66   23.20
  -1  -1   9  338.47   22.70
  -1  -1   9  346.27   23.30
  -1  -1   9  414.26   22.60
  -1   1   9  378.46   23.70
  -1   1   9  373.66   22.90
  -1   1   9  379.16   23.30
   1   1  -9  383.66   23.60
   0  -1  -9  546.45   32.70
   0  -1   9  507.55   32.70
   0  -1   9  561.94   31.90
   0  -1  -9  510.35   32.40
   0  -1   9  514.95   32.20
   0   1  -9  519.95   32.80
   0   1   9  535.05   33.00
   0   1   9  545.15   32.60
   0   1   9  518.75   32.00
  -1  -1  -9  300.57   19.70
   1  -1   9  332.87   19.60
  -1  -1  -9  301.27   20.10
  -1  -1  -9  307.57   20.50
   1  -1   9  329.27   20.30
   1   1   9  321.67   20.20
  -1   1  -9  292.07   20.60
   1   1   9  317.77   21.10
   1   1   9  313.37   19.90
   1   1   9  304.77   19.60
   2  -1   9   52.59    7.60
   2  -1   9   63.89    6.00
  -2  -1  -9   48.10    7.40
   2  -1   9   71.29    8.80
  -2  -1  -9   53.29    6.60
  -2  -1  -9   51.69    8.30
   2   1   9   49.80    6.70
  -2   1  -9   61.09    8.70
   2   1   9   45.00    6.30
   2   1   9   56.09    8.80
   3  -1   9 1652.93   95.99
   3  -1   9 1544.35   96.29
  -3  -1  -9 1574.84   95.99
  -3  -1  -9 1589.54   96.69
   3  -1   9 1728.83   95.89
  -3  -1  -9 1620.14   96.49
  -3   1  -9 1508.75   95.49
   3   1   9 1539.65   95.99
   3   1   9 1724.43   97.49
  -3   1  -9 1659.73   96.89
   3   1   9 1531.05   95.69
   3   1   9 1684.73   96.29
  -4  -1  -9  342.67   25.40
   4  -1   9  372.06   24.80
   4  -1   9  405.16   24.30
   4  -1   9  382.76   24.30
  -4  -1  -9  388.96   24.60
  -4  -1  -9  354.86   25.60
  -4   1  -9  410.86   26.00
   4   1   9  400.66   27.20
  -4   1  -9  373.66   23.90
   4   1   9  369.56   24.20
   5  -1   9    2.70    3.90
  -5  -1  -9   -2.20    4.90
  -5  -1  -9   -7.60    6.10
   5  -1   9    6.10    8.50
  -5  -1  -9   -7.30    5.90
   5  -1   9   -3.50    3.70
   5  -1   9    4.60    4.90
   5   1   9   -1.70    3.90
  -5   1  -9    1.40    6.60
  -5   1  -9    4.10    4.20
  -5   1  -9   -1.60    4.10
   5   1   9   -4.20    8.50
   5   1   9    8.70    4.70
  -6  -1  -9   71.59   10.70
   6  -1   9   55.39    8.00
   6  -1   9   56.59    8.20
  -6  -1  -9   37.90    9.70
   6   1   9   47.20   10.40
  -6   1  -9   53.19    9.80
  -6   1  -9   49.99    7.20
  -6   1  -9   64.39   10.20
   7  -1   9 1303.57   82.79
  -7  -1  -9 1429.96   84.09
  -7  -1  -9 1253.57   84.79
  -7   1  -9 1220.58   83.29
  -7   1  -9 1574.94   83.99
  -7   1  -9 1397.66   85.49
   7   1   9 1473.55   86.79
  -8  -1  -9   30.70    9.50
  -8  -1  -9   15.40   10.60
   8  -1   9   69.39   14.50
  -8   1  -9   30.00   12.30
  -8   1  -9   32.80    8.90
   8   1   9   43.10   12.70
  -8   1  -9   33.30    8.40
  -9  -1  -9  182.18   24.00
  -9   1  -9  196.88   24.50
  -9   1  -9  173.98   20.20
  10  -1   9   20.00   14.30
 -10  -1  -9   -0.80   11.80
 -10  -1  -9    6.90   13.40
 -10   1  -9    9.80   10.80
  10   1   9   12.70   15.80
 -10   1  -9  -12.30   14.80
 -11  -1  -9  308.77   32.70
 -11  -1  -9  322.67   34.90
 -11   1  -9  318.87   30.40
 -11   1  -9  375.86   36.10
  11   1   9  282.87   35.70
  14  -2  -9   95.89   13.30
 -14  -2   9  100.89   15.90
 -14  -2   9   97.79   15.40
 -14   2   9   84.79   13.20
 -14   2   9  123.89   18.20
 -13  -2   9   -5.30    8.20
 -13  -2   9   14.40   10.70
  13  -2  -9   -0.50    6.00
 -13   2   9    3.90    8.30
 -13   2   9    1.90    8.10
 -12  -2   9   58.69    9.50
 -12  -2   9   68.09   11.00
  12  -2  -9   71.79   10.80
  12  -2  -9   45.50   10.10
 -12   2   9   62.19    9.80
 -12   2   9   85.19   12.20
  11  -2  -9  106.29   12.30
  11  -2  -9  107.69   11.60
 -11  -2   9   79.39   12.50
 -11  -2   9  109.89   14.50
 -11   2   9   79.39   12.90
 -11   2   9   75.99    9.50
  10  -2  -9  459.65   29.00
 -10  -2   9  442.76   29.90
 -10  -2   9  446.76   29.60
 -10   2   9  449.16   29.90
 -10   2   9  430.06   29.00
  -9  -2   9  120.19   11.80
   9  -2  -9  127.59   11.70
  -9  -2   9  107.89   12.40
  -9   2   9  119.29   12.90
  -9   2   9  117.59   10.90
   8  -2  -9  390.76   24.00
  -8  -2   9  339.77   23.30
  -8  -2   9  317.77   27.80
  -8   2   9  362.56   23.20
   8   2  -9  353.56   23.90
  -8   2   9  374.66   24.40
   7  -2  -9    5.40    3.80
  -7  -2   9   -0.10    6.40
  -7  -2   9    7.40    3.40
  -7  -2   9    5.60    4.80
   7  -2  -9    2.00    5.80
   7   2  -9    7.20    4.30
  -7   2   9    3.00    3.70
  -7   2   9    5.70    4.90
  -7   2   9   10.00    5.60
   6  -2  -9  930.81   57.39
  -6  -2   9  994.70   58.09
   6  -2  -9  967.40   57.09
  -6  -2   9  896.41   56.09
  -6  -2   9  934.71   56.89
  -6   2   9  918.21   57.19
  -6   2   9  949.31   57.59
  -6   2   9  938.31   56.39
   5  -2  -9  501.25   30.70
   5  -2  -9  465.35   30.80
  -5  -2   9  490.95   30.50
  -5  -2   9  495.95   31.50
  -5  -2   9  471.25   29.30
  -5   2   9  499.25   29.70
  -5   2   9  489.95   31.00
  -5   2   9  475.15   30.70
   4  -2  -9  793.02   47.50
  -4  -2   9  768.12   46.10
   4  -2  -9  803.72   47.40
  -4  -2   9  784.42   47.20
  -4  -2   9  792.82   48.00
  -4   2   9  759.22   47.40
  -4   2   9  763.02   46.60
  -4   2   9  752.22   47.50
  -3  -2   9  393.56   23.30
  -3  -2   9  377.26   24.60
  -3  -2   9  373.76   25.30
   3  -2  -9  373.46   24.70
  -3  -2   9  420.16   23.50
   3  -2  -9  400.56   25.00
  -3   2   9  382.26   23.90
  -3   2   9  371.76   25.00
  -3   2   9  398.66   24.00
  -3   2   9  377.46   24.90
  -2  -2   9 1060.19   61.69
  -2  -2   9  947.01   60.59
  -2  -2   9  988.20   62.09
  -2  -2   9 1119.19   60.59
   2  -2  -9 1019.70   61.79
   2  -2  -9 1023.20   61.99
  -2   2   9  955.40   60.89
  -2   2   9 1038.40   61.89
   2   2  -9 1045.90   61.89
  -2   2   9 1056.59   61.99
  -1  -2   9  129.69    7.80
  -1  -2   9  128.39    8.40
   1  -2  -9  105.39   10.80
  -1  -2   9  103.29   10.50
   1  -2  -9  128.19   10.30
  -1  -2   9  110.19    9.90
  -1   2   9  111.89   11.10
  -1   2   9  108.39    8.20
   1   2  -9  126.49   10.90
   0  -2   9  795.12   54.69
   0  -2   9  978.50   53.39
   0  -2  -9  897.71   54.89
   0  -2  -9  880.51   54.39
   0   2  -9  907.11   54.89
   0   2   9  914.21   54.19
   0   2   9  941.81   54.69
   0   2   9  927.91   55.09
   0   2   9  852.21   53.39
   1  -2   9  533.15   30.10
  -1  -2  -9  443.76   30.80
   1  -2   9  499.85   31.60
  -1  -2  -9  491.45   31.80
   1   2   9  523.95   31.30
   1   2   9  450.75   29.80
   1   2   9  507.95   30.90
   1   2   9  511.35   32.40
  -1   2  -9  507.95   32.00
   2  -2   9  436.56   24.90
  -2  -2  -9  409.46   26.80
   2  -2   9  355.66   26.10
  -2  -2  -9  364.76   25.50
   2   2   9  430.46   25.90
  -2   2  -9  405.96   26.60
   2   2   9  384.06   25.30
   2   2   9  406.16   27.40
  -3  -2  -9   10.70    6.80
   3  -2   9   22.00    4.20
   3  -2   9   26.20    4.30
   3  -2   9   11.80    5.40
  -3   2  -9   18.60    8.30
   3   2   9   25.20    4.70
   3   2   9   22.40    7.70
   3   2   9   17.40    4.80
   4  -2   9  388.96   26.60
  -4  -2  -9  393.56   29.10
  -4  -2  -9  443.96   26.10
   4  -2   9  424.16   26.70
   4   2   9  436.56   30.50
   4   2   9  399.56   27.00
  -4   2  -9  447.26   29.30
   5  -2   9  495.55   31.70
   5  -2   9  564.34   32.10
  -5  -2  -9  484.55   34.70
  -5  -2  -9  498.85   31.30
   5   2   9  512.65   36.00
   5   2   9  452.65   31.90
  -5   2  -9  521.45   34.60
  -6  -2  -9   32.10    6.30
   6  -2   9   21.00    5.30
   6  -2   9   41.70    6.70
  -6  -2  -9   21.60    9.60
  -6   2  -9   38.80    9.60
   6   2   9   37.60   11.70
  -7  -2  -9    7.90    6.30
   7  -2   9   37.40   12.90
  -7  -2  -9   -0.40   10.20
  -7   2  -9   10.30   10.40
   7   2   9  -12.90   11.70
  -8  -2  -9  103.59   13.70
  -8  -2  -9   46.70   13.30
  -8   2  -9   67.09   14.10
  -9  -2  -9  236.88   28.70
  -9  -2  -9  277.67   22.60
   9   2   9  215.08   30.00
  -9   2  -9  238.88   29.00
 -10  -2  -9  -16.50   11.50
  10  -2   9   20.80   14.40
 -10  -2  -9  -10.90   15.10
 -10   2  -9   -5.80   15.20
  10   2   9  -26.20   15.40
  12  -3  -9   28.30    7.90
 -12  -3   9   29.70    9.80
 -12  -3   9   31.40   12.30
 -12   3   9    7.40    9.50
 -11  -3   9  281.17   25.60
 -11  -3   9  234.58   21.40
  11  -3  -9  221.48   19.10
 -11   3   9  216.48   21.50
  10  -3  -9   44.30    8.00
 -10  -3   9   34.60    8.40
 -10   3   9   48.20    8.30
 -10   3   9   29.30    8.70
   9  -3  -9   10.90    6.20
  -9  -3   9   17.90    7.10
  -9  -3   9   31.60    8.50
  -9   3   9    8.00    6.00
  -9   3   9   13.10    7.50
   8  -3  -9   82.39   12.50
  -8  -3   9   73.19   11.40
  -8  -3   9   95.99   12.70
  -8   3   9   80.69   13.50
  -8   3   9   57.99    9.80
   7  -3  -9  543.35   33.10
  -7  -3   9  529.85   33.10
  -7  -3   9  446.76   32.50
  -7   3   9  476.95   31.70
  -7   3   9  558.54   33.60
  -6  -3   9    9.10    4.10
  -6  -3   9    3.40    3.80
   6  -3  -9   -0.60    5.50
  -6  -3   9    8.10    5.40
  -6   3   9    2.80    3.80
  -6   3   9   -1.40    6.10
   5  -3  -9   -2.00    5.30
  -5  -3   9    5.60    3.10
  -5  -3   9   -6.80    7.00
  -5  -3   9    8.00    3.50
  -5  -3   9    0.60    4.90
  -5   3   9    2.20    3.40
  -5   3   9    4.40    5.80
  -4  -3   9   28.50    7.30
  -4  -3   9   28.80    5.50
   4  -3  -9   17.60    5.60
  -4   3   9   28.50    4.30
  -4   3   9   27.00    3.70
   3  -3  -9  476.95   29.50
  -3  -3   9  461.55   28.60
  -3  -3   9  451.05   29.90
  -3   3   9  469.55   27.50
  -3   3   9  402.76   27.20
  -3   3   9  434.66   28.00
  -3   3   9  459.05   30.20
   2  -3  -9    0.50    5.20
  -2  -3   9    1.20    6.20
  -2  -3   9    9.30    4.40
  -2   3   9    6.60    8.30
  -2   3   9    0.40    5.50
  -2   3   9    4.40    2.90
  -1  -3   9    2.00    4.20
   1  -3  -9   -3.80    5.30
   1   3  -9    2.10    5.40
  -1   3   9    0.90    4.00
  -1   3   9   -7.40    5.60
   0  -3  -9   -0.20    5.90
   0  -3   9   -1.00    2.60
   0  -3   9    4.10    4.20
   0  -3   9    2.40    3.00
   0   3  -9    5.60    6.30
   0   3   9   -0.30    4.30
   1  -3   9  387.76   27.50
   1  -3   9  463.35   27.10
  -1  -3  -9  434.66   29.30
   1   3   9  428.26   32.10
  -1   3  -9  444.16   29.50
   1   3   9  452.15   28.20
   2  -3   9  100.09   12.10
  -2  -3  -9   65.59    9.50
   2  -3   9   78.69    9.30
  -2   3  -9   86.09   13.30
   2   3   9   59.69   10.00
   2   3   9   70.99   13.30
  -3  -3  -9   36.70    8.80
   3  -3   9   48.80    9.10
   3  -3   9   28.50    5.20
  -3   3  -9   42.50    9.20
   3   3   9   25.70    6.40
   3   3   9   33.30    9.40
   4  -3   9   45.80   10.80
   4  -3   9   14.30    6.30
   4  -3   9   19.50    5.20
  -4  -3  -9   20.80    8.70
  -4   3  -9   22.40    9.20
   4   3   9   14.00    6.30
   4   3   9   25.70   10.10
   5  -3   9   95.59   10.50
   5  -3   9  132.69   13.70
  -5  -3  -9   83.69   12.70
  -5   3  -9  120.39   18.00
   5   3   9  103.19   14.20
   6  -3   9  115.79   15.30
  -6  -3  -9   68.59   13.30
   6   3   9   78.89   14.40
  -7  -3  -9   53.79   14.20
   7   3   9   55.59   14.20
  -7   3  -9   78.59   14.70
  -8  -3  -9   73.99   16.50
   8   3   9   65.39   15.50
  -8   3  -9  103.69   17.10
  -8  -4   9    9.20    9.60
   8  -4  -9   -5.80    7.90
  -8   4   9   -9.80    8.70
   7  -4  -9    9.60    8.00
  -7  -4   9   10.40    8.80
  -7   4   9    5.50    8.70
  -6  -4   9    5.60    7.90
   6  -4  -9    2.40    7.50
  -6   4   9    1.90    7.90
   5  -4  -9    1.40    7.10
  -5  -4   9   10.40    7.10
  -5   4   9    7.50    8.10
  -4  -4   9   27.80    6.80
   4  -4  -9   18.20    7.70
  -4   4   9   24.10    8.50
   3  -4  -9   -5.80    7.00
  -3  -4   9    1.30    6.00
  -3   4   9    8.50    7.80
   2  -4  -9    6.60    7.30
  -2  -4   9   12.10    5.70
  -2   4   9   -0.70    7.60
   1  -4  -9   -4.10    7.10
  -1  -4   9   -1.60    5.20
  -1   4   9   -3.20    7.40
   0  -4   9   36.00    6.00
   0  -4  -9   21.90    8.70
   0   4   9   19.80    8.40
   0   4  -9   36.80    8.10
   1  -4   9   32.10    6.00
  -1  -4  -9   39.20    8.90
   1   4   9   36.70    9.40
  -1   4  -9   50.99    9.30
   2  -4   9    7.10    5.10
  -2  -4  -9    2.70    8.40
  -2   4  -9   24.90    9.50
   2   4   9    6.90    9.00
  -3  -4  -9   -0.60    9.90
   3   4   9   10.70    9.60
  -3   4  -9   13.60    9.70
  -4  -4  -9   32.00   11.80
  -4   4  -9   63.49   12.40
   4   4   9   41.20   11.10
 -16   0  10   48.00   13.10
 -15   0  10   -1.00    7.60
 -15   0  10    1.10    8.80
  15   0 -10   22.30   12.10
 -14   0  10    8.70    8.10
 -14   0  10    7.50    7.80
  13   0 -10  -11.00    9.40
 -13   0  10   -5.80    6.30
 -13   0  10   -0.80    6.50
  12   0 -10    1.90    7.80
 -12   0  10    1.60    6.10
 -12   0  10    6.10    6.20
  11   0 -10   -2.80    6.20
  11   0 -10   -0.80    5.40
 -11   0  10    3.90    5.50
 -11   0  10    4.10    5.50
 -10   0  10   49.99    8.60
  10   0 -10   70.89    9.70
  10   0 -10   52.29    8.80
 -10   0  10   40.90    7.60
  10   0 -10   51.19    7.40
 -10   0  10   47.90   10.70
  -9   0  10    1.60    4.00
   9   0 -10   -2.00    4.50
  -9   0  10   -0.10    4.20
   9   0 -10    0.10    4.30
   9   0 -10    0.40    4.10
  -9   0  10    4.40    6.80
  -8   0  10  381.26   26.50
   8   0 -10  436.56   25.00
  -8   0  10  360.36   24.60
  -8   0  10  382.76   24.60
   8   0 -10  369.76   24.80
   8   0 -10  365.96   24.50
  -7   0  10   -2.90    3.40
   7   0 -10    1.50    3.70
  -7   0  10    8.50    3.80
   7   0 -10   -1.30    3.10
  -7   0  10    9.40    4.80
  -6   0  10  347.37   21.70
  -6   0  10  314.97   21.50
   6   0 -10  338.77   21.60
  -6   0  10  359.36   22.50
   6   0 -10  333.07   21.30
   5   0 -10    1.70    3.10
   5   0 -10    0.40    2.60
  -5   0  10   -2.40    4.30
  -5   0  10    0.40    3.10
  -5   0  10    7.20    3.50
  -5   0  10   -2.90    3.10
  -4   0  10 2256.77  135.09
  -4   0  10 2335.67  134.99
   4   0 -10 2197.08  134.89
  -4   0  10 2384.86  135.19
   4   0 -10 2231.88  134.89
   3   0 -10   -1.40    2.90
   3   0 -10   -0.80    2.50
  -3   0  10    0.20    2.70
  -3   0  10   -4.40    2.90
  -3   0  10   -2.00    2.90
  -3   0  10   -2.90    3.30
  -2   0  10 1726.93  101.99
  -2   0  10 1636.34  101.79
   2   0 -10 1700.43  101.59
   2   0 -10 1772.52  101.89
  -2   0  10 1741.03  101.79
   1   0 -10   -1.50    2.80
  -1   0  10   -1.90    3.10
  -1   0  10    2.10    3.20
  -1   0  10   -2.40    2.60
   1   0 -10   -0.70    3.30
   0   0 -10 2097.99  121.79
   0   0 -10 2062.59  122.19
   0   0  10 2062.89  121.99
   0   0  10 2137.59  121.89
   0   0 -10 1997.10  122.29
   0   0  10 1988.30  122.09
   1   0  10    0.20    3.40
   1   0  10    0.60    2.90
  -1   0 -10   -4.30    3.10
  -1   0 -10    0.80    3.80
   1   0  10    0.60    4.00
  -1   0 -10   -7.40    4.70
  -2   0 -10 1701.43  105.79
   2   0  10 1648.14  104.99
   2   0  10 1878.71  104.59
   2   0  10 1751.72  104.69
  -2   0 -10 1798.22  104.89
  -2   0 -10 1773.22  104.59
  -3   0 -10  -10.60    6.60
   3   0  10    4.50    3.60
  -3   0 -10   -3.00    4.20
  -3   0 -10    4.60    5.00
   3   0  10    1.10    3.10
   3   0  10    3.90    5.40
   3   0  10    1.50    3.90
   4   0  10 1063.19   65.29
   4   0  10 1097.09   65.29
  -4   0 -10  961.50   67.79
  -4   0 -10 1121.49   66.19
   4   0  10 1085.09   65.19
  -4   0 -10 1033.00   65.59
   4   0  10 1216.78   67.09
   5   0  10    0.20    8.20
  -5   0 -10  -15.40    8.60
   5   0  10   -2.50    2.10
   5   0  10    2.50    4.40
  -5   0 -10    2.40    6.40
  -5   0 -10   12.00    5.70
  -6   0 -10  825.12   53.99
  -6   0 -10  839.82   56.59
  -6   0 -10  924.71   54.69
  -7   0 -10   -1.80    7.40
   7   0  10    1.10   10.90
  -7   0 -10    4.50    8.40
  -8   0 -10  440.66   32.30
  -8   0 -10  448.36   33.70
  -9   0 -10  -11.30   10.90
   9   0  10    9.70   14.10
  -9   0 -10   -2.20   10.40
 -10   0 -10  536.75   42.80
 -10   0 -10  615.54   43.60
 -11   0 -10  -17.60   14.70
  11   0  10   10.90   17.00
 -11   0 -10    3.40   14.40
 -15  -1  10   49.20    9.60
  15  -1 -10   63.09   10.20
 -15  -1  10   57.29   11.80
 -15   1  10   36.30   10.50
 -15   1  10   90.29   15.40
 -14  -1  10    5.50    8.70
  14  -1 -10    3.80    7.00
 -14  -1  10   -4.20    7.30
 -14   1  10    3.10    6.90
 -14   1  10   -2.50    7.90
  13  -1 -10  101.89   12.30
 -13  -1  10   78.29   14.60
 -13  -1  10   99.89   13.10
  13   1 -10   68.19   12.10
 -13   1  10   84.99   13.70
 -13   1  10   84.99   12.60
 -12  -1  10  751.42   51.59
 -12  -1  10  820.32   51.59
  12  -1 -10  955.10   51.49
  12   1 -10  774.92   50.79
 -12   1  10  817.22   51.79
 -12   1  10  843.32   51.49
 -11  -1  10  116.19   13.00
  11  -1 -10  147.99   12.20
 -11  -1  10  116.99   12.10
 -11   1  10  121.09   13.00
 -11   1  10  114.59   11.70
  11   1 -10  116.89   10.90
 -10  -1  10   91.79   10.60
  10  -1 -10  109.29   10.50
 -10  -1  10   78.79   12.40
  10  -1 -10   87.19   11.40
 -10  -1  10  108.09   11.00
 -10   1  10   98.79   10.20
  10   1 -10  102.49    9.20
 -10   1  10  113.19   11.60
  -9  -1  10  499.75   31.50
   9  -1 -10  469.95   32.20
   9  -1 -10  502.45   31.80
  -9  -1  10  504.05   31.80
   9  -1 -10  492.75   31.80
  -9  -1  10  437.56   34.30
  -9   1  10  558.94   35.90
  -9   1  10  504.35   31.50
   9   1 -10  532.65   31.70
  -9   1  10  500.95   31.90
   8  -1 -10 1766.92  102.09
   8  -1 -10 1739.43  102.49
  -8  -1  10 1742.93  102.19
  -8  -1  10 1704.73  101.79
  -8  -1  10 1577.94  103.29
  -8   1  10 1655.13  102.19
  -8   1  10 1761.42  103.39
  -8   1  10 1718.93  101.89
   8   1 -10 1683.33  101.19
   8   1 -10 1760.72  102.49
  -7  -1  10  346.27   23.50
  -7  -1  10  365.76   24.90
   7  -1 -10  376.76   23.80
  -7  -1  10  371.56   23.10
   7  -1 -10  375.56   23.90
   7   1 -10  351.16   22.30
  -7   1  10  380.06   24.90
  -7   1  10  364.36   23.30
   7   1 -10  360.96   23.60
  -7   1  10  366.36   23.70
  -6  -1  10  624.84   36.80
  -6  -1  10  580.84   36.30
   6  -1 -10  578.04   36.40
  -6  -1  10  583.94   37.40
   6  -1 -10  604.34   36.30
  -6  -1  10  597.94   35.80
  -6   1  10  563.34   36.00
  -6   1  10  592.64   36.90
  -6   1  10  573.64   36.30
  -5  -1  10 1048.20   60.79
  -5  -1  10  973.70   59.89
  -5  -1  10 1016.40   59.39
   5  -1 -10  995.50   59.99
  -5  -1  10 1066.19   60.09
   5  -1 -10  970.40   59.89
  -5   1  10 1015.90   59.79
  -5   1  10  922.51   59.89
  -5   1  10  954.90   60.19
  -4  -1  10 1594.94   92.59
   4  -1 -10 1502.95   91.99
  -4  -1  10 1507.45   91.99
   4  -1 -10 1516.85   91.99
  -4  -1  10 1596.34   91.79
  -4  -1  10 1587.84   91.59
  -4   1  10 1476.95   92.19
  -4   1  10 1508.15   92.09
  -4   1  10 1576.54   92.19
  -4   1  10 1582.04   91.89
   3  -1 -10  628.64   37.50
  -3  -1  10  632.14   37.00
   3  -1 -10  585.34   37.50
  -3  -1  10  608.54   37.60
  -3  -1  10  599.64   36.90
  -3  -1  10  618.74   38.00
  -3   1  10  573.54   37.40
  -3   1  10  619.64   37.70
  -3   1  10  626.34   37.70
  -3   1  10  638.14   37.40
  -2  -1  10 1398.56   82.49
   2  -1 -10 1354.06   82.39
   2  -1 -10 1414.36   82.49
  -2  -1  10 1343.17   81.89
  -2  -1  10 1407.16   82.69
  -2  -1  10 1409.56   81.89
  -2   1  10 1330.97   82.59
  -2   1  10 1379.76   82.19
  -2   1  10 1397.96   82.49
  -1  -1  10  242.98   17.10
  -1  -1  10  263.37   16.10
  -1  -1  10  239.48   16.20
   1  -1 -10  253.07   16.70
  -1   1  10  247.48   16.30
  -1   1  10  245.98   17.40
  -1   1  10  274.17   17.00
   1   1 -10  261.67   17.30
   0  -1  10   40.00    4.90
   0  -1 -10   26.50    5.10
   0  -1  10   37.60    6.80
   0  -1 -10   41.30    6.20
   0  -1  10   48.70    5.80
   0   1  10   44.90    6.00
   0   1  10   41.10    6.40
   0   1 -10   41.40    6.80
   0   1  10   36.90    5.40
   1  -1  10   26.30    4.50
   1  -1  10   22.00    4.80
  -1  -1 -10   25.30    4.20
   1  -1  10   29.20    5.10
  -1  -1 -10   24.10    4.90
  -1  -1 -10   26.00    4.60
   1   1  10   25.20    4.40
  -1   1 -10   17.30    2.60
   1   1  10   20.50    4.10
  -1   1 -10   27.40    5.50
   1   1  10   17.10    5.40
   1   1  10   29.90    4.20
  -1   1 -10   21.40    3.10
  -2  -1 -10  500.15   32.50
   2  -1  10  517.45   33.10
  -2  -1 -10  502.45   33.20
  -2  -1 -10  533.45   33.50
   2  -1  10  588.64   33.40
   2  -1  10  559.24   32.40
   2   1  10  520.75   32.80
   2   1  10  505.75   32.60
   2   1  10  563.14   34.20
   2   1  10  490.25   32.30
  -2   1 -10  527.15   33.70
   3  -1  10  121.39   11.30
   3  -1  10  129.19   10.20
  -3  -1 -10  109.39   12.40
   3  -1  10  137.79   10.10
  -3  -1 -10  131.19   10.70
  -3  -1 -10  111.39   12.00
   3   1  10  117.19   10.20
   3   1  10  118.39   13.80
   3   1  10  117.09   10.20
  -3   1 -10  114.29    9.40
   3   1  10  139.09   10.80
  -3   1 -10  139.99   12.90
   4  -1  10  187.98   13.80
   4  -1  10  189.48   14.70
  -4  -1 -10  187.18   16.30
  -4  -1 -10  162.38   15.60
   4  -1  10  198.98   13.70
  -4  -1 -10  195.78   14.60
  -4   1 -10  190.18   13.50
  -4   1 -10  195.88   16.50
   4   1  10  159.38   13.50
   4   1  10  202.18   14.30
   5  -1  10   20.20    8.70
   5  -1  10   12.40    4.50
  -5  -1 -10   10.20    6.10
  -5  -1 -10   11.00    8.20
   5  -1  10   13.40    4.50
  -5   1 -10    6.90    4.80
  -5   1 -10    9.90    4.70
   5   1  10    7.40    8.80
  -5   1 -10   23.40    7.90
  -6  -1 -10    5.00    8.00
   6  -1  10    8.50    9.70
   6  -1  10   12.30    4.70
  -6  -1 -10   -1.30    6.60
  -6   1 -10   -3.00    5.60
  -6   1 -10    0.10    5.40
  -6   1 -10   11.50    8.70
   6   1  10   -2.30    8.90
  -7  -1 -10   55.59    9.50
  -7  -1 -10   28.20   10.20
  -7   1 -10   37.10    7.90
   7   1  10   51.49   13.00
  -7   1 -10   52.39   11.50
  -7   1 -10   59.59    8.60
  -8  -1 -10  166.48   18.40
  -8  -1 -10  126.79   20.50
   8   1  10  168.88   25.50
  -8   1 -10  133.89   20.90
  -8   1 -10  139.59   17.60
   9  -1  10   43.80   14.40
  -9  -1 -10   15.60   10.60
  -9  -1 -10   -1.10   12.20
   9   1  10   20.40   15.20
  -9   1 -10   17.00   13.50
  -9   1 -10   10.30    9.80
 -10  -1 -10   17.60   14.30
 -10  -1 -10   -0.80   12.80
  10  -1  10   45.60   15.70
 -10   1 -10    7.50   14.60
 -10   1 -10    5.70   11.10
  10   1  10   35.80   17.20
 -11  -1 -10  -23.10   14.20
  11  -1  10   14.00   14.80
 -11   1 -10  -25.60   16.90
 -11   1 -10    4.90   13.00
 -14  -2  10  116.29   21.70
  14  -2 -10   61.69    9.70
 -14  -2  10   79.09   11.40
 -14   2  10   95.89   16.50
 -14   2  10   61.69   11.60
 -13  -2  10   46.40    9.40
  13  -2 -10   44.10    8.00
 -13  -2  10   43.80   10.80
 -13   2  10   32.90    9.30
 -13   2  10   49.30    9.20
  12  -2 -10   28.90    6.60
 -12  -2  10   44.10    9.20
 -12  -2  10   38.00    8.40
 -12   2  10   35.90    8.60
 -12   2  10   33.10    7.90
 -11  -2  10   65.99   11.40
 -11  -2  10   75.99   13.30
  11  -2 -10  105.59   12.10
 -11  -2  10   95.59   12.30
 -11   2  10   97.39   12.50
 -11   2  10   93.29   14.00
 -10  -2  10  588.34   40.10
 -10  -2  10  636.44   40.30
  10  -2 -10  669.33   40.00
 -10   2  10  638.54   40.80
 -10   2  10  639.34   39.60
   9  -2 -10   68.89   10.10
  -9  -2  10   73.59   10.90
  -9  -2  10   77.79    9.60
  -9   2  10   64.49    8.70
  -9   2  10   69.99   11.30
  -8  -2  10  122.89   10.60
   8  -2 -10  122.09   12.10
  -8  -2  10  124.09   11.70
  -8   2  10  111.89   10.80
  -8   2  10  130.09   12.70
  -7  -2  10  513.75   34.30
  -7  -2  10  518.45   31.60
   7  -2 -10  508.95   32.70
  -7  -2  10  455.45   36.80
  -7   2  10  556.84   32.10
  -7   2  10  526.35   33.20
  -6  -2  10  506.55   32.40
   6  -2 -10  412.36   31.20
  -6  -2  10  509.85   30.00
  -6  -2  10  539.05   31.20
   6  -2 -10  448.46   31.90
  -6   2  10  533.95   30.40
   5  -2 -10   54.59    7.80
   5  -2 -10   29.10    5.90
  -5  -2  10   40.00    4.80
  -5  -2  10   33.10    5.30
  -5  -2  10   40.70    7.30
  -5   2  10   30.70    5.70
  -5   2  10   45.70    6.00
  -5   2  10   54.69    8.60
  -4  -2  10  721.83   40.60
   4  -2 -10  645.24   41.50
  -4  -2  10  651.53   42.20
  -4  -2  10  696.43   40.20
   4  -2 -10  665.83   41.60
  -4  -2  10  683.73   41.40
  -4   2  10  664.43   40.80
  -4   2  10  675.03   41.70
  -4   2  10  654.23   41.70
  -3  -2  10 1335.47   80.59
  -3  -2  10 1325.67   81.19
   3  -2 -10 1346.87   80.79
  -3  -2  10 1439.56   79.79
  -3  -2  10 1283.27   79.59
   3  -2 -10 1351.76   80.89
  -3   2  10 1369.46   80.19
  -3   2  10 1325.57   80.89
  -3   2  10 1334.87   80.89
  -3   2  10 1356.66   80.19
  -2  -2  10    8.00    4.90
   2  -2 -10    8.10    4.90
   2  -2 -10   13.90    4.30
  -2  -2  10   12.00    2.40
  -2  -2  10   13.30    2.40
  -2  -2  10   13.70    4.20
  -2   2  10   12.30    3.10
  -2   2  10    5.40    5.00
  -2   2  10   10.40    4.10
   2   2 -10   14.50    5.20
  -1  -2  10   20.70    5.50
  -1  -2  10   32.80    4.20
   1  -2 -10   26.10    4.80
  -1  -2  10   21.90    4.70
   1  -2 -10   18.40    5.50
  -1  -2  10   28.90    4.40
   1   2 -10   24.40    5.80
  -1   2  10   27.00    3.50
  -1   2  10   23.80    5.80
  -1   2  10   31.90    5.10
   0  -2  10  388.16   28.00
   0  -2  10  480.05   26.90
   0  -2 -10  446.36   28.30
   0  -2 -10  408.36   27.50
   0  -2  10  452.05   26.40
   0   2  10  452.05   27.90
   0   2 -10  427.06   28.40
   0   2  10  426.86   27.30
   0   2  10  444.26   28.60
   0   2  10  411.66   26.40
   1  -2  10 1609.84   90.89
   1  -2  10 1468.35   92.09
   1   2  10 1447.56   90.69
   1   2  10 1601.34   92.69
   1   2  10 1534.85   91.49
   1   2  10 1539.05   91.89
  -2  -2 -10   49.70    7.70
   2   2  10   38.90    8.50
   2   2  10   37.00    9.20
   2   2  10   45.70    7.40
  -2   2 -10   57.99   11.10
   3  -2  10   57.79    8.00
  -3  -2 -10   57.79    8.90
   3  -2  10   90.69   12.70
   3  -2  10   56.69    8.30
  -3   2 -10   76.29   11.20
   3   2  10   59.69    8.50
   3   2  10   57.89    9.70
   4  -2  10  183.18   14.30
  -4  -2 -10  205.98   13.80
  -4  -2 -10  164.68   18.30
  -4   2 -10  198.98   18.30
   4   2  10  191.38   19.90
   4   2  10  187.68   14.40
  -5  -2 -10  796.22   47.50
  -5  -2 -10  729.03   50.09
   5  -2  10  786.12   47.90
   5   2  10  788.82   51.69
  -5   2 -10  787.72   50.59
  -6  -2 -10  249.97   17.90
   6  -2  10  242.08   18.40
  -6  -2 -10  216.68   22.80
  -6   2 -10  256.17   23.10
   6   2  10  228.58   25.20
  -7  -2 -10   64.09   12.30
  -7  -2 -10   57.09   12.50
  -7   2 -10   44.60   11.80
   7   2  10   33.50   13.50
   8  -2  10   12.70   13.10
  -8  -2 -10  -17.60   12.00
  -8  -2 -10    5.50    8.40
  -8   2 -10    1.50   11.70
   8   2  10   -1.00   14.10
  -9  -2 -10  179.98   20.50
  -9  -2 -10  150.78   28.10
  -9   2 -10  162.28   26.70
   9   2  10  138.99   21.50
 -12  -3  10   24.40   11.90
 -12  -3  10   23.30    9.70
 -12   3  10    9.30    9.40
  11  -3 -10  106.99   14.10
 -11  -3  10  104.09   15.90
 -11   3  10  111.29   17.20
 -10  -3  10   33.70    9.30
  10  -3 -10   18.50    7.00
 -10  -3  10   10.40    7.80
 -10   3  10   -2.80    7.70
 -10   3  10   11.40    6.90
   9  -3 -10    0.70    6.90
  -9  -3  10    6.10    6.80
  -9  -3  10   17.60    7.10
  -9   3  10    6.50    7.40
  -9   3  10   -3.50    5.70
   8  -3 -10   40.40    7.90
  -8  -3  10   70.49   10.90
  -8  -3  10   47.40    7.70
  -8   3  10   60.89    9.20
  -8   3  10   47.50    8.50
   7  -3 -10  237.08   17.90
  -7  -3  10  226.88   18.10
  -7  -3  10  194.08   16.30
  -7   3  10  233.58   16.00
  -7   3  10  244.18   19.20
   6  -3 -10  158.58   14.50
  -6  -3  10  161.38   14.40
  -6  -3  10  148.29   11.90
  -6   3  10  166.58   15.40
  -6   3  10  173.38   12.30
   5  -3 -10   11.90    6.20
  -5  -3  10   19.10    8.70
  -5   3  10   10.70    6.60
  -5   3  10   16.90    3.90
  -4  -3  10  140.09   12.00
   4  -3 -10  126.39   13.10
  -4   3  10  123.79   13.20
  -4   3  10  120.09    9.80
  -3  -3  10   98.59   10.20
   3  -3 -10   95.09   11.70
  -3   3  10   84.39    7.90
  -3   3  10   73.79    6.80
  -3   3  10   92.39   12.00
  -3   3  10   80.89    9.00
  -2  -3  10  444.76   28.80
   2  -3 -10  454.25   29.80
  -2   3  10  472.45   30.00
  -2   3  10  437.06   28.50
  -2   3  10  446.76   27.90
  -1  -3  10    9.40    4.80
   1  -3 -10    5.60    6.60
  -1   3  10   16.60    4.80
  -1   3  10    4.90    6.50
   1   3 -10   15.30    6.20
   0  -3  10  276.07   20.70
   0  -3  10  334.97   19.50
   0  -3 -10  310.77   22.70
   0   3  10  321.47   23.10
   0   3 -10  305.47   22.60
   0   3  10  299.87   20.90
   1  -3  10   49.10    8.90
   1  -3  10   63.79   11.20
   1  -3  10   66.39    7.30
  -1  -3 -10   52.29    8.80
   1   3  10   47.80    7.00
  -1   3 -10   58.89    9.30
   1   3  10   53.19    9.60
   2  -3  10  394.26   23.50
  -2  -3 -10  323.17   26.50
   2   3  10  332.57   24.10
  -2   3 -10  370.56   26.50
   2   3  10  358.46   27.60
  -3  -3 -10   49.50    9.50
   3  -3  10   44.60    6.20
   3   3  10   51.09   10.90
   3   3  10   44.60    7.10
  -3   3 -10   58.99   10.50
   4  -3  10  357.66   24.50
   4  -3  10  259.07   21.00
  -4  -3 -10  278.87   25.10
   4   3  10  329.57   26.90
  -4   3 -10  344.57   26.20
  -5  -3 -10    5.50    9.70
   5  -3  10   16.20   11.20
  -5   3 -10   11.50   10.70
   5   3  10  -15.20   10.60
  -6  -3 -10   78.49   14.30
  -6   3 -10   84.09   14.90
   6   3  10   83.79   14.70
  -7  -3 -10   48.40   14.40
  -7   3 -10   66.69   15.20
   7   3  10   50.69   14.90
  -7  -4  10   24.20    8.70
   7  -4 -10   18.30    8.50
  -7   4  10   22.80    9.30
  -6  -4  10  125.39   15.10
   6  -4 -10  106.49   14.70
  -6   4  10   89.19   12.40
  -5  -4  10   87.29   13.30
   5  -4 -10   72.09   13.60
  -5   4  10   92.49   15.90
   4  -4 -10   41.30    8.70
  -4  -4  10   46.10    7.90
  -4   4  10   48.60   10.00
   3  -4 -10   -3.80    7.70
  -3   4  10    1.80    8.20
   2  -4 -10    7.90    7.80
  -2  -4  10   20.20    6.30
  -2   4  10    4.20    8.10
   1  -4 -10   49.30    9.80
  -1  -4  10   60.99   10.30
  -1   4  10   41.20    9.80
   0  -4  10    4.70    5.50
   0  -4 -10   -0.90    8.10
   0   4 -10    6.00    8.00
   0   4  10   10.00    8.80
   1  -4  10   16.50    5.60
  -1  -4 -10    2.10    8.80
  -1   4 -10   16.60    8.80
   1   4  10    5.70    8.90
   2  -4  10   -4.10    5.40
  -2  -4 -10   -9.50    9.00
  -2   4 -10    3.30    9.00
   2   4  10  -12.40    9.40
  -3  -4 -10   -4.90   11.40
   3   4  10   -3.70   10.60
  -3   4 -10   13.30   11.00
 -15   0  11  318.17   26.70
 -15   0  11  320.77   24.90
 -14   0  11    4.10    7.50
 -14   0  11    9.10    8.00
  14   0 -11   -9.00   10.50
 -13   0  11  181.48   16.90
 -13   0  11  179.48   17.90
  12   0 -11   -1.00    7.60
 -12   0  11    1.70    5.90
 -12   0  11    1.30    6.50
 -11   0  11  585.94   36.60
 -11   0  11  576.44   36.30
  11   0 -11  554.24   36.50
  10   0 -11    0.60    4.50
 -10   0  11   -8.80    8.40
  10   0 -11    5.30    5.30
 -10   0  11   -0.80    4.90
 -10   0  11   -0.70    4.80
  -9   0  11  594.64   36.80
   9   0 -11  536.75   34.50
  -9   0  11  564.44   34.20
   9   0 -11  533.65   34.10
  -9   0  11  489.65   35.60
  -8   0  11   -2.70    4.00
  -8   0  11   -1.70    3.90
   8   0 -11    0.60    3.70
   8   0 -11    0.70    4.10
  -8   0  11    7.70    6.00
   7   0 -11  464.65   30.30
  -7   0  11  471.75   30.70
  -7   0  11  478.75   30.60
  -7   0  11  504.05   31.80
   7   0 -11  530.55   30.70
  -6   0  11   -2.80    3.70
   6   0 -11    3.40    3.10
  -6   0  11    0.80    4.10
  -6   0  11    0.60    3.40
   6   0 -11   -3.90    3.50
  -5   0  11  723.53   44.50
  -5   0  11  699.23   44.20
   5   0 -11  743.83   44.20
   5   0 -11  737.03   44.20
  -5   0  11  745.63   44.50
   4   0 -11    0.20    2.70
  -4   0  11    2.80    3.10
   4   0 -11    1.50    3.30
  -4   0  11    0.30    4.20
  -4   0  11    0.50    3.30
  -4   0  11   -0.20    3.30
  -3   0  11   21.70    3.80
  -3   0  11   18.00    3.90
  -3   0  11   15.20    4.20
   3   0 -11   18.90    3.50
   3   0 -11   24.10    3.80
  -3   0  11   17.90    4.20
   2   0 -11    0.70    3.20
  -2   0  11    5.00    3.50
  -2   0  11    1.60    3.00
  -2   0  11   -3.50    3.80
   2   0 -11    2.70    3.10
  -1   0  11   87.59    8.30
  -1   0  11   82.19    8.20
  -1   0  11   93.39    7.90
   1   0 -11   87.59    7.90
   1   0 -11   80.59    8.80
   0   0 -11   -1.10    3.80
   0   0 -11   -1.20    4.10
   0   0  11    0.10    3.80
   0   0  11    1.70    3.00
   0   0 -11    0.60    3.30
   0   0  11   -0.30    3.70
  -1   0 -11   99.39   11.60
   1   0  11  103.79   10.10
  -1   0 -11  107.79   10.10
  -1   0 -11  108.59    9.80
   1   0  11  125.49    9.30
   1   0  11   99.09   10.40
   2   0  11    2.70    3.70
   2   0  11   -0.20    4.90
   2   0  11    0.30    4.30
  -2   0 -11   -7.90    6.10
  -2   0 -11    4.00    4.70
  -2   0 -11    3.20    4.10
   3   0  11  187.78   13.60
  -3   0 -11  148.19   17.60
   3   0  11  175.58   15.70
   3   0  11  214.58   13.60
   3   0  11  182.08   13.70
  -3   0 -11  177.38   15.40
  -3   0 -11  180.38   14.30
  -4   0 -11    6.20    6.30
  -4   0 -11   -3.80    5.40
   4   0  11   -0.40    6.90
   4   0  11   -3.00    4.60
   4   0  11    4.30    4.10
  -5   0 -11  144.29   15.70
  -5   0 -11  133.29   14.60
   5   0  11  160.08   18.00
   5   0  11  144.39   15.60
  -6   0 -11   -5.30    9.40
  -6   0 -11   -2.60    7.10
  -6   0 -11   -1.80    8.00
   6   0  11   -7.50    9.10
  -7   0 -11  451.15   39.40
   7   0  11  629.14   40.60
  -7   0 -11  542.85   37.80
   8   0  11   -4.90   12.80
  -8   0 -11    0.60    9.40
  -8   0 -11    2.10   10.20
  -9   0 -11    2.10   12.20
  -9   0 -11    8.10   11.20
   9   0  11   13.70   15.30
 -10   0 -11   -3.00   12.70
 -10   0 -11    0.70   13.90
  10   0  11   -0.10   15.00
 -15  -1  11   17.50   10.40
  15  -1 -11   28.80    8.80
 -15  -1  11   22.70    8.80
 -15   1  11    6.40   10.20
 -15   1  11   27.90    8.80
 -14  -1  11   83.89   13.90
  14  -1 -11  110.39   14.00
 -14  -1  11   90.89   16.10
 -14   1  11   93.69   14.60
 -14   1  11   63.19   10.60
 -13  -1  11   33.50    7.90
  13  -1 -11   40.40    7.60
 -13  -1  11   45.30    8.40
 -13   1  11   31.80    8.50
 -13   1  11   34.40    7.70
 -12  -1  11   70.79   12.60
  12  -1 -11   86.89   11.90
 -12  -1  11   65.79    9.10
  12   1 -11   71.09   10.00
 -12   1  11   72.59   11.60
 -12   1  11   71.49   12.70
  11  -1 -11   89.99   10.80
 -11  -1  11   85.59   11.80
 -11  -1  11   84.89   11.10
 -11   1  11   83.09   12.60
 -11   1  11   78.09   10.60
  11   1 -11   79.69    9.20
 -10  -1  11  194.08   16.90
  10  -1 -11  244.38   16.00
 -10  -1  11  211.58   16.30
 -10  -1  11  171.98   21.10
 -10   1  11  197.58   16.10
  10   1 -11  203.18   14.50
 -10   1  11  223.08   17.20
  -9  -1  11  218.58   20.80
   9  -1 -11  223.88   17.70
   9  -1 -11  262.27   18.80
  -9  -1  11  237.28   17.30
  -9  -1  11  229.78   16.70
   9   1 -11  226.58   15.60
  -9   1  11  263.87   17.80
   9   1 -11  241.08   17.00
  -9   1  11  236.48   17.20
   8  -1 -11   62.79    9.50
  -8  -1  11   57.99    8.70
   8  -1 -11   71.39    8.90
  -8  -1  11   57.89    7.90
  -8  -1  11   56.39    8.50
  -8   1  11   58.89   11.30
  -8   1  11   62.89    8.30
   8   1 -11   61.49    6.10
  -8   1  11   58.99    9.20
  -7  -1  11  422.16   26.90
  -7  -1  11  414.16   28.70
   7  -1 -11  399.56   27.10
  -7  -1  11  434.06   26.40
   7  -1 -11  428.16   27.00
  -7  -1  11  447.16   28.00
   7   1 -11  360.36   25.30
  -7   1  11  432.46   27.10
  -7   1  11  447.46   26.60
  -7   1  11  434.96   28.00
  -6  -1  11  760.52   46.70
  -6  -1  11  783.92   47.90
   6  -1 -11  744.93   46.60
  -6  -1  11  790.82   46.90
   6  -1 -11  745.63   46.70
  -6  -1  11  768.62   46.10
  -6   1  11  770.22   46.70
  -6   1  11  742.03   47.10
  -6   1  11  770.62   46.50
   5  -1 -11 1177.68   72.69
  -5  -1  11 1284.37   72.69
   5  -1 -11 1201.28   72.69
  -5  -1  11 1199.88   72.29
  -5  -1  11 1234.58   72.79
  -5  -1  11 1265.17   73.59
  -5   1  11 1148.49   72.89
  -5   1  11 1239.48   72.59
  -5   1  11 1162.98   72.69
   4  -1 -11   56.39    7.50
  -4  -1  11   46.30    6.80
   4  -1 -11   62.59    7.60
  -4  -1  11   54.59    6.30
  -4  -1  11   58.89    7.50
  -4   1  11   54.29    7.90
  -4   1  11   61.69    7.00
  -4   1  11   55.99    7.50
  -4   1  11   56.09    7.80
   3  -1 -11  499.35   30.70
  -3  -1  11  481.55   29.90
   3  -1 -11  480.95   30.50
  -3  -1  11  529.95   30.30
  -3  -1  11  490.65   30.70
  -3  -1  11  479.35   31.20
  -3   1  11  489.25   30.70
  -3   1  11  486.85   30.80
  -3   1  11  484.75   30.40
  -3   1  11  471.85   30.40
   2  -1 -11 1438.46   83.69
   2  -1 -11 1315.07   83.49
  -2  -1  11 1379.46   83.09
  -2  -1  11 1445.86   83.69
  -2  -1  11 1470.35   83.79
  -2  -1  11 1374.86   83.89
  -2   1  11 1350.76   83.79
  -2   1  11 1402.96   83.39
  -2   1  11 1417.46   83.69
  -1  -1  11 2459.05  149.59
  -1  -1  11 2533.15  149.99
  -1  -1  11 2532.45  150.28
   1  -1 -11 2667.03  150.08
   1  -1 -11 2485.35  149.88
   1   1 -11 2580.64  150.28
  -1   1  11 2554.64  149.99
  -1   1  11 2509.35  150.28
  -1   1  11 2457.55  149.69
   0  -1  11  164.18   12.60
   0  -1 -11  167.98   13.70
   0  -1  11  204.48   12.40
   0  -1  11  176.08   13.60
   0  -1 -11  170.88   13.10
   0   1  11  166.18   13.00
   0   1 -11  196.28   14.30
   0   1  11  177.38   14.30
   0   1  11  171.68   12.40
  -1  -1 -11    2.00    4.70
   1  -1  11    2.20    3.20
   1  -1  11    2.80    4.80
  -1  -1 -11   -0.70    3.70
  -1  -1 -11   -1.00    4.20
   1  -1  11    1.80    3.80
  -1   1 -11    4.70    5.20
  -1   1 -11    1.00    1.60
   1   1  11    0.30    3.60
   1   1  11    5.80    5.40
   1   1  11    2.50    3.70
   1   1  11   -0.80    3.60
  -2  -1 -11  803.52   52.59
   2  -1  11  917.21   53.19
   2  -1  11  947.91   52.59
  -2  -1 -11  837.32   53.19
   2  -1  11  853.91   53.19
  -2  -1 -11  886.11   53.39
   2   1  11  861.31   52.79
  -2   1 -11  761.32   52.19
   2   1  11  892.01   54.09
  -2   1 -11  933.41   53.79
   2   1  11  895.01   52.99
   2   1  11  850.91   52.39
   3  -1  11 1822.72   96.09
   3  -1  11 1550.34   95.49
  -3  -1 -11 1521.05   95.89
   3  -1  11 1681.73   94.99
   3  -1  11 1524.75   95.09
  -3  -1 -11 1540.15   95.69
  -3  -1 -11 1618.34   95.19
   3   1  11 1494.55   94.79
   3   1  11 1505.05   95.09
  -3   1 -11 1612.64   94.39
   3   1  11 1600.54   96.79
   3   1  11 1635.14   95.39
   4  -1  11  153.68   15.10
  -4  -1 -11  126.39   12.20
   4  -1  11  115.59   10.80
  -4  -1 -11  102.49   16.10
  -4  -1 -11  118.29   16.10
  -4   1 -11  133.39   14.50
  -4   1 -11  108.39   10.40
   4   1  11  113.49   16.00
   5  -1  11  142.89   11.90
  -5  -1 -11  122.19   16.30
  -5  -1 -11  141.49   14.20
  -5   1 -11  161.58   16.70
  -5   1 -11  115.19   11.80
   5   1  11  122.49   19.00
  -5   1 -11  126.89   12.20
  -6  -1 -11  438.06   27.80
  -6  -1 -11  377.56   29.30
  -6   1 -11  385.86   29.40
  -6   1 -11  341.27   26.00
  -6   1 -11  394.36   26.20
  -7  -1 -11  334.37   29.50
  -7  -1 -11  393.36   28.30
  -7   1 -11  404.26   30.60
   7   1  11  382.06   32.40
  -7   1 -11  361.76   26.60
  -8  -1 -11  125.99   22.10
  -8  -1 -11  125.09   18.10
  -8   1 -11   95.39   16.50
   8   1  11  155.58   25.00
  -8   1 -11  137.29   21.10
  -9  -1 -11  162.48   22.80
  -9  -1 -11  167.28   25.00
   9   1  11  218.98   28.90
  -9   1 -11  164.98   25.10
  -9   1 -11  166.08   21.20
 -10  -1 -11   21.40   15.10
 -10  -1 -11   36.80   14.50
  10  -1  11   50.39   16.20
 -10   1 -11   41.30   16.30
  10   1  11   27.00   18.40
 -10   1 -11   30.90   16.20
  14  -2 -11  143.79   15.30
 -14  -2  11  136.89   21.00
 -14  -2  11  134.09   19.60
 -14   2  11  105.09   17.80
 -14   2  11  158.28   18.10
 -13  -2  11  122.49   17.90
  13  -2 -11  121.59   14.30
 -13  -2  11  129.59   15.50
 -13   2  11  123.09   14.90
 -13   2  11  128.69   17.10
  12  -2 -11    1.80    5.90
 -12  -2  11   -4.90    7.10
 -12  -2  11   -0.10    7.30
 -12   2  11   12.30    7.20
 -12   2  11    0.90    7.50
 -11  -2  11   14.00    6.60
  11  -2 -11   19.40    6.60
 -11  -2  11   12.90    6.90
 -11   2  11   25.10    6.60
 -11   2  11   18.30    7.40
  10  -2 -11  278.17   20.00
 -10  -2  11  249.28   19.90
 -10  -2  11  253.67   19.50
 -10   2  11  271.47   19.20
 -10   2  11  270.37   20.60
  -9  -2  11  263.57   19.10
   9  -2 -11  275.37   20.10
  -9  -2  11  271.97   20.10
  -9   2  11  292.37   21.20
  -9   2  11  282.87   19.10
  -8  -2  11    2.70    5.30
  -8  -2  11    5.20    3.80
  -8  -2  11   -1.40    5.90
   8  -2 -11   -0.80    5.40
  -8   2  11    3.30    4.50
  -8   2  11    4.50    5.70
  -7  -2  11  176.88   14.70
   7  -2 -11  194.08   15.30
  -7  -2  11  186.48   12.80
  -7  -2  11  174.38   15.00
  -7   2  11  184.48   13.50
  -7   2  11  170.48   14.80
  -6  -2  11  281.57   19.50
  -6  -2  11  234.68   21.90
  -6  -2  11  288.97   18.00
   6  -2 -11  284.87   19.80
  -6   2  11  294.77   20.00
  -6   2  11  291.27   18.60
  -5  -2  11  188.48   17.20
  -5  -2  11  219.28   13.70
   5  -2 -11  200.08   15.80
  -5  -2  11  211.58   15.30
  -5  -2  11  221.48   15.20
  -5   2  11  203.28   14.40
  -5   2  11  205.98   15.90
   4  -2 -11   -1.10    4.10
  -4  -2  11    1.90    2.70
   4  -2 -11    5.80    5.10
  -4  -2  11    4.80    4.30
  -4  -2  11   -4.30    5.70
  -4   2  11    4.20    4.70
  -4   2  11    1.00    3.30
  -4   2  11    1.50    3.70
  -4   2  11   -4.10    5.40
   3  -2 -11  203.88   15.80
  -3  -2  11  239.38   15.80
  -3  -2  11  222.98   17.00
  -3  -2  11  233.38   14.20
  -3   2  11  206.98   16.00
  -3   2  11  233.28   15.30
  -3   2  11  209.48   14.80
  -2  -2  11   57.99    7.70
  -2  -2  11   52.49    5.40
  -2  -2  11   50.19    8.10
   2  -2 -11   53.89    7.80
  -2   2  11   42.90    7.40
  -2   2  11   43.30    5.80
   1  -2 -11  291.77   20.80
  -1  -2  11  310.77   19.90
   1  -2 -11  301.37   20.40
  -1  -2  11  275.07   18.30
  -1  -2  11  279.27   20.30
   1   2 -11  294.57   20.40
  -1   2  11  281.57   18.30
  -1   2  11  303.27   22.70
   0  -2 -11   -0.80    5.60
   0  -2  11    5.50    3.30
   0   2 -11    4.70    5.80
   0   2  11    3.00    3.80
   0   2  11    2.50    3.20
   0   2  11   -0.70    5.90
   1  -2  11  945.31   52.89
  -1  -2 -11  879.71   54.09
  -1   2 -11  883.41   54.19
   1   2  11  878.31   54.59
   1   2  11  854.21   52.99
   1   2  11  797.02   52.09
   2  -2  11    7.30    5.40
  -2  -2 -11    4.50    6.60
   2  -2  11    6.10    3.60
   2   2  11  -10.90    7.10
   2   2  11    4.10    4.30
  -2   2 -11    7.30    7.30
   3  -2  11    2.10    6.20
   3  -2  11    2.30    4.10
  -3  -2 -11   -2.40    6.80
   3  -2  11    4.30    4.10
   3   2  11   -1.60    8.10
   3   2  11   -0.10    4.50
  -3   2 -11    0.20    7.70
   4  -2  11   30.60    5.40
  -4  -2 -11   12.90    8.10
   4  -2  11   26.20    8.20
  -4  -2 -11   19.20    5.10
  -4   2 -11   26.50    9.20
   4   2  11   14.80    9.70
   5  -2  11  616.74   37.90
  -5  -2 -11  610.44   37.60
  -5  -2 -11  536.25   40.40
  -5   2 -11  625.44   41.30
   5   2  11  606.44   42.40
  -6  -2 -11   16.50   10.20
  -6  -2 -11   35.30    7.10
   6  -2  11   35.80   11.00
   6  -2  11   34.30    7.40
   6   2  11    1.90   12.20
  -6   2 -11   35.00   11.50
  -7  -2 -11  253.87   27.60
  -7  -2 -11  300.17   21.60
  -7   2 -11  288.57   28.10
   7   2  11  256.77   30.70
   8  -2  11   33.40   13.30
  -8  -2 -11    8.40   12.00
  -8  -2 -11   16.30   13.40
  -8   2 -11    1.30   13.50
   8   2  11   12.40   16.10
   9  -2  11   34.50   14.70
  -9  -2 -11    2.10   15.60
   9   2  11   -6.90   17.10
  11  -3 -11   15.80    7.90
 -11  -3  11   16.20    8.50
 -11   3  11   10.50    8.60
 -10  -3  11   56.59   11.20
 -10  -3  11   58.79    9.20
  10  -3 -11   60.19    9.20
 -10   3  11   53.89    9.80
  -9  -3  11  155.48   16.00
  -9  -3  11  143.99   15.20
   9  -3 -11  145.79   16.40
  -9   3  11  143.99   17.50
  -9   3  11  174.28   14.10
   8  -3 -11   -4.90    6.30
  -8  -3  11    8.90    6.70
  -8  -3  11   11.70    5.30
  -8   3  11   -6.80    7.20
  -8   3  11    1.50    5.00
  -7  -3  11   49.50    8.00
   7  -3 -11   57.39    8.70
  -7  -3  11   62.59    8.60
  -7   3  11   63.99    9.20
  -7   3  11   67.69    8.80
   6  -3 -11  196.08   16.70
  -6  -3  11  213.38   16.60
  -6  -3  11  179.28   13.60
  -6   3  11  201.08   14.40
  -6   3  11  211.68   17.50
   5  -3 -11   72.49   12.20
  -5  -3  11   55.99    8.10
  -5  -3  11   75.19    6.40
  -5  -3  11   81.49   10.60
  -5   3  11   74.99   11.80
  -5   3  11   78.09    8.10
  -4  -3  11   46.60    6.50
   4  -3 -11   36.60    7.50
  -4   3  11   38.70    5.10
  -4   3  11   38.00    6.20
  -4   3  11   37.90    7.70
  -3  -3  11   48.40    4.60
   3  -3 -11   39.50    7.50
  -3   3  11   41.50    5.50
  -3   3  11   49.20    7.10
  -3   3  11   39.70    7.80
  -3   3  11   52.29    8.20
   2  -3 -11  244.18   18.50
  -2  -3  11  232.28   17.50
  -2   3  11  227.88   15.80
  -2   3  11  214.88   16.60
  -2   3  11  233.18   19.30
  -1  -3  11    4.00    2.70
  -1  -3  11    3.30    2.60
   1  -3 -11   -7.20    6.50
  -1  -3  11    5.00    4.80
  -1   3  11   -3.90    7.00
   1   3 -11    5.40    6.40
  -1   3  11   -3.30    4.50
   0  -3  11   85.89    8.30
   0  -3  11   58.39    9.70
   0  -3 -11   63.79    9.60
   0  -3  11   81.59    7.50
   0   3 -11   80.99   12.60
   0   3  11   68.49   10.20
   0   3  11   55.49   10.10
   1  -3  11    7.10    4.10
  -1  -3 -11    1.40    7.00
   1  -3  11    7.80    5.20
  -1   3 -11   12.00    7.70
   1   3  11    2.60    5.30
   1   3  11    1.80    8.40
  -2  -3 -11  172.98   18.50
   2  -3  11  154.38   16.10
   2   3  11  176.08   15.10
   2   3  11  205.58   20.90
  -2   3 -11  211.88   18.70
   3  -3  11   21.00    8.40
  -3  -3 -11   11.00    8.70
  -3   3 -11   32.80   10.10
   3   3  11    3.10    7.40
   3   3  11   15.40   10.60
  -4  -3 -11  109.49   18.90
   4   3  11  133.39   20.70
  -4   3 -11  132.59   19.50
  -5  -3 -11   52.69   12.30
   5   3  11   64.49   14.90
  -5   3 -11   94.39   14.60
  -6  -3 -11   12.10   11.90
   6  -3  11   43.10   12.40
  -6   3 -11   27.10   13.00
   6   3  11    9.50   13.70
   6  -4 -11    9.70    9.10
  -6  -4  11    4.00    7.30
  -6   4  11   -6.20    9.20
  -5  -4  11    5.10    7.50
   5  -4 -11   -9.20    7.80
  -5   4  11   11.10    9.40
  -4  -4  11  165.68   15.80
   4  -4 -11  134.09   16.60
  -4   4  11  148.79   18.70
  -3  -4  11  147.09   14.40
   3  -4 -11  134.29   16.30
  -3   4  11  117.89   17.60
  -2  -4  11   -4.90    6.00
   2  -4 -11   -8.20    7.90
  -1  -4  11    3.10    6.20
   1  -4 -11   -6.20    8.00
   0  -4 -11  117.09   17.50
   0  -4  11  121.49   13.10
   0   4 -11  159.88   16.10
   0   4  11  118.59   18.70
   1  -4  11  114.69   12.60
  -1  -4 -11  106.89   18.70
   1   4  11  108.79   19.30
 -15   0  12   10.90    8.80
 -15   0  12    1.20    8.80
 -14   0  12   65.99   10.60
  14   0 -12  121.59   20.60
 -14   0  12   92.69   14.10
 -13   0  12    2.80    7.10
 -13   0  12   -3.30    6.50
  13   0 -12   -1.40    9.20
 -12   0  12  910.31   54.89
 -12   0  12  863.01   54.99
 -11   0  12    7.10    5.90
  11   0 -12    4.60    5.40
 -11   0  12    0.50    5.80
  11   0 -12    4.10    6.30
 -10   0  12  150.58   13.90
  10   0 -12  151.48   13.80
 -10   0  12  161.78   13.90
  10   0 -12  193.58   14.30
   9   0 -12    3.60    4.90
  -9   0  12    2.50    4.90
  -9   0  12    2.80    4.80
  -9   0  12   18.80    7.60
   9   0 -12    0.60    4.20
  -8   0  12 2931.41  181.98
   8   0 -12 2949.51  181.88
  -8   0  12 3084.69  183.18
  -8   0  12 2887.01  182.48
   8   0 -12 3515.25  182.08
   7   0 -12    1.20    3.50
  -7   0  12    1.20    5.20
   7   0 -12   -0.30    4.00
  -7   0  12    2.20    4.30
  -7   0  12    2.40    4.10
   6   0 -12   45.70    7.20
  -6   0  12   44.80    7.90
   6   0 -12   38.80    6.80
  -6   0  12   38.90    7.30
  -6   0  12   56.09    8.00
  -6   0  12   39.00    5.80
  -5   0  12   -7.10    3.90
  -5   0  12   -2.90    3.70
   5   0 -12    9.40    3.50
  -5   0  12    1.10    3.80
   5   0 -12    7.00    3.90
  -5   0  12   -2.70    5.20
  -4   0  12 4395.06  254.97
   4   0 -12 4434.56  254.27
   4   0 -12 3986.70  254.17
  -4   0  12 4313.37  254.47
  -4   0  12 4464.45  254.67
  -4   0  12 4279.17  254.37
  -3   0  12   -0.50    3.50
  -3   0  12    2.10    4.40
  -3   0  12   -4.30    3.80
  -3   0  12   -8.10    4.00
   3   0 -12   -2.30    3.60
   3   0 -12   -2.80    3.60
   2   0 -12  220.78   15.40
   2   0 -12  238.98   16.10
  -2   0  12  223.18   15.90
  -2   0  12  230.08   15.40
  -2   0  12  219.98   15.90
  -1   0  12   -3.30    3.70
  -1   0  12   -5.20    3.80
   1   0 -12   -5.70    4.20
   1   0 -12   -4.80    3.40
  -1   0  12    0.80    3.30
   0   0 -12 1993.20  116.59
   0   0  12 1862.91  116.59
   0   0 -12 1885.91  116.79
   0   0  12 1940.61  116.39
   0   0 -12 1958.50  116.09
   0   0  12 2099.09  116.39
   1   0  12    1.60    3.70
   1   0  12   -3.20    4.70
  -1   0 -12    6.00    5.10
  -1   0 -12   -7.40    5.80
  -1   0 -12   -3.00    4.10
   1   0  12   -0.10    4.20
   2   0  12  479.75   30.30
  -2   0 -12  491.05   30.40
   2   0  12  474.95   31.20
  -2   0 -12  520.65   31.00
  -2   0 -12  455.45   32.60
   2   0  12  405.86   29.80
   2   0  12  517.25   30.30
  -3   0 -12    0.80    5.80
   3   0  12    4.30    4.30
   3   0  12   -1.10    4.70
  -3   0 -12   -2.30    7.60
  -3   0 -12   -5.30    4.90
   4   0  12  248.78   20.30
  -4   0 -12  223.48   17.90
   4   0  12  212.18   16.80
  -4   0 -12  243.98   18.80
   5   0  12    0.50    7.90
  -5   0 -12   -5.30    6.70
  -5   0 -12   10.00    8.00
  -6   0 -12  334.67   27.40
  -6   0 -12  385.36   28.30
   6   0  12  421.36   30.50
  -7   0 -12    2.80   10.20
   7   0  12    3.70   12.00
  -7   0 -12   -1.20    8.60
   8   0  12   23.50   14.10
  -8   0 -12   11.10   12.00
  -8   0 -12   10.50   10.50
  -9   0 -12   -4.60   13.10
  -9   0 -12  -13.40   11.50
   9   0  12    3.80   14.80
 -15   1  12    5.00    8.30
 -14  -1  12   26.40    8.20
  14  -1 -12   27.00    7.90
 -14  -1  12   18.40    8.40
 -14   1  12   13.40    7.80
 -14   1  12   17.90    8.80
 -13  -1  12   96.49   13.50
  13  -1 -12  114.39   12.90
 -13  -1  12   90.19   14.60
 -13   1  12  110.29   13.70
 -13   1  12   87.69   14.30
 -12  -1  12  113.09   13.60
 -12  -1  12  106.99   13.80
  12  -1 -12  119.39   12.90
 -12   1  12  103.29   12.80
 -12   1  12  124.29   14.20
 -11  -1  12   76.79   11.30
  11  -1 -12   99.99   11.70
 -11  -1  12   71.19   11.10
 -11   1  12   74.89   12.30
 -11   1  12   68.19   10.10
  11   1 -12   87.39    8.90
 -10  -1  12    3.80    8.70
 -10  -1  12    9.90    5.10
 -10  -1  12    4.10    5.60
  10  -1 -12    7.20    5.20
 -10   1  12    2.90    5.70
  10   1 -12    7.90    4.30
 -10   1  12    7.30    5.30
   9  -1 -12  157.68   13.10
  -9  -1  12  153.68   16.50
  -9  -1  12  157.78   12.70
  -9  -1  12  155.28   13.60
  -9   1  12  153.48   13.70
   9   1 -12  131.69   12.10
   9   1 -12  148.49   10.80
  -9   1  12  148.19   14.60
   8  -1 -12    0.20    4.70
  -8  -1  12    8.30    4.20
   8  -1 -12   -1.30    4.60
  -8  -1  12    0.90    6.00
  -8  -1  12   -0.30    4.70
  -8   1  12    3.60    5.00
  -8   1  12   -3.00    4.20
   8   1 -12    0.50    2.40
   7  -1 -12  184.88   15.20
  -7  -1  12  189.78   15.00
  -7  -1  12  205.18   14.50
  -7  -1  12  223.38   16.20
   7  -1 -12  210.48   15.10
  -7   1  12  211.98   14.80
  -7   1  12  190.38   16.30
  -7   1  12  191.58   15.20
  -6  -1  12   91.69    9.40
  -6  -1  12   86.29    8.00
  -6  -1  12   78.99   12.90
   6  -1 -12   77.09    8.70
   6  -1 -12   72.09    9.30
  -6  -1  12   61.59   10.40
  -6   1  12   83.39    8.80
  -6   1  12   90.29   10.10
  -6   1  12   63.69   10.00
  -5  -1  12   34.00    6.70
   5  -1 -12   33.70    5.40
  -5  -1  12   27.20    5.30
   5  -1 -12   37.10    6.60
  -5  -1  12   34.50    6.00
  -5  -1  12   30.70    4.80
  -5   1  12   27.30    6.00
  -5   1  12   28.30    5.30
  -5   1  12   31.00    5.50
  -5   1  12   32.90    5.10
  -4  -1  12  571.84   36.00
   4  -1 -12  530.05   35.00
  -4  -1  12  569.64   34.70
   4  -1 -12  565.54   35.10
  -4  -1  12  586.84   35.40
  -4  -1  12  567.54   34.60
  -4   1  12  592.54   35.10
  -4   1  12  536.05   35.30
  -4   1  12  541.35   35.30
  -4   1  12  591.24   35.30
   3  -1 -12  499.25   31.90
  -3  -1  12  528.05   32.20
  -3  -1  12  525.55   31.50
  -3  -1  12  485.15   32.60
  -3  -1  12  541.25   31.50
   3  -1 -12  492.85   31.90
  -3   1  12  496.25   31.70
  -3   1  12  551.04   32.00
  -3   1  12  492.15   32.20
  -3   1  12  493.15   32.10
   2  -1 -12    2.10    3.40
  -2  -1  12    2.00    3.40
  -2  -1  12    1.80    3.10
   2  -1 -12    3.30    4.30
  -2  -1  12   -1.90    4.00
  -2  -1  12   -3.10    4.20
  -2   1  12    1.00    4.60
  -2   1  12    4.60    3.90
  -2   1  12   -1.30    3.60
   1  -1 -12   26.40    4.60
  -1  -1  12   18.70    3.70
  -1  -1  12   23.80    5.60
   1  -1 -12   12.00    4.80
  -1  -1  12   21.50    4.10
  -1   1  12   14.10    4.20
  -1   1  12   18.30    4.20
  -1   1  12   17.20    5.50
   1   1 -12   20.10    5.80
   0  -1  12  946.01   52.69
   0  -1 -12  861.11   53.19
   0  -1 -12  873.61   53.39
   0  -1  12  805.22   53.29
   0  -1  12  796.12   52.69
   0   1 -12  920.21   53.79
   0   1  12  839.72   52.59
   0   1  12  910.11   53.19
   0   1  12  908.21   53.79
  -1  -1 -12  321.27   22.60
   1  -1  12  328.87   21.80
   1  -1  12  317.37   22.60
  -1  -1 -12  317.37   22.70
   1  -1  12  370.36   21.60
   1   1  12  325.87   21.60
   1   1  12  346.87   22.20
  -2  -1 -12    6.40    4.90
   2  -1  12    4.00    5.80
  -2  -1 -12    2.70    5.30
   2  -1  12   10.60    5.20
  -2  -1 -12    2.60    5.60
   2  -1  12    9.20    3.90
  -2   1 -12   -1.20    2.70
   2   1  12    4.00    4.10
   2   1  12    3.70    4.10
   2   1  12    6.60    6.70
  -2   1 -12    6.00    6.40
   3  -1  12   -4.80    5.90
   3  -1  12    4.30    4.10
  -3  -1 -12    4.10    9.90
  -3  -1 -12    2.80    5.20
   3   1  12    1.30    7.40
   3   1  12   -0.90    4.10
  -3   1 -12   -1.40    3.60
  -3   1 -12   -0.20    3.40
  -3   1 -12    0.50    7.30
  -4  -1 -12  888.41   53.99
  -4  -1 -12  840.22   54.99
   4  -1  12  917.31   53.69
  -4   1 -12  818.42   52.99
   4   1  12  877.61   56.19
  -4   1 -12  927.61   55.69
   5  -1  12  147.79   13.30
  -5  -1 -12  108.79   16.90
  -5  -1 -12  134.89   13.90
  -5   1 -12  116.09   12.30
  -5   1 -12  119.59   12.20
  -5   1 -12  148.69   17.10
   5   1  12  112.29   18.30
   6  -1  12   45.50   10.90
  -6  -1 -12   24.70    9.90
  -6  -1 -12   25.10    8.80
  -6   1 -12   31.30   10.80
   6   1  12   15.70   11.80
  -6   1 -12   27.40    6.80
  -6   1 -12   31.00    7.00
  -7  -1 -12   36.10   12.50
   7  -1  12   60.79   13.00
  -7  -1 -12   28.50   11.40
  -7   1 -12   37.50    8.60
  -7   1 -12   43.80   12.40
   7   1  12   27.70   12.90
  -8  -1 -12  489.15   39.50
  -8  -1 -12  554.14   38.30
  -8   1 -12  576.94   40.70
  -8   1 -12  494.85   36.70
   8   1  12  540.75   43.40
  -9  -1 -12  113.49   16.80
  -9  -1 -12   93.39   16.90
   9   1  12   88.89   18.60
  -9   1 -12  128.59   19.10
 -13  -2  12   88.39   16.70
  13  -2 -12  126.09   14.10
 -13  -2  12  107.79   16.30
 -13   2  12  102.59   16.30
 -13   2  12  124.59   15.00
 -12  -2  12   47.40    8.80
  12  -2 -12   53.19    8.10
 -12  -2  12   43.00    8.40
 -12   2  12   55.09    8.40
 -12   2  12   42.40    9.30
 -11  -2  12  106.89   13.10
 -11  -2  12  100.69   13.60
  11  -2 -12  122.79   12.80
 -11   2  12   90.29   14.50
 -11   2  12  100.39   12.40
 -10  -2  12    1.60    8.30
  10  -2 -12    9.50    6.00
 -10  -2  12    9.40    7.80
 -10  -2  12    9.50    6.50
 -10   2  12    8.30    5.80
 -10   2  12    7.90    6.90
  -9  -2  12  324.47   28.30
  -9  -2  12  388.66   25.90
   9  -2 -12  414.36   27.00
  -9  -2  12  417.56   27.40
  -9   2  12  419.86   27.50
  -9   2  12  421.06   26.20
  -8  -2  12  101.79   11.60
  -8  -2  12   72.69    8.50
   8  -2 -12   65.49   11.20
  -8  -2  12   64.59    9.30
  -8   2  12   82.39    9.60
  -8   2  12   83.49   11.80
  -7  -2  12  243.28   18.00
  -7  -2  12  229.28   16.40
  -7  -2  12  247.48   18.60
   7  -2 -12  257.87   18.60
  -7   2  12  253.67   17.20
  -7   2  12  250.67   18.70
  -6  -2  12  112.79   13.70
  -6  -2  12  122.69    9.50
   6  -2 -12  117.69   12.10
  -6  -2  12  127.59   12.00
  -6   2  12  122.49   10.50
  -6   2  12  113.89   12.30
  -5  -2  12  611.24   37.70
  -5  -2  12  629.44   36.30
   5  -2 -12  582.64   37.80
  -5  -2  12  638.64   36.80
  -5   2  12  578.74   36.80
  -5   2  12  596.34   37.30
  -5   2  12  550.84   37.80
   4  -2 -12   44.60    7.10
  -4  -2  12   48.50    6.10
  -4  -2  12   52.19    6.50
  -4  -2  12   46.70    6.70
  -4   2  12   40.80    5.80
  -4   2  12   57.89    9.50
  -4   2  12   56.29    7.80
  -3  -2  12  242.88   16.00
  -3  -2  12  275.87   16.20
   3  -2 -12  250.97   18.30
  -3   2  12  231.48   16.60
  -3   2  12  227.68   18.40
  -3   2  12  256.57   17.20
  -2  -2  12  231.88   14.10
  -2  -2  12  214.28   20.00
  -2  -2  12  210.88   14.00
   2  -2 -12  201.38   16.60
  -2   2  12  198.08   14.30
  -2   2  12  210.18   16.90
  -1  -2  12  316.27   21.90
   1  -2 -12  354.36   24.30
  -1  -2  12  378.86   22.00
   1   2 -12  341.47   24.20
  -1   2  12  369.56   24.80
   0  -2  12   80.89    8.00
   0  -2 -12   83.19   11.80
   0   2 -12   94.59   12.10
   0   2  12   68.09    8.80
   0   2  12   79.89    9.00
   0   2  12   87.79   12.70
   1  -2  12  110.29    8.90
   1  -2  12  100.49    9.70
  -1  -2 -12   90.19   13.00
   1   2  12   76.49    9.90
  -1   2 -12  114.29   13.20
   1   2  12  102.99   14.40
   1   2  12   88.79    8.90
   2  -2  12  610.04   35.00
  -2  -2 -12  528.25   36.20
   2  -2  12  519.55   34.00
   2   2  12  546.45   37.40
  -2   2 -12  548.75   36.60
   3  -2  12  161.28   14.00
  -3  -2 -12  114.69   15.70
   3  -2  12  136.99   11.80
   3   2  12   89.19   17.60
  -3   2 -12  136.29   16.90
   4  -2  12    6.90    4.90
   4  -2  12    6.60    7.50
  -4  -2 -12   -8.90    8.30
  -4   2 -12    7.70    9.50
   4   2  12   10.90    9.70
   5  -2  12   23.30    6.10
  -5  -2 -12   12.30    9.70
  -5  -2 -12   23.50    6.40
   5  -2  12   36.80    9.50
   5   2  12    8.50   10.80
  -5   2 -12   27.70   10.90
  -6  -2 -12  273.17   27.00
  -6  -2 -12  287.47   21.30
   6   2  12  270.07   29.20
  -6   2 -12  291.97   27.30
  -7  -2 -12    1.30   12.00
   7  -2  12   17.50   11.10
   7   2  12   -9.40   14.90
  -7   2 -12    6.00   12.60
   8  -2  12   60.79   13.70
  -8  -2 -12    9.10   13.90
   8   2  12   24.30   17.80
  -8   2 -12   26.50   16.80
 -11  -3  12   30.00    9.20
 -11  -3  12   39.80    9.90
 -11   3  12   29.00    9.70
 -10  -3  12  397.06   28.40
  10  -3 -12  391.96   27.90
 -10   3  12  374.16   28.60
  -9  -3  12   15.20    6.20
   9  -3 -12    6.30    7.60
  -9  -3  12    6.60    7.30
  -9   3  12   -1.00    8.00
  -9   3  12   10.30    6.10
   8  -3 -12   13.20    7.70
  -8  -3  12   28.90    7.40
  -8  -3  12   28.80    5.90
  -8   3  12   22.30    5.90
  -8   3  12   26.10    8.20
   7  -3 -12   26.30    7.80
  -7  -3  12   28.60    4.90
  -7  -3  12   20.20    7.10
  -7   3  12   14.00    8.10
  -7   3  12   28.10    5.70
  -6  -3  12  603.74   40.10
   6  -3 -12  698.43   42.70
  -6  -3  12  677.23   41.80
  -6   3  12  653.63   42.70
  -6   3  12  693.43   40.80
  -5  -3  12    5.20    2.90
  -5  -3  12    7.60    5.80
   5  -3 -12   -2.00    6.40
  -5   3  12    1.60    4.10
  -5   3  12    0.00    7.00
   4  -3 -12    0.00    6.60
  -4  -3  12   -0.20    5.30
  -4  -3  12    3.80    2.50
  -4   3  12   -0.50    6.70
  -4   3  12    5.90    4.20
  -3  -3  12   14.10    5.70
   3  -3 -12    1.30    6.60
  -3   3  12    7.20    4.40
  -3   3  12    6.90    4.90
  -3   3  12    7.00    7.20
  -2  -3  12  368.36   24.00
   2  -3 -12  413.46   28.00
  -2  -3  12  386.46   26.40
  -2   3  12  369.46   25.90
  -2   3  12  434.66   28.30
  -2   3  12  405.06   25.40
  -1  -3  12   76.99    7.20
   1  -3 -12   75.99   10.20
  -1  -3  12   88.39   10.80
  -1   3  12   83.99   10.60
  -1   3  12   95.19   14.80
   1   3 -12  105.39   13.10
   0  -3 -12   -4.60    7.60
   0  -3  12    8.80    3.90
   0  -3  12    5.40    5.30
   0   3  12    1.80    5.50
   0   3  12   -1.80    8.60
   0   3 -12   11.80    7.80
   1  -3  12   21.30    6.00
  -1  -3 -12   11.00    8.00
   1  -3  12   32.30    5.50
   1   3  12   21.30   10.00
  -1   3 -12   32.40    9.10
   1   3  12   17.40    6.20
  -2  -3 -12  156.88   19.10
   2  -3  12  201.48   15.30
   2   3  12  166.08   21.00
  -2   3 -12  173.48   19.50
   3  -3  12  117.79   14.00
  -3  -3 -12   64.69   11.60
  -3   3 -12   93.39   13.40
   3   3  12   85.09   14.30
  -4  -3 -12   18.80   10.30
  -4   3 -12   23.90   11.50
   4   3  12   21.90   13.00
  -5  -3 -12   70.89   14.00
   5   3  12   75.49   16.80
  -5   3 -12  111.39   16.40
  -4  -4  12    1.60    7.10
  -3  -4  12   35.40    7.90
  -3   4  12   40.90   10.40
  -2  -4  12   22.90    7.20
  -2   4  12   22.20   10.20
  -1  -4  12    6.80    6.30
 -14   0  13   -6.10    8.00
  14   0 -13   -9.10   11.20
 -14   0  13    6.80    7.60
 -13   0  13   16.20    7.70
 -13   0  13   21.10    7.60
 -12   0  13   -2.60    5.90
  12   0 -13    4.50    9.00
 -12   0  13   -0.40    6.40
 -11   0  13   25.70    6.80
  11   0 -13   19.50    6.10
 -11   0  13   21.20    6.40
  10   0 -13    6.90    5.60
  10   0 -13   -2.90    4.50
 -10   0  13    1.90    5.50
 -10   0  13    2.40    5.90
   9   0 -13   17.60    4.70
  -9   0  13   11.80    5.60
   9   0 -13   17.50    5.70
  -9   0  13   12.90    5.60
   8   0 -13    0.00    4.50
   8   0 -13    3.20    4.10
  -8   0  13   -3.50    5.30
  -8   0  13   -0.50    4.50
  -8   0  13   -6.10    6.20
  -7   0  13  785.72   47.80
  -7   0  13  775.92   49.20
  -7   0  13  773.72   48.40
   7   0 -13  746.03   47.40
   7   0 -13  845.22   47.70
  -7   0  13  742.33   47.60
  -6   0  13    0.40    4.60
   6   0 -13   -1.70    4.10
   6   0 -13   -0.70    3.70
  -6   0  13   -3.20    4.10
   5   0 -13  224.68   15.70
  -5   0  13  225.48   16.10
  -5   0  13  225.08   16.60
  -5   0  13  238.88   16.70
  -5   0  13  224.48   17.50
   5   0 -13  234.38   16.10
  -4   0  13   -1.80    4.10
   4   0 -13   -1.70    4.00
   4   0 -13    3.40    3.70
  -4   0  13   -0.80    4.40
  -4   0  13    2.40    3.90
  -4   0  13   -4.80    5.00
   3   0 -13 2117.89  128.19
  -3   0  13 2107.79  128.29
  -3   0  13 2231.58  128.59
  -3   0  13 2154.58  128.69
  -3   0  13 2131.39  128.29
   3   0 -13 2211.58  127.99
  -2   0  13    2.20    3.80
   2   0 -13   -4.70    3.70
  -2   0  13   -5.50    4.30
   2   0 -13   -4.00    4.30
  -2   0  13   -3.00    4.50
  -1   0  13 1361.46   79.19
  -1   0  13 1303.97   79.39
   1   0 -13 1375.86   78.99
  -1   0  13 1273.07   79.29
   1   0 -13 1289.97   79.49
   0   0 -13    1.50    4.20
   0   0  13   -1.10    3.90
   0   0 -13   -3.20    4.80
   0   0 -13   -4.60    5.40
   0   0  13   -0.60    4.40
   0   0  13    0.10    4.80
  -1   0 -13 1261.07   74.69
  -1   0 -13 1296.37   75.39
   1   0  13 1326.17   74.89
  -1   0 -13 1139.09   75.99
   1   0  13 1212.28   75.29
   1   0  13 1220.88   74.89
  -2   0 -13    0.10    5.80
   2   0  13    9.10    4.80
  -2   0 -13   -3.10    5.00
   2   0  13   -6.00    6.00
   2   0  13   -2.70    5.30
   3   0  13 1266.07   76.89
  -3   0 -13 1316.57   75.99
   3   0  13 1277.07   75.79
  -3   0 -13 1157.08   77.79
  -4   0 -13    8.00    7.50
   4   0  13    6.80    7.70
  -5   0 -13  278.17   30.00
  -5   0 -13  322.97   25.00
   5   0  13  362.16   27.10
  -5   0 -13  371.66   26.00
   6   0  13    9.20   10.40
  -6   0 -13    6.70    9.40
  -6   0 -13   -2.10    8.10
  -7   0 -13  762.12   55.79
  -7   0 -13  913.01   57.39
   7   0  13  924.91   58.19
   8   0  13   13.00   14.10
  -8   0 -13    4.30   11.00
  -8   0 -13    3.90   12.20
  -9   0 -13  -21.60   14.40
 -14  -1  13   39.70    9.00
  14  -1 -13   53.49    8.80
 -14  -1  13   35.90    9.40
 -14   1  13   38.20    9.50
 -14   1  13   45.70    8.70
 -13  -1  13    7.50    6.90
  13  -1 -13   21.20    7.30
 -13  -1  13   18.10    7.80
 -13   1  13   12.70    8.20
 -13   1  13   18.00    7.40
 -12  -1  13  112.09   12.90
 -12  -1  13   90.39   13.80
  12  -1 -13  125.59   13.70
 -12   1  13  111.69   14.60
 -12   1  13  115.19   13.00
 -11  -1  13  554.34   37.60
 -11  -1  13  573.54   37.80
  11  -1 -13  637.94   37.50
 -11   1  13  559.14   37.20
 -11   1  13  597.84   38.40
  11   1 -13  602.94   36.80
  10  -1 -13  287.77   19.70
 -10  -1  13  280.57   23.70
 -10  -1  13  267.27   19.20
 -10  -1  13  261.47   20.00
 -10   1  13  271.57   20.20
 -10   1  13  282.07   19.20
  10   1 -13  234.58   18.20
  10   1 -13  253.37   18.30
   9  -1 -13  265.57   17.20
  -9  -1  13  223.78   17.80
  -9  -1  13  244.08   17.50
  -9  -1  13  202.38   19.70
   9   1 -13  186.28   14.40
  -9   1  13  231.38   17.60
  -9   1  13  229.78   16.90
  -8  -1  13  110.89   11.00
  -8  -1  13  130.69   14.00
  -8  -1  13  122.99   11.80
  -8   1  13  108.49   10.80
  -8   1  13  110.79   12.60
   7  -1 -13  735.53   44.60
  -7  -1  13  734.93   44.90
  -7  -1  13  750.62   45.10
  -7  -1  13  739.93   44.20
   7  -1 -13  671.83   44.60
  -7   1  13  716.43   44.70
  -7   1  13  703.03   45.20
   6  -1 -13  397.16   27.50
  -6  -1  13  427.56   27.80
  -6  -1  13  449.36   26.90
   6  -1 -13  428.26   27.50
  -6  -1  13  425.76   27.50
  -6   1  13  426.06   28.30
  -6   1  13  405.16   27.60
  -6   1  13  438.56   27.40
   5  -1 -13  668.33   41.40
   5  -1 -13  677.93   41.40
  -5  -1  13  725.03   41.20
  -5  -1  13  686.93   41.00
  -5  -1  13  670.63   41.60
  -5   1  13  629.54   41.70
  -5   1  13  681.03   41.40
  -5   1  13  634.14   41.80
  -5   1  13  649.64   41.60
  -4  -1  13   10.60    3.90
   4  -1 -13   12.70    4.60
  -4  -1  13    8.10    4.00
   4  -1 -13    2.90    4.70
  -4  -1  13    1.70    6.50
  -4  -1  13    4.70    4.80
  -4   1  13    7.10    4.60
  -4   1  13    5.00    4.70
  -4   1  13    6.70    4.50
  -4   1  13    9.30    5.80
  -3  -1  13  268.97   19.20
  -3  -1  13  288.57   18.10
  -3  -1  13  286.47   18.30
   3  -1 -13  274.27   18.80
   3  -1 -13  269.47   18.70
  -3  -1  13  269.47   19.80
  -3   1  13  272.07   18.70
  -3   1  13  238.78   20.30
  -3   1  13  252.17   18.90
  -3   1  13  297.97   19.00
   2  -1 -13   51.39    8.80
  -2  -1  13   60.79    7.30
  -2  -1  13   42.30    7.20
  -2  -1  13   65.49    7.50
  -2  -1  13   64.29    8.90
   2  -1 -13   61.19    7.90
  -2   1  13   68.69    8.40
  -2   1  13   60.59    8.00
  -2   1  13   59.19   10.50
   1  -1 -13  697.23   41.80
  -1  -1  13  710.03   41.10
  -1  -1  13  652.23   42.70
  -1  -1  13  645.74   41.10
   1  -1 -13  683.33   41.60
  -1   1  13  636.24   41.10
   1   1 -13  665.33   42.10
  -1   1  13  675.43   41.70
  -1   1  13  687.73   42.20
   0  -1  13   33.20    4.70
   0  -1 -13   26.90    5.90
   0  -1  13   24.30    5.20
   0  -1 -13   33.00    6.40
   0   1  13   28.10    6.70
   0   1 -13   35.70    6.50
   0   1  13   25.60    5.10
   1  -1  13    2.90    4.50
  -1  -1 -13   -1.90    5.80
   1  -1  13    2.50    4.00
  -1  -1 -13   -0.40    5.10
  -1   1 -13    5.40    6.30
   1   1  13   -1.60    6.10
   1   1  13    2.50    4.30
   2  -1  13    9.10    5.30
  -2  -1 -13   13.40    5.60
   2  -1  13   12.70    4.60
   2   1  13    6.70    7.10
  -2   1 -13   13.10    7.10
   2   1  13   11.40    4.80
  -3  -1 -13  236.68   19.10
  -3  -1 -13  258.87   18.10
   3  -1  13  257.97   17.10
   3   1  13  213.48   20.50
  -3   1 -13  235.88   16.00
  -3   1 -13  252.77   20.40
   3   1  13  202.38   16.90
   4  -1  13   15.10    5.20
   4  -1  13    8.80    7.50
  -4  -1 -13    5.40    7.60
  -4  -1 -13   14.30    6.70
  -4   1 -13    5.70    4.70
   4   1  13    2.60    9.30
  -4   1 -13    4.90    9.10
  -4   1 -13    6.10    4.70
   5  -1  13  196.08   18.70
  -5  -1 -13  174.18   16.10
  -5  -1 -13  143.89   19.00
  -5   1 -13  172.48   19.90
  -5   1 -13  139.09   14.30
   5   1  13  171.08   20.90
  -6  -1 -13   -6.80    9.70
  -6  -1 -13    5.30   10.00
   6  -1  13    1.70    9.60
  -6   1 -13   -7.60    6.50
  -6   1 -13    8.60   11.10
   6   1  13   -2.10   11.90
  -7  -1 -13   -0.10   10.90
   7  -1  13    6.90   11.00
  -7  -1 -13   -6.70    9.80
   7   1  13  -15.30   14.30
  -7   1 -13    3.40   12.20
  -8  -1 -13   -3.70   12.00
   8  -1  13   -8.30   12.40
  -8  -1 -13   -9.20   11.90
   8   1  13    1.10   14.60
 -13  -2  13   84.99   15.00
 -13  -2  13   88.19   14.40
  13  -2 -13   83.79   13.80
 -13   2  13  111.99   15.10
 -13   2  13   55.39   12.90
 -12  -2  13   39.50    9.10
  12  -2 -13   35.60    7.90
 -12  -2  13   53.39    8.70
 -12   2  13   37.30    9.40
 -12   2  13   50.89    8.30
 -11  -2  13    2.80    6.30
 -11  -2  13   -5.30    6.90
  11  -2 -13   12.70    6.50
 -11   2  13    4.40    7.60
 -11   2  13    9.60    6.20
 -10  -2  13   84.49   10.90
  10  -2 -13   92.99   12.80
 -10  -2  13   72.89   12.10
 -10  -2  13   51.09   11.10
 -10   2  13   68.19   13.20
 -10   2  13   78.09   10.50
  -9  -2  13  205.88   19.00
  -9  -2  13  206.18   17.50
   9  -2 -13  205.88   16.70
  -9  -2  13  180.78   15.20
  -9   2  13  196.68   15.50
  -9   2  13  203.08   18.20
   8  -2 -13   22.70    7.10
  -8  -2  13   33.30    6.80
  -8  -2  13   35.10    7.60
  -8  -2  13   35.20    5.20
  -8   2  13   30.70    7.60
  -8   2  13   31.00    5.60
  -7  -2  13   62.69    8.00
   7  -2 -13   58.09    8.20
  -7  -2  13   64.39   10.80
  -7  -2  13   67.09   10.80
  -7   2  13   72.59    8.60
  -7   2  13   55.69    8.20
   6  -2 -13  316.77   22.60
  -6  -2  13  324.87   20.50
  -6  -2  13  339.97   21.60
  -6  -2  13  323.37   22.00
  -6   2  13  306.87   22.10
  -6   2  13  309.57   22.80
  -6   2  13  300.17   21.10
  -5  -2  13  163.88   11.50
  -5  -2  13  160.88   12.40
  -5  -2  13  149.39   13.60
   5  -2 -13  150.18   14.50
  -5   2  13  157.58   14.20
  -5   2  13  156.88   12.50
  -5   2  13  136.19   13.10
  -4  -2  13   31.30    4.60
  -4  -2  13   19.40    5.90
  -4  -2  13   27.00    4.10
   4  -2 -13   13.50    6.00
  -4   2  13   21.80    5.10
  -4   2  13   23.00    5.10
  -4   2  13   21.80    6.50
  -3  -2  13  409.76   25.10
  -3  -2  13  388.26   26.40
  -3  -2  13  466.95   25.20
   3  -2 -13  382.46   27.00
  -3   2  13  408.56   26.00
  -3   2  13  364.96   25.50
  -3   2  13  383.56   27.50
  -2  -2  13  534.95   33.40
   2  -2 -13  531.85   34.00
  -2  -2  13  522.45   31.90
  -2   2  13  489.85   32.00
  -2   2  13  524.65   34.20
  -1  -2  13   34.00    4.60
  -1  -2  13   30.30    6.20
   1  -2 -13   33.90    7.10
  -1   2  13   37.70    5.00
  -1   2  13   30.10    7.90
  -1   2  13   26.30    5.50
   1   2 -13   39.60    7.70
   0  -2  13   10.00    4.00
   0  -2 -13   10.10    7.00
   0  -2  13   21.80    4.20
   0   2  13   15.10    7.40
   0   2 -13   24.00    7.40
   0   2  13   21.50    4.50
   0   2  13   14.50    4.90
  -1  -2 -13  106.69   14.80
   1  -2  13  154.08   11.10
   1  -2  13  122.49   11.50
   1   2  13  141.59   16.70
   1   2  13  131.09   10.70
  -1   2 -13  140.29   15.60
  -2  -2 -13  469.95   32.80
   2  -2  13  457.45   30.90
   2  -2  13  490.85   30.50
  -2   2 -13  505.95   33.50
   2   2  13  492.55   34.50
   3  -2  13  226.08   17.10
   3  -2  13  197.98   15.50
  -3  -2 -13  179.78   19.80
  -3   2 -13  207.88   20.50
   3   2  13  191.58   21.80
   4  -2  13   19.40    7.90
  -4  -2 -13    8.70    8.80
   4  -2  13   12.00    5.60
   4   2  13    1.60   10.30
  -4   2 -13   22.00   10.80
   5  -2  13   15.10    8.70
  -5  -2 -13    1.30    6.40
  -5  -2 -13   -0.60    9.60
   5   2  13   -0.20   12.30
  -5   2 -13   -0.40   10.90
  -6  -2 -13  200.08   26.10
   6   2  13  236.18   28.60
  -6   2 -13  278.77   26.70
  -7  -2 -13   14.30   13.20
   7   2  13   22.80   16.20
  -7   2 -13   27.30   15.20
  10  -3 -13   68.59   11.20
 -10  -3  13   63.89    9.70
 -10  -3  13   93.09   13.70
 -10   3  13   63.39   11.20
  -9  -3  13   56.89    9.40
   9  -3 -13   42.90    9.40
  -9  -3  13   62.99   11.10
  -9   3  13   47.30   10.30
  -8  -3  13   -1.20    5.20
  -8  -3  13   -1.50    6.70
   8  -3 -13  -11.00    7.70
  -8   3  13    4.80    8.30
  -8   3  13    5.70    5.70
   7  -3 -13   59.59    9.60
  -7  -3  13   55.39    8.30
  -7  -3  13   74.19   12.60
  -7   3  13   62.69   10.00
  -7   3  13   60.49    9.70
  -6  -3  13  125.59   13.90
   6  -3 -13  130.19   14.80
  -6  -3  13  108.59    9.90
  -6   3  13  133.39   11.40
  -6   3  13  114.89   15.70
  -5  -3  13  124.09    9.70
  -5  -3  13  138.89   13.80
   5  -3 -13  116.09   14.70
  -5   3  13  146.19   11.70
  -5   3  13  121.39   15.20
  -4  -3  13    3.40    5.60
   4  -3 -13   -6.20    7.00
  -4  -3  13    3.50    3.00
  -4   3  13    6.60    4.70
  -4   3  13   -5.10    7.40
   3  -3 -13  117.49   14.80
  -3  -3  13  132.09    9.40
  -3  -3  13  121.49   13.40
  -3   3  13  123.29   11.60
  -3   3  13  131.39   15.40
  -2  -3  13  134.59   10.00
   2  -3 -13  135.19   15.80
  -2  -3  13  128.79   13.70
  -2   3  13  143.79   12.50
  -2   3  13  134.79   16.50
  -1  -3  13  168.58   15.40
   1  -3 -13  195.88   17.80
  -1  -3  13  172.98   12.30
  -1   3  13  174.48   19.90
   1   3 -13  220.58   17.50
  -1   3  13  137.69   15.60
   0  -3  13   71.99   11.00
   0  -3 -13   66.09   10.90
   0  -3  13   65.09    7.80
   0   3 -13   80.79   14.20
   0   3  13   53.59    8.60
   0   3  13   76.49   12.00
  -1  -3 -13  262.77   23.30
   1  -3  13  270.87   18.70
  -1   3 -13  289.57   23.40
   1   3  13  255.27   25.90
  -2  -3 -13    3.10    9.10
   2  -3  13    9.10    5.90
   2   3  13   -2.20   11.10
  -2   3 -13    7.90   10.00
  -3  -3 -13   39.70   11.20
   3   3  13   45.40   13.60
  -4  -3 -13   51.99   13.30
  -4   3 -13   66.69   14.10
   4   3  13   65.09   15.30
 -14   0  14  266.37   23.60
 -14   0  14  281.67   22.00
 -13   0  14    2.20    7.40
  13   0 -14    0.80    9.10
 -13   0  14    0.30    7.10
  12   0 -14  125.19   19.30
 -12   0  14  129.89   13.70
 -12   0  14  118.19   15.30
  11   0 -14   -9.60    5.30
 -11   0  14    3.90    6.10
 -11   0  14    0.90    6.30
  11   0 -14   -1.10    6.70
  10   0 -14  308.77   22.20
 -10   0  14  322.47   23.10
 -10   0  14  342.87   23.00
   9   0 -14    1.00    4.70
  -9   0  14    4.80    5.40
  -9   0  14    1.10    5.10
   9   0 -14   -5.50    5.30
   8   0 -14  103.59   10.80
  -8   0  14  110.69   11.40
   8   0 -14  121.59   11.70
  -8   0  14  105.39   11.50
  -7   0  14   -2.90    5.20
  -7   0  14   -3.30    4.80
  -7   0  14   -0.10    4.60
   7   0 -14   -1.50    4.70
   7   0 -14    6.30    4.10
   6   0 -14   48.30    6.40
   6   0 -14   52.69    7.70
  -6   0  14   63.39    9.10
  -6   0  14   67.09    9.80
  -5   0  14    0.60    5.00
  -5   0  14   -0.90    5.90
   5   0 -14   -0.90    4.40
   5   0 -14    2.60    3.80
  -5   0  14   -4.20    4.50
  -5   0  14    3.00    4.30
  -4   0  14   96.39    9.30
  -4   0  14   86.69   10.70
   4   0 -14   79.59    9.00
  -4   0  14   75.09    9.90
  -4   0  14   81.89   10.00
   4   0 -14   76.29    9.30
  -3   0  14   -1.10    5.20
   3   0 -14    0.40    4.50
  -3   0  14    0.70    4.10
  -3   0  14   -2.40    4.80
   3   0 -14    0.80    4.20
  -3   0  14   -3.70    4.40
   2   0 -14   42.20    6.40
   2   0 -14   38.00    5.50
  -2   0  14   35.10    6.00
  -2   0  14   39.10    6.40
  -2   0  14   49.50    8.00
   1   0 -14   -0.60    5.30
  -1   0  14   -0.20    5.00
  -1   0  14    6.00    4.30
   1   0 -14   -1.90    4.20
  -1   0  14    0.80    5.10
   0   0  14  141.79   14.20
   0   0  14  131.79   12.50
   0   0 -14  114.39   13.70
   0   0 -14  147.19   12.00
  -1   0 -14    3.30    7.10
   1   0  14   -1.10    4.70
   1   0  14   -0.40    5.40
   1   0  14    1.70    5.70
  -1   0 -14   -1.50    4.80
  -2   0 -14   10.60    8.20
   2   0  14   16.10    6.90
  -2   0 -14   16.30    7.20
  -2   0 -14   16.50    5.80
   3   0  14   -0.70    7.30
  -3   0 -14    4.50    6.60
  -3   0 -14   -4.70    6.00
  -3   0 -14   10.30    9.10
   4   0  14  293.17   23.50
  -4   0 -14  286.57   22.20
  -4   0 -14  222.08   27.00
  -4   0 -14  338.67   23.40
  -5   0 -14    3.90    8.80
  -5   0 -14   -5.50    7.80
   5   0  14    5.70    9.10
  -6   0 -14   57.49   10.70
  -6   0 -14   55.69   12.20
   6   0  14   79.39   13.10
  -7   0 -14    2.40   11.50
   7   0  14   -6.10   12.60
  -7   0 -14    2.10   10.40
  -8   0 -14  579.34   45.60
   8   0  14  654.43   49.90
 -14   1  14   61.29   10.20
  13  -1 -14  109.39   13.90
 -13  -1  14   86.99   14.50
 -13  -1  14   69.79   10.50
 -13   1  14   80.09   14.80
 -13   1  14   81.59   12.40
 -12  -1  14   85.09   13.20
 -12  -1  14   88.29   12.40
  12  -1 -14   93.99   12.90
 -12   1  14   91.59   11.80
 -12   1  14   84.89   14.10
 -11  -1  14   17.30    6.30
 -11  -1  14   13.20    7.00
  11  -1 -14    4.20    6.20
 -11   1  14   12.50    7.30
 -11   1  14   12.40    6.50
 -10  -1  14  135.29   13.40
 -10  -1  14  147.59   14.20
  10  -1 -14  148.49   13.90
 -10   1  14  133.19   13.50
 -10   1  14  134.59   14.60
  -9  -1  14  520.55   37.90
   9  -1 -14  465.95   30.60
  -9  -1  14  438.36   30.60
  -9  -1  14  482.75   30.30
  -9   1  14  447.16   30.90
  -9   1  14  467.45   30.40
  -8  -1  14  374.96   25.00
  -8  -1  14  376.46   25.40
   8  -1 -14  381.86   25.10
  -8   1  14  372.76   24.90
  -8   1  14  365.06   25.50
  -7  -1  14   53.19    8.80
  -7  -1  14   59.09   10.00
  -7  -1  14   67.49   10.00
  -7   1  14   68.09    9.20
  -7   1  14   45.10    9.90
  -7   1  14   56.39   10.00
  -6  -1  14  267.77   17.30
  -6  -1  14  250.67   16.70
  -6  -1  14  248.28   18.00
   6  -1 -14  230.98   17.20
   6  -1 -14  233.48   17.80
  -6   1  14  220.98   17.90
  -6   1  14  200.58   18.20
  -6   1  14  229.28   17.40
   5  -1 -14  724.33   46.10
   5  -1 -14  726.53   45.90
  -5  -1  14  761.22   46.30
  -5  -1  14  770.42   45.60
  -5  -1  14  786.32   45.90
  -5   1  14  730.93   46.30
  -5   1  14  737.43   45.90
  -5   1  14  721.23   46.40
   4  -1 -14  649.04   42.40
   4  -1 -14  680.83   42.70
  -4  -1  14  710.93   42.30
  -4  -1  14  689.43   42.20
  -4  -1  14  714.93   43.00
  -4   1  14  717.63   42.70
  -4   1  14  664.73   42.90
  -4   1  14  671.93   42.70
   3  -1 -14   81.69   10.70
   3  -1 -14   85.69    9.90
  -3  -1  14   96.39    9.60
  -3  -1  14   84.79   10.70
  -3  -1  14   97.59    9.40
  -3   1  14   86.69   10.10
  -3   1  14   80.19   10.00
  -3   1  14   92.79   10.90
  -2  -1  14  207.08   15.80
   2  -1 -14  205.98   16.10
  -2  -1  14  208.88   15.00
   2  -1 -14  205.88   15.40
  -2   1  14  196.88   15.10
  -2   1  14  204.98   16.50
  -1  -1  14  435.26   28.10
   1  -1 -14  436.26   28.60
   1  -1 -14  407.26   28.30
  -1  -1  14  497.85   27.90
  -1   1  14  425.36   29.30
  -1   1  14  408.46   27.90
   1   1 -14  455.45   29.20
   0  -1  14 1118.39   64.49
   0  -1  14 1018.20   64.49
   0  -1 -14 1045.30   65.69
   0   1 -14 1136.39   65.69
   0   1  14 1043.60   64.39
   0   1  14 1044.70   65.59
   1  -1  14   40.10    6.60
  -1  -1 -14   33.90    7.50
   1  -1  14   62.89    8.70
   1   1  14   44.60    8.40
  -1   1 -14   48.70    8.70
   1   1  14   34.60    8.00
   2  -1  14   -0.10    5.70
  -2  -1 -14    1.60    5.50
  -2  -1 -14  -10.10    6.70
   2  -1  14    2.80    4.60
  -2   1 -14   -0.20    7.40
   2   1  14   10.20    5.00
   2   1  14    5.80    7.20
   3  -1  14  176.88   16.30
  -3  -1 -14  213.58   16.40
  -3  -1 -14  183.38   17.70
  -3   1 -14  192.68   18.30
   3   1  14  162.48   14.40
   3   1  14  181.48   19.60
  -3   1 -14  162.88   13.20
  -4  -1 -14  546.65   35.20
  -4  -1 -14  529.65   36.00
   4  -1  14  519.25   35.40
  -4   1 -14  506.35   33.50
   4   1  14  501.95   37.20
  -4   1 -14  554.54   36.90
  -5  -1 -14   39.00   10.30
  -5  -1 -14   42.30    9.50
   5  -1  14   39.10    9.80
  -5   1 -14   46.40   11.60
   5   1  14   30.80   12.00
  -6  -1 -14  152.98   21.20
  -6  -1 -14  159.88   18.60
   6  -1  14  137.49   20.70
   6   1  14  137.59   24.90
  -6   1 -14  157.08   22.40
  -7  -1 -14  -10.60   11.80
  -7  -1 -14   -2.10   10.80
   7  -1  14   -7.40   11.60
   7   1  14   21.00   14.80
  -7   1 -14  -10.70   12.80
  12  -2 -14   79.19   13.30
 -12  -2  14   78.99   14.70
 -12  -2  14  102.09   14.40
 -12   2  14   92.19   15.90
 -12   2  14   89.59   12.70
 -11  -2  14   36.80    8.00
 -11  -2  14   30.10    7.60
  11  -2 -14   35.60    8.10
 -11   2  14   27.50    8.80
 -11   2  14   34.70    7.40
 -10  -2  14   24.30    6.40
  10  -2 -14   32.30    7.60
 -10  -2  14   25.90    7.30
 -10   2  14   24.60    8.40
 -10   2  14   14.80    6.30
  -9  -2  14  164.38   15.70
  -9  -2  14  205.78   18.70
   9  -2 -14  188.68   16.60
  -9  -2  14  187.88   16.90
  -9   2  14  167.78   17.50
  -9   2  14  193.38   15.30
  -8  -2  14  230.88   16.60
  -8  -2  14  220.58   18.70
  -8  -2  14  223.08   18.90
   8  -2 -14  236.68   18.70
  -8   2  14  233.68   18.90
  -8   2  14  225.58   17.10
  -7  -2  14   38.60    7.20
  -7  -2  14   37.80    5.40
   7  -2 -14   26.70    7.30
  -7  -2  14   39.40    6.80
  -7   2  14   32.00    5.80
  -7   2  14   29.10    7.30
  -7   2  14   25.70    7.80
  -6  -2  14  190.98   14.50
   6  -2 -14  173.98   15.80
  -6  -2  14  212.28   15.70
  -6  -2  14  188.48   13.50
  -6   2  14  172.18   16.10
  -6   2  14  162.88   15.40
   5  -2 -14   87.29   12.00
  -5  -2  14   96.29    9.40
  -5  -2  14   96.29   12.00
  -5  -2  14   98.19    9.00
  -5   2  14   69.89   11.50
  -5   2  14   74.09   11.90
  -5   2  14   75.79   10.40
  -4  -2  14  230.88   15.10
  -4  -2  14  203.08   17.20
   4  -2 -14  199.08   17.70
  -4  -2  14  240.28   15.40
  -4   2  14  198.78   15.80
  -4   2  14  209.68   17.60
  -3  -2  14   26.30    6.30
   3  -2 -14   13.20    6.70
  -3  -2  14   27.50    4.80
  -3  -2  14   25.90    4.60
  -3   2  14   18.50    5.10
  -3   2  14   21.80    7.10
  -2  -2  14  476.35   31.00
  -2  -2  14  556.44   31.20
   2  -2 -14  493.35   33.20
  -2  -2  14  491.15   32.50
  -2   2  14  525.15   33.60
  -2   2  14  457.35   31.00
  -1  -2  14   -2.70    3.80
  -1  -2  14   -0.60    4.00
  -1  -2  14   -6.00    5.40
   1  -2 -14   -7.00    6.60
  -1   2  14  -12.00    7.00
  -1   2  14    4.20    4.40
   1   2 -14    4.40    7.00
   0  -2 -14    6.20    7.40
   0  -2  14    7.60    4.20
   0  -2  14   11.60    4.30
   0   2  14    7.50    4.70
   0   2 -14   11.30    7.50
   0   2  14    0.60    8.00
  -1  -2 -14    2.70    7.90
   1  -2  14   10.00    4.80
   1  -2  14   12.20    4.70
  -1   2 -14    3.40    8.00
   1   2  14    0.00    8.80
   2  -2  14  388.56   24.20
  -2  -2 -14  342.97   26.90
   2  -2  14  328.27   24.30
  -2   2 -14  398.96   28.00
   2   2  14  358.96   28.40
  -3  -2 -14   34.70   10.00
   3  -2  14   44.00    7.30
   3  -2  14   46.30    7.70
   3   2  14   50.19   12.40
  -3   2 -14   44.00   10.50
  -4  -2 -14   42.10   10.90
   4  -2  14   44.00    8.60
   4   2  14   36.90   12.90
  -4   2 -14   68.19   12.40
  -5  -2 -14    2.20   10.90
   5  -2  14   18.20    8.80
   5   2  14   25.30   13.10
  -5   2 -14   -7.90   12.40
  -6  -2 -14   81.19   14.90
  -6   2 -14  117.29   26.30
   6   2  14   51.29   18.50
   9  -3 -14   32.50   10.50
  -9  -3  14   79.59   13.30
  -9   3  14   50.79   10.60
   8  -3 -14   12.80    8.60
  -8  -3  14   21.70    8.00
  -8   3  14   14.60    9.10
   7  -3 -14   13.30    8.40
  -7  -3  14   22.20    7.30
  -7   3  14    7.30    8.70
  -7   3  14   25.50    6.00
  -6  -3  14   -5.60    6.30
   6  -3 -14   -3.60    7.20
  -6   3  14   -4.50    8.10
  -6   3  14    4.10    5.00
   5  -3 -14   79.29   10.80
  -5  -3  14  107.79   12.50
  -5   3  14   97.09   11.00
  -5   3  14   93.29   14.80
  -4  -3  14   13.50    6.60
   4  -3 -14    6.00    7.60
  -4   3  14    4.90    5.30
  -4   3  14   -1.60    7.80
  -3  -3  14   36.80    7.50
   3  -3 -14   26.90    8.60
  -3   3  14   22.50    8.90
  -3   3  14   40.30    6.40
   2  -3 -14   -6.10    7.70
  -2  -3  14   -4.00    6.00
  -2   3  14   -3.90    6.20
  -2   3  14  -10.10    8.20
  -1  -3  14   96.19   12.60
   1  -3 -14  105.29   15.30
  -1   3  14   95.69   13.30
   0  -3 -14   19.90    9.50
   0  -3  14   19.60    6.90
   0   3 -14   38.60    9.70
   0   3  14   11.40   11.10
  -1  -3 -14   64.19   11.80
   1  -3  14   56.49    8.70
  -1   3 -14   74.19   12.00
   1   3  14   64.09   13.20
  -2  -3 -14   59.79   12.20
   2  -3  14   44.60    8.10
   2   3  14   70.49   14.50
 -13   0  15   44.50    8.50
 -13   0  15   39.50    9.20
 -12   0  15    6.10    7.50
 -12   0  15    7.60    7.30
 -11   0  15 1005.00   63.49
  11   0 -15 1055.99   65.49
 -10   0  15    7.80    6.30
 -10   0  15   -1.50    6.40
  10   0 -15    1.80    6.00
  10   0 -15    7.50    5.80
  -9   0  15   12.10    6.20
   9   0 -15   18.20    5.50
  -9   0  15    2.20    5.70
   9   0 -15   16.60    6.20
   8   0 -15   -3.40    5.30
  -8   0  15   -0.90    5.70
  -8   0  15   -5.10    5.40
   8   0 -15    8.60    4.90
  -7   0  15 1839.12  108.69
  -7   0  15 1789.32  108.49
   7   0 -15 2053.59  108.29
   7   0 -15 1571.74  107.89
  -6   0  15   -1.90    5.70
   6   0 -15   -0.10    4.40
  -6   0  15   -7.30    4.90
  -6   0  15   -3.00    5.40
   6   0 -15   -5.50    4.90
  -5   0  15  300.97   22.20
   5   0 -15  348.07   21.90
   5   0 -15  319.37   21.80
  -5   0  15  309.47   22.20
  -5   0  15  339.37   22.60
  -4   0  15    0.60    4.80
   4   0 -15   -3.50    4.60
   4   0 -15    2.00    4.90
  -4   0  15   -1.40    5.20
  -4   0  15   -2.70    5.10
   3   0 -15  827.92   54.39
  -3   0  15  919.21   54.99
  -3   0  15  891.31   54.49
  -3   0  15  875.71   54.49
   3   0 -15  939.61   54.19
  -2   0  15   -0.10    4.40
  -2   0  15   -0.80    5.00
   2   0 -15   -8.30    5.40
   2   0 -15   -2.10    4.60
   1   0 -15  286.47   19.10
   1   0 -15  230.88   20.50
  -1   0  15  259.07   19.60
  -1   0  15  309.27   19.90
   0   0  15   -2.50    5.50
   0   0 -15   -4.80    4.80
   0   0 -15    1.70    7.20
  -1   0 -15  288.07   26.50
  -1   0 -15  406.26   25.40
  -1   0 -15  379.76   24.00
   1   0  15  331.17   24.80
   2   0  15   10.40    6.80
  -2   0 -15   -4.40    5.80
  -2   0 -15    5.60    7.00
  -2   0 -15    4.00    8.60
  -3   0 -15  331.97   25.20
  -3   0 -15  331.07   23.90
   3   0  15  317.27   24.70
  -4   0 -15   -8.10    8.40
   4   0  15   -1.80    9.00
  -4   0 -15   -3.50    7.40
  -5   0 -15    4.30    9.50
   5   0  15   -4.30    9.90
  -5   0 -15   -8.90    8.30
  -6   0 -15   -4.60    9.10
  -6   0 -15    5.50   10.90
   6   0  15   -5.30   10.70
 -13  -1  15   -9.80    7.90
 -13  -1  15   -3.90   10.60
  13  -1 -15    3.80    7.20
 -13   1  15  -10.90   12.40
 -13   1  15    4.60    6.80
 -12  -1  15   26.60    8.00
  12  -1 -15   30.80    7.60
 -12  -1  15   30.40    8.10
 -12   1  15   30.30    7.20
 -12   1  15   29.00    8.70
 -11  -1  15   40.70    8.30
 -11  -1  15   32.20    7.40
  11  -1 -15   36.60    7.40
 -11   1  15   32.70    7.40
 -11   1  15   39.40    8.90
 -10  -1  15   67.79   11.90
  10  -1 -15   68.89   11.80
 -10  -1  15   72.09   11.90
 -10   1  15   82.19   11.80
 -10   1  15   59.19    9.30
  -9  -1  15   19.50    6.30
   9  -1 -15   34.10    6.90
  -9  -1  15   34.10    6.50
  -9   1  15   22.90    7.30
  -9   1  15   21.50    6.20
  -8  -1  15   29.00    6.20
  -8  -1  15   31.20    6.40
  -8  -1  15   26.30    7.20
   8  -1 -15   23.00    6.50
  -8   1  15   20.90    6.90
  -8   1  15   21.40    5.90
   7  -1 -15    9.20    6.20
  -7  -1  15   26.50    6.10
  -7  -1  15   20.40    6.00
  -7   1  15   24.40    6.30
  -7   1  15   14.50    6.40
  -6  -1  15  204.38   15.90
  -6  -1  15  191.78   15.10
   6  -1 -15  173.58   15.90
  -6  -1  15  190.48   14.50
  -6   1  15  182.38   15.60
  -6   1  15  182.78   15.10
  -5  -1  15  118.39   12.10
  -5  -1  15  126.09   11.50
  -5  -1  15  103.39   10.70
  -5   1  15   96.59   12.20
  -5   1  15   98.09   11.90
  -5   1  15  104.69   12.00
  -4  -1  15   45.30    8.40
  -4  -1  15   30.30    6.60
  -4  -1  15   48.00    8.90
   4  -1 -15   26.40   10.00
  -4   1  15   48.20    6.90
  -4   1  15   45.70    7.20
  -4   1  15   45.80    7.30
  -3  -1  15  541.05   33.30
  -3  -1  15  533.75   34.10
  -3  -1  15  574.84   34.20
   3  -1 -15  499.05   37.80
  -3   1  15  529.05   34.20
  -3   1  15  532.35   33.80
  -3   1  15  484.25   33.50
  -2  -1  15  107.29   10.30
  -2  -1  15   91.89   10.10
  -2  -1  15   82.29   11.10
  -2   1  15   71.09    9.90
  -2   1  15  104.99   12.30
  -1  -1  15   -0.50    4.80
   1  -1 -15   -0.90    5.60
  -1  -1  15    4.10    4.60
  -1   1  15    1.40    5.00
  -1   1  15   -3.40    6.10
   0  -1 -15   -3.10    6.00
   0  -1  15    0.40    4.60
   0   1  15    2.80    5.20
   0   1 -15    4.00    7.10
   0   1  15    4.30    6.70
   1  -1  15  648.84   43.20
   1  -1  15  733.13   43.00
  -1  -1 -15  696.83   43.90
  -1   1 -15  754.22   44.70
   1   1  15  627.34   42.70
   1   1  15  673.73   44.50
   2  -1  15   73.99   12.10
  -2  -1 -15   88.89   14.10
   2   1  15   79.59   10.30
   2   1  15   66.69   10.80
  -2   1 -15   99.79   15.60
   3  -1  15   55.19    8.60
  -3  -1 -15   53.69    9.80
   3   1  15   56.19   10.80
  -3   1 -15   65.29   11.10
   3   1  15   45.50    7.50
  -4  -1 -15    8.90    8.70
  -4  -1 -15   26.00    8.50
   4  -1  15   29.60    8.60
  -4   1 -15   24.00   10.10
   4   1  15   13.50   10.80
  -5  -1 -15  419.76   28.50
  -5  -1 -15  338.47   29.40
   5  -1  15  340.97   28.30
   5   1  15  361.76   32.00
  -5   1 -15  388.36   30.80
   6  -1  15  136.19   18.60
  -6  -1 -15   95.59   14.80
  -6  -1 -15  134.89   18.00
   6   1  15   92.99   17.40
  -6   1 -15  103.99   16.70
  11  -2 -15   27.10    8.00
 -11  -2  15   21.60    8.50
 -11  -2  15   26.80    7.40
 -11   2  15   18.80    8.90
 -11   2  15   20.80    7.40
  10  -2 -15  139.79   14.90
 -10  -2  15  117.99   13.20
 -10  -2  15  122.99   15.20
 -10   2  15  123.19   13.60
 -10   2  15  129.69   17.30
  -9  -2  15   19.80    7.20
  -9  -2  15    5.20    5.50
   9  -2 -15    1.40    7.20
  -9   2  15    2.00    7.70
  -9   2  15   15.50    6.00
  -8  -2  15  267.37   20.70
   8  -2 -15  292.77   21.80
  -8  -2  15  261.87   18.90
  -8   2  15  257.27   21.30
  -8   2  15  266.47   19.70
  -7  -2  15   75.69    9.50
   7  -2 -15   67.49    9.70
  -7  -2  15   96.49   12.00
  -7   2  15   71.29   12.80
  -7   2  15   85.99   10.90
  -6  -2  15  290.57   19.30
  -6  -2  15  306.47   20.30
   6  -2 -15  286.37   22.00
  -6  -2  15  293.17   21.30
  -6   2  15  256.17   20.90
  -6   2  15  289.17   20.10
  -6   2  15  267.17   21.60
  -5  -2  15   93.79   10.50
   5  -2 -15   88.59   13.10
  -5  -2  15   87.69   11.80
  -5  -2  15   84.99    9.40
  -5   2  15   65.39   12.60
  -5   2  15   66.09   10.30
  -4  -2  15  217.28   17.90
   4  -2 -15  212.48   18.00
  -4  -2  15  231.28   15.70
  -4  -2  15  248.18   16.10
  -4   2  15  217.98   16.70
  -4   2  15  188.48   16.40
  -4   2  15  195.38   18.30
   3  -2 -15   66.39   12.40
  -3  -2  15   82.29    9.30
  -3  -2  15   89.09    9.70
  -3  -2  15   79.79   11.40
  -3   2  15   82.49   11.00
  -3   2  15   84.99   13.40
  -3   2  15   77.29    9.60
  -2  -2  15  306.67   18.40
  -2  -2  15  254.77   18.10
   2  -2 -15  279.27   21.20
  -2  -2  15  252.27   20.20
  -2   2  15  279.47   21.70
  -2   2  15  221.08   18.60
  -1  -2  15  193.78   18.60
  -1  -2  15  262.97   16.90
   1  -2 -15  226.78   19.70
  -1  -2  15  227.88   16.60
  -1   2  15  241.38   20.80
   1   2 -15  240.58   19.80
   0  -2  15   94.39   10.60
   0  -2  15   71.69    9.70
   0  -2 -15   83.99   14.00
   0   2 -15   73.89   14.10
   0   2  15   70.09   11.30
   1  -2  15   10.60    6.10
  -1  -2 -15   -8.20    8.10
  -1   2 -15   14.70    9.30
   1   2  15    1.80    9.70
  -2  -2 -15  126.69   18.90
   2  -2  15  132.09   13.40
   2   2  15  161.18   20.30
  -2   2 -15  173.28   19.10
  -3  -2 -15  176.88   20.70
   3  -2  15  198.98   16.90
  -3   2 -15  206.68   22.20
   3   2  15  197.58   23.90
   4  -2  15   -8.10    7.60
  -4  -2 -15   -4.10   10.30
   4   2  15  -11.60   13.00
  -4   2 -15    9.60   11.80
   7  -3 -15    1.20    8.60
  -7  -3  15   13.50    7.90
  -7   3  15   -3.60    9.00
  -6  -3  15   17.00    7.50
   6  -3 -15    6.00    8.40
  -6   3  15    8.10    6.00
  -6   3  15   -1.30    8.90
  -5  -3  15  241.58   19.90
   5  -3 -15  229.08   22.20
  -5   3  15  254.77   22.00
  -5   3  15  264.27   18.70
  -4  -3  15   21.20    7.00
   4  -3 -15    8.20    8.60
  -4   3  15   22.00    6.10
  -4   3  15    7.80    8.90
  -3  -3  15   10.70    6.90
   3  -3 -15   -1.30    8.50
  -3   3  15    8.90    5.70
  -3   3  15    3.50    9.00
   2  -3 -15   -0.10    8.70
  -2  -3  15   13.80    7.00
  -2   3  15    1.20    9.70
  -2   3  15    6.60    5.90
   1  -3 -15   49.40   10.60
  -1  -3  15   55.49    8.70
  -1   3  15   55.29   12.50
   0  -3  15   16.50    7.50
   0  -3 -15   27.20   10.20
   0   3 -15   20.90   10.20
   0   3  15    9.50   12.10
   1  -3  15    8.90    7.10
 -13   0  16   -4.40    8.00
 -12   0  16   25.40    8.50
 -12   0  16   19.50    8.00
  11   0 -16   -0.20    7.20
 -11   0  16    8.20    7.40
 -11   0  16    3.00    7.30
 -10   0  16  162.08   16.40
  10   0 -16  204.58   16.40
 -10   0  16  156.78   16.00
  -9   0  16   12.70    6.50
  -9   0  16    0.80    6.50
   9   0 -16   15.30    5.60
   9   0 -16   -3.80    6.20
   8   0 -16  109.09   12.10
  -8   0  16  111.79   12.50
   8   0 -16   87.09   11.00
  -8   0  16   90.29   12.20
   7   0 -16    0.70    5.70
   7   0 -16    4.80    4.90
  -7   0  16   -2.00    5.60
  -7   0  16   -1.90    5.80
   6   0 -16  586.14   33.10
   6   0 -16  455.25   32.70
  -6   0  16  496.25   33.10
  -6   0  16  520.95   33.60
  -5   0  16   -4.80    5.60
   5   0 -16   -3.30    5.00
   5   0 -16   -5.60    5.20
  -5   0  16    1.30    6.00
   4   0 -16   97.79   11.50
   4   0 -16   78.99   11.80
  -4   0  16  110.59   12.10
  -4   0  16  112.59   12.40
  -3   0  16   -5.20    5.70
   3   0 -16  -10.00    5.20
  -3   0  16   -4.40    6.00
   3   0 -16   -9.30    5.50
   2   0 -16 1244.18   65.49
   2   0 -16  918.31   65.69
  -2   0  16 1073.59   65.99
   1   0 -16   -2.00    5.30
  -1   0  16   -4.90    5.80
   1   0 -16   -2.30    6.70
   0   0 -16  364.76   30.30
   0   0  16  419.26   29.20
   0   0 -16  499.25   28.70
  -1   0 -16    0.50    7.20
   1   0  16    1.40    6.60
  -1   0 -16    1.60    6.00
  -1   0 -16    5.30    8.60
  -2   0 -16  534.35   35.80
   2   0  16  509.75   36.90
  -2   0 -16  612.94   37.50
  -3   0 -16   -0.90    7.00
   3   0  16    9.90    8.40
  -3   0 -16   14.30    9.20
  -4   0 -16  687.83   42.90
   4   0  16  563.24   42.80
  -5   0 -16  -10.00   10.30
  -5   0 -16  -16.60    9.10
   5   0  16   -8.70   10.90
 -12  -1  16   26.10    8.60
  12  -1 -16   19.60    7.60
 -12  -1  16   16.90    7.90
 -12   1  16   25.90    7.80
 -12   1  16   21.80    9.30
  11  -1 -16   80.49   13.50
 -11  -1  16   79.49   13.10
 -11  -1  16  118.29   14.20
 -11   1  16   76.39   13.10
 -11   1  16   82.89   11.30
  10  -1 -16  413.96   27.30
 -10  -1  16  362.86   27.20
 -10  -1  16  403.16   28.00
 -10   1  16  389.66   28.50
 -10   1  16  403.16   27.30
  -9  -1  16   46.70    8.10
   9  -1 -16   44.20    7.80
  -9  -1  16   45.10    7.50
  -9   1  16   45.60    7.70
  -9   1  16   57.19    8.90
   8  -1 -16  183.88   16.10
  -8  -1  16  166.38   16.50
  -8  -1  16  181.28   15.10
  -8   1  16  162.68   16.20
  -8   1  16  167.58   15.00
  -7  -1  16  157.58   14.60
   7  -1 -16  135.49   14.30
  -7  -1  16  148.49   14.50
  -7  -1  16  142.59   13.10
  -7   1  16  125.69   14.20
  -7   1  16  141.59   13.60
  -6  -1  16  229.08   18.40
  -6  -1  16  239.58   18.30
   6  -1 -16  234.08   18.40
  -6  -1  16  227.98   17.20
  -6   1  16  218.68   17.70
  -6   1  16  228.08   18.70
  -5  -1  16    5.60    6.10
   5  -1 -16    4.70    6.40
  -5  -1  16    6.80    5.70
  -5  -1  16   16.20    5.70
  -5   1  16   13.50    5.90
  -5   1  16    6.90    6.30
   4  -1 -16  308.97   21.50
  -4  -1  16  316.17   21.40
  -4  -1  16  271.87   21.70
  -4   1  16  308.87   22.00
  -4   1  16  299.47   22.10
  -3  -1  16  235.68   18.40
  -3  -1  16  232.88   22.90
  -3  -1  16  261.87   17.50
   3  -1 -16  222.28   18.30
  -3   1  16  222.88   18.60
  -3   1  16  209.98   17.60
  -3   1  16  230.58   18.00
  -2  -1  16    0.40    4.80
  -2  -1  16    3.50    5.30
   2  -1 -16   -2.00    6.00
  -2  -1  16   -4.80    5.90
  -2   1  16   -7.60    5.30
  -2   1  16    5.40    6.70
  -1  -1  16   18.60    5.80
   1  -1 -16   17.50    6.70
  -1  -1  16   25.40    5.70
  -1   1  16   19.30    7.80
  -1   1  16   18.40    6.30
   0  -1  16  129.39   13.20
   0  -1  16  148.89   13.70
   0  -1 -16  133.69   14.60
   0   1  16  134.79   16.20
   0   1 -16  145.69   15.80
   0   1  16  113.79   13.00
   1  -1  16   44.20    7.60
  -1  -1 -16   52.69    8.70
  -1   1 -16   55.39   10.20
   1   1  16   34.50   11.20
   1   1  16   39.70    9.50
   2  -1  16   69.79   13.10
  -2  -1 -16   82.89   11.00
   2   1  16   82.49   11.80
   3  -1  16   -2.80    7.40
  -3  -1 -16   -0.50    8.80
   3   1  16    1.60    8.90
  -3   1 -16    0.10    9.60
  -4  -1 -16    8.10    9.30
   4  -1  16    7.60    8.20
  -4  -1 -16   -3.10    9.70
   4   1  16    6.80   10.90
  -4   1 -16   -3.40   10.10
  -5  -1 -16   -9.30   10.30
   5  -1  16   11.60    9.80
  -5  -1 -16    7.40   10.00
   5   1  16   -1.40   16.40
  -5   1 -16   16.30   12.40
 -10  -2  16    3.20    6.10
  10  -2 -16    4.20    7.70
 -10  -2  16   -1.10    8.40
 -10   2  16    9.00    9.10
 -10   2  16   13.60    7.10
   9  -2 -16  124.99   15.60
  -9  -2  16  130.49   13.50
  -9  -2  16  150.58   16.40
  -9   2  16  136.89   13.80
  -9   2  16  145.39   16.80
  -8  -2  16   37.40    8.10
   8  -2 -16   31.10    8.60
  -8  -2  16   40.60    6.90
  -8   2  16   35.30    7.10
  -8   2  16   33.80    8.80
  -7  -2  16   -0.30    6.90
   7  -2 -16   -7.30    7.10
  -7  -2  16   -2.60    5.10
  -7   2  16   -0.70    7.40
  -7   2  16    1.60    5.60
   6  -2 -16   37.70    8.20
  -6  -2  16   44.50    8.00
  -6  -2  16   46.40    6.20
  -6   2  16   25.40    7.80
  -6   2  16   34.50    6.90
   5  -2 -16  296.97   22.60
  -5  -2  16  304.87   20.30
  -5  -2  16  303.37   22.00
  -5   2  16  294.47   21.10
  -5   2  16  261.37   22.50
  -4  -2  16    2.70    4.90
  -4  -2  16    2.40    6.50
  -4   2  16    7.40    5.90
  -4   2  16   -4.40    7.30
  -3  -2  16    7.40    6.40
  -3  -2  16    0.60    4.90
  -3   2  16    4.10    6.00
  -2  -2  16  110.09   13.30
  -2  -2  16  118.59   11.20
   2  -2 -16   99.19   14.70
  -2   2  16  119.99   16.20
  -1  -2  16  300.67   20.50
   1  -2 -16  306.07   23.90
  -1  -2  16  267.57   22.40
  -1   2  16  311.67   24.50
   0  -2  16   65.89   11.10
   0  -2 -16   60.59   10.40
   0   2 -16   65.19   11.10
   0   2  16   64.79   11.60
   1  -2  16    9.10    5.90
  -1  -2 -16    1.20    8.80
   1   2  16   -4.20    9.80
  -1   2 -16   16.30    9.60
  -2  -2 -16   19.40   10.20
   2  -2  16   19.20    6.60
   2   2  16    9.20   11.60
  -2   2 -16   23.20   11.20
  -3  -2 -16  134.49   20.40
   3  -2  16  162.38   16.10
  -3   2 -16  216.48   30.10
   3   2  16  153.48   26.40
  -4  -3  16  113.29   15.50
  -4   3  16  123.29   13.40
  -3  -3  16   23.70    7.90
  -3   3  16   24.20    7.10
 -12   0  17   -2.40    8.00
 -11   0  17   43.70    9.20
 -11   0  17   40.00    9.30
 -10   0  17   -0.20    7.00
 -10   0  17   -7.10    7.30
   9   0 -17  149.09   14.20
  -9   0  17  109.09   14.00
  -9   0  17  107.79   14.40
  -8   0  17    0.80    6.60
   8   0 -17   -7.70    6.10
  -8   0  17    0.80    6.30
  -7   0  17   18.00    7.30
   7   0 -17   28.50    6.80
  -7   0  17   19.90    7.00
   6   0 -17   -8.30    5.80
   6   0 -17   -1.40    5.80
  -6   0  17    1.40    6.10
  -6   0  17   -2.50    6.40
   5   0 -17   25.90    6.50
  -5   0  17   28.70    7.10
   5   0 -17   15.20    6.50
  -5   0  17   36.90    7.50
   4   0 -17   -7.80    5.50
  -4   0  17    0.50    5.80
   4   0 -17   -4.90    5.80
  -4   0  17    7.00    6.40
  -3   0  17    1.50    6.60
   3   0 -17    1.70    6.10
   3   0 -17   -3.60    5.70
  -3   0  17    4.40    6.20
   2   0 -17   -9.20    5.80
  -2   0  17   -0.20    6.50
   2   0 -17    3.10    7.10
  -1   0  17   33.00    7.70
   1   0 -17   15.90    9.30
   1   0 -17   40.10    7.00
   0   0 -17   -4.80    6.20
   0   0  17   11.00    6.80
  -1   0 -17   90.89   13.20
   1   0  17  104.69   13.70
  -2   0 -17   -1.60    7.20
  -2   0 -17    5.20    8.80
   2   0  17    0.10    8.00
   3   0  17   41.80   10.60
  -3   0 -17   54.39   14.70
  -3   0 -17   59.09   11.00
   4   0  17    6.20    9.30
  -4   0 -17    8.80   10.60
 -11  -1  17  144.69   16.30
 -11  -1  17  164.48   22.30
  11  -1 -17  159.68   16.30
 -11   1  17  130.59   15.50
 -11   1  17  148.79   19.30
 -10  -1  17   29.40    7.80
  10  -1 -17   23.10    7.60
 -10  -1  17   25.90    8.30
 -10   1  17   37.00    9.00
 -10   1  17   24.10    7.20
  -9  -1  17   57.29   10.30
  -9  -1  17   55.89    9.00
   9  -1 -17   67.59    9.10
  -9   1  17   52.89    9.80
  -9   1  17   82.09   12.10
  -8  -1  17  203.78   18.10
   8  -1 -17  200.78   17.70
  -8  -1  17  210.78   17.20
  -8   1  17  196.08   17.50
  -8   1  17  200.68   18.80
  -7  -1  17  470.75   31.30
  -7  -1  17  485.35   32.30
   7  -1 -17  492.85   31.80
  -7   1  17  471.85   31.50
  -7   1  17  451.25   31.90
   6  -1 -17   61.99    8.80
  -6  -1  17   58.29    8.00
  -6  -1  17   78.19   11.80
  -6   1  17   52.19    8.50
  -6   1  17   51.69    8.50
  -5  -1  17    4.50    5.70
  -5  -1  17   11.20    6.90
  -5  -1  17    5.50    6.60
   5  -1 -17   -9.00    6.70
  -5   1  17   10.10    6.40
  -5   1  17   11.20    7.10
   4  -1 -17  233.18   18.70
  -4  -1  17  237.58   18.00
  -4  -1  17  229.08   17.80
  -4  -1  17  223.88   18.90
  -4   1  17  226.58   19.50
  -4   1  17  227.38   18.40
  -3  -1  17  457.45   29.50
  -3  -1  17  425.96   28.70
   3  -1 -17  456.55   29.50
  -3  -1  17  430.16   29.60
  -3   1  17  416.16   29.60
  -3   1  17  412.66   29.80
  -2  -1  17   57.19   10.70
   2  -1 -17   52.79    8.70
  -2  -1  17   74.49   11.80
  -2   1  17   60.09    9.50
   1  -1 -17  -11.60    6.70
  -1  -1  17    1.30    5.70
  -1   1  17   -5.90    7.60
   0  -1 -17  135.99   15.80
   0  -1  17  143.69   14.50
   0   1  17  157.28   17.30
   1  -1  17  317.17   25.00
  -1  -1 -17  360.46   26.80
   1   1  17  354.46   28.10
  -1   1 -17  392.36   27.70
  -2  -1 -17   67.59   11.10
   2  -1  17   73.19   13.60
   2   1  17  101.39   17.00
  -3  -1 -17   36.30   10.70
   3  -1  17   39.20    9.30
   3   1  17   36.10   11.70
  -3   1 -17   47.30   12.20
  -9  -2  17   28.90    9.60
  -9   2  17   31.90    7.60
   8  -2 -17   10.10    8.30
  -8  -2  17   21.10    8.30
  -8  -2  17    9.70    6.50
  -8   2  17   23.60    7.00
  -8   2  17    3.90    8.60
  -7  -2  17   86.89   11.90
  -7  -2  17   97.69   14.50
   7  -2 -17  102.19   15.90
  -7   2  17   97.89   16.00
  -7   2  17  132.99   13.10
   6  -2 -17    3.10    7.60
  -6  -2  17    3.30    5.60
  -6  -2  17    9.70    7.50
  -6   2  17    0.40    7.60
  -6   2  17    4.10    6.40
   5  -2 -17  184.28   18.60
  -5  -2  17  230.38   19.30
  -5   2  17  229.68   17.80
  -5   2  17  205.68   19.30
   4  -2 -17   -3.20    7.40
  -4  -2  17   -5.70    6.80
  -4   2  17   -9.60    7.70
  -4   2  17   -3.10    6.20
   3  -2 -17  -10.90    7.30
  -3  -2  17    7.20    6.70
  -3   2  17   -2.70    6.60
  -3   2  17   -8.10    8.40
   2  -2 -17   -5.10    7.90
  -2  -2  17    9.40    5.60
  -2  -2  17    8.70    7.20
  -2   2  17    4.70    9.20
  -1  -2  17  110.79   12.20
   1  -2 -17  129.69   16.60
  -1  -2  17  100.69   14.20
  -1   2  17  111.79   18.70
   0  -2  17   17.70    6.10
   0  -2 -17   11.40    9.10
   0  -2  17   -4.20    6.90
   0   2 -17   24.30   10.20
   0   2  17   12.60    9.90
   1  -2  17   14.30    6.50
  -1  -2 -17    5.60    9.80
  -1   2 -17   31.00   17.00
   1   2  17   -1.60   17.70
 -10   0  18  623.04   40.50
 -10   0  18  593.94   39.90
  -9   0  18    0.30    7.70
  -9   0  18    1.40    7.50
  -8   0  18    6.20    7.00
  -8   0  18   -0.80    7.10
  -7   0  18  -10.60    7.10
  -7   0  18   -4.80    6.60
  -6   0  18  747.53   47.40
  -6   0  18  748.03   47.80
   5   0 -18  -13.00    9.80
  -5   0  18    3.20    7.00
  -5   0  18    1.20    6.70
   4   0 -18   54.69    9.50
  -4   0  18   57.99    9.10
  -4   0  18   47.20    8.30
   3   0 -18   -3.20    7.60
  -3   0  18   -4.80    6.90
  -3   0  18    0.20    6.80
   2   0 -18  324.37   25.90
  -2   0  18  256.37   20.80
  -2   0  18  251.57   21.70
  -1   0  18   -5.20    6.90
   0   0  18  128.19   15.90
   1   0  18    0.30    7.80
   2   0  18    7.50    8.50
 -10   1  18   -1.60    7.00
   9  -1 -18   21.50    8.10
  -9  -1  18   33.80    8.90
  -9  -1  18   25.60    8.00
  -9   1  18   24.70    7.70
  -9   1  18   17.90    9.10
  -8  -1  18   -2.70    6.80
   8  -1 -18   -5.40    7.50
  -8  -1  18    5.10    7.80
  -8   1  18    8.30    7.10
  -8   1  18   10.00    7.80
  -7  -1  18    9.40    7.70
   7  -1 -18   -5.40    7.20
  -7  -1  18  -10.00    6.00
  -7   1  18    0.40    7.10
  -7   1  18   -3.10    7.20
  -6  -1  18   77.29   12.10
   6  -1 -18   59.09    9.50
  -6  -1  18   92.99   13.30
  -6   1  18   66.69    9.90
  -6   1  18   76.69   13.10
   5  -1 -18   11.70    7.70
  -5  -1  18   19.30    7.50
  -5  -1  18   21.70    6.80
  -5   1  18   16.40    7.40
  -5   1  18   19.90    8.20
  -4  -1  18   14.70    7.50
  -4  -1  18   11.40    6.80
   4  -1 -18    4.90    7.40
  -4   1  18   10.70    7.00
  -4   1  18    7.70    8.10
   3  -1 -18   23.90    8.00
  -3  -1  18   33.60    7.40
  -3  -1  18   36.50    8.10
  -3   1  18   33.70    8.80
  -3   1  18   34.40    8.20
  -2  -1  18  267.67   22.00
  -2  -1  18  289.47   21.50
   2  -1 -18  287.77   22.50
  -2   1  18  292.97   23.20
   1  -1 -18   52.49    9.20
  -1  -1  18   50.79    8.10
  -1   1  18   58.59   10.30
   0  -1 -18   -1.30    8.10
   0  -1  18   15.90    6.70
   0   1  18    1.60    8.70
  -1  -1 -18   32.80    9.40
   1  -1  18   20.40    7.80
   1   1  18   18.00    9.50
  -1   1 -18   29.80   10.80
  -6  -2  18   68.09   10.80
  -6   2  18   86.69   13.10
   5  -2 -18   46.00    9.70
  -5  -2  18   44.70    7.40
  -5  -2  18   50.79    9.40
  -5   2  18   38.90    8.10
  -5   2  18   54.79   16.80
  -4  -2  18  186.48   18.30
  -4  -2  18  192.98   16.70
   4  -2 -18  189.98   19.00
  -4   2  18  216.28   28.60
  -4   2  18  205.08   17.90
  -3  -2  18   86.49   13.90
  -3  -2  18   76.99   11.70
   3  -2 -18   72.09   11.30
  -3   2  18   95.69   13.10
  -2  -2  18    6.20    7.70
  -2   2  18  -10.20    7.00
  -8   0  19   -1.60    7.60
  -8   0  19    4.60    8.20
  -7   0  19  154.28   17.60
  -7   0  19  152.08   16.60
  -6   0  19    4.70    8.00
  -6   0  19   -4.10    7.20
  -5   0  19  277.27   22.10
  -5   0  19  292.47   22.60
  -4   0  19    6.70    7.30
  -4   0  19    2.30    7.30
  -3   0  19  314.07   23.30
  -3   0  19  295.67   23.60
  -2   0  19   -0.80    7.50
  -2   0  19   -3.20    7.40
  -1   0  19  215.48   20.20
   0   0  19   -9.70    8.40
  -7  -1  19   68.99    9.50
   7  -1 -19   79.39   14.70
  -7   1  19   65.49   10.50
  -7   1  19   54.09    9.50
  -6  -1  19   49.40    9.60
   6  -1 -19   46.40    9.20
  -6  -1  19   53.59    8.50
  -6   1  19   34.30    9.20
  -6   1  19   38.20    9.00
   5  -1 -19   35.00    9.20
  -5  -1  19   33.30    9.10
  -5  -1  19   44.50    8.00
  -5   1  19   44.80    9.40
  -5   1  19   29.40    8.70
  -4  -1  19   24.40    7.90
   4  -1 -19    8.10    8.40
  -4  -1  19   22.80    7.80
  -4   1  19   33.10    9.30
  -4   1  19   17.00    8.10
  -3  -1  19  145.69   14.90
   3  -1 -19  132.99   16.30
  -3  -1  19  132.79   15.70
  -3   1  19  121.39   16.70
  -3   1  19  123.79   15.90
  -2  -1  19    1.40    8.60
   2  -1 -19    1.60    8.20
  -2  -1  19    3.40    7.00
  -2   1  19   -3.00    7.40
  -2   1  19   -9.80    8.80
_computing_structure_solution     'SHELXT 2014/4 (Sheldrick, 2014)'
;
_shelx_hkl_checksum              84759
_shelx_res_file
;
TITL datam_a.res in P2(1)/n
 shelx.res created by SHELXL-2016/4 at 14:19:46 on 24-Feb-2017
CELL  0.71073  13.1047   4.0310  15.7631   90.000  105.720   90.000
ZERR     4.00   0.0016   0.0004   0.0018    0.000    0.004    0.000
LATT   1
SYMM  1/2 - X, 1/2 + Y, 1/2 - Z
SFAC  C    H    N    BR
UNIT  24 24 8 8
MERG   2
DFIX 0.86 0.04 N2 H1
DFIX 0.86 0.04 N2 H2
FMAP   2
PLAN   10
ACTA
BOND
BOND   $H
CONF
SIZE 0.20 0.22 0.26
L.S.  50
TEMP     23.00
WGHT    0.070100    0.463000
EXTI    0.063995
FVAR       0.64415
C1    1    0.323738    0.499984    0.444476    11.00000    0.02620    0.04556 =
         0.03126   -0.00382    0.00320   -0.00187
C2    1    0.212521    0.519412    0.415300    11.00000    0.02893    0.03988 =
         0.03039   -0.00441    0.00194    0.00032
C3    1    0.152231    0.399361    0.466844    11.00000    0.02427    0.04394 =
         0.03761   -0.00467    0.00461   -0.00192
AFIX  43
H3    2    0.078637    0.410750    0.448303    11.00000   -1.20000
AFIX   0
C4    1    0.203795    0.259720    0.547744    11.00000    0.03658    0.04010 =
         0.03472   -0.00307    0.01225   -0.00400
C5    1    0.312577    0.240386    0.574559    11.00000    0.03590    0.04500 =
         0.02880   -0.00064    0.00292   -0.00003
C6    1    0.374770    0.091022    0.659321    11.00000    0.05179    0.07371 =
         0.03969    0.01115    0.00427   -0.00054
AFIX 137
H6A   2    0.417884   -0.086130    0.647437    11.00000   -1.50000
H6B   2    0.327119    0.005584    0.690749    11.00000   -1.50000
H6C   2    0.419361    0.257416    0.694366    11.00000   -1.50000
AFIX   0
N1    3    0.371037    0.363307    0.522581    11.00000    0.02603    0.05585 =
         0.03078    0.00176    0.00309   -0.00204
N2    3    0.388340    0.609313    0.395535    11.00000    0.03177    0.08503 =
         0.03717    0.00907    0.00733   -0.00636
BR1   4    0.146920    0.709910    0.303850    11.00000    0.03508    0.05614 =
         0.03367    0.00301   -0.00072    0.00406
BR2   4    0.119140    0.101166    0.619756    11.00000    0.05235    0.06466 =
         0.05252    0.00559    0.02481   -0.00825
H1    2    0.359443    0.736498    0.350891    11.00000    0.05630
H2    2    0.457672    0.608835    0.414658    11.00000    0.06293
HKLF 4
REM  datam_a.res in P2(1)/n
REM R1 =  0.0381 for    1461 Fo > 4sig(Fo)  and  0.0440 for all    1670 data
REM    101 parameters refined using      2 restraints
END
WGHT      0.0707      0.4208
REM Highest difference peak  1.032,  deepest hole -0.862,  1-sigma level  0.139
Q1    1   0.0767  0.7077  0.2863  11.00000  0.05    1.03
Q2    1   0.2179  0.7035  0.3309  11.00000  0.05    0.94
Q3    1   0.1863  0.0933  0.6440  11.00000  0.05    0.90
Q4    1   0.2383  0.6930  0.2793  11.00000  0.05    0.71
Q5    1   0.0406  0.1203  0.5837  11.00000  0.05    0.64
Q6    1   0.1379  0.7097  0.3602  11.00000  0.05    0.58
Q7    1   0.2629  0.5310  0.4244  11.00000  0.05    0.51
Q8    1   0.1231  0.0855  0.5736  11.00000  0.05    0.42
Q9    1   0.3558  0.2326  0.7031  11.00000  0.05    0.42
Q10   1   0.2091  0.1431  0.5980  11.00000  0.05    0.41
;
_shelx_res_checksum              21962
loop_
_space_group_symop_operation_xyz
'x, y, z'
'-x+1/2, y+1/2, -z+1/2'
'-x, -y, -z'
'x-1/2, -y-1/2, z-1/2'
loop_
_atom_site_type_symbol
_atom_site_label
_atom_site_fract_x
_atom_site_fract_y
_atom_site_fract_z
_atom_site_U_iso_or_equiv
_atom_site_adp_type
_atom_site_calc_flag
_atom_site_occupancy
C C1 0.3237(3) 0.5000(10) 0.4445(2) 0.0352(8) Uani d 1
C C2 0.2125(3) 0.5194(10) 0.4153(2) 0.0343(8) Uani d 1
C C3 0.1522(3) 0.3994(10) 0.4668(2) 0.0360(8) Uani d 1
H H3 0.078637 0.410750 0.448303 0.043 Uiso calc 1
C C4 0.2038(3) 0.2597(9) 0.5477(3) 0.0366(9) Uani d 1
C C5 0.3126(3) 0.2404(10) 0.5746(3) 0.0377(9) Uani d 1
C C6 0.3748(4) 0.0910(15) 0.6593(3) 0.0566(12) Uani d 1
H H6A 0.417884 -0.086130 0.647437 0.085 Uiso calc 1
H H6B 0.327119 0.005584 0.690749 0.085 Uiso calc 1
H H6C 0.419361 0.257416 0.694366 0.085 Uiso calc 1
N N1 0.3710(3) 0.3633(9) 0.5226(2) 0.0385(8) Uani d 1
N N2 0.3883(3) 0.6093(13) 0.3955(3) 0.0517(10) Uani d 1
Br BR1 0.14692(3) 0.70991(12) 0.30385(3) 0.0436(2) Uani d 1
Br BR2 0.11914(4) 0.10117(13) 0.61976(3) 0.0544(3) Uani d 1
H H1 0.359(4) 0.736(12) 0.351(3) 0.056(16) Uiso d 1
H H2 0.458(3) 0.609(15) 0.415(3) 0.063(16) Uiso d 1
loop_
_atom_site_aniso_label
_atom_site_aniso_U_11
_atom_site_aniso_U_22
_atom_site_aniso_U_33
_atom_site_aniso_U_12
_atom_site_aniso_U_13
_atom_site_aniso_U_23
C1 0.026(2) 0.046(2) 0.0313(18) -0.0019(16) 0.0032(15) -0.0038(16)
C2 0.029(2) 0.040(2) 0.0304(18) 0.0003(16) 0.0019(15) -0.0044(15)
C3 0.0243(19) 0.044(2) 0.038(2) -0.0019(15) 0.0046(16) -0.0047(17)
C4 0.037(2) 0.040(2) 0.035(2) -0.0040(16) 0.0123(17) -0.0031(15)
C5 0.036(2) 0.045(2) 0.0288(19) 0.0000(16) 0.0029(16) -0.0006(15)
C6 0.052(3) 0.074(3) 0.040(2) -0.001(2) 0.004(2) 0.011(2)
N1 0.0260(17) 0.056(2) 0.0308(16) -0.0020(15) 0.0031(13) 0.0018(15)
N2 0.032(2) 0.085(3) 0.037(2) -0.0064(19) 0.0073(17) 0.0091(19)
BR1 0.0351(3) 0.0561(3) 0.0337(3) 0.00406(17) -0.00072(19) 0.00301(17)
BR2 0.0524(4) 0.0647(4) 0.0525(3) -0.0082(2) 0.0248(2) 0.0056(2)
loop_
_atom_type_symbol
_atom_type_description
_atom_type_scat_dispersion_real
_atom_type_scat_dispersion_imag
_atom_type_scat_source
C C 0.0033 0.0016 'International Tables Vol C Tables 4.2.6.8 and 6.1.1.4'
H H 0.0000 0.0000 'International Tables Vol C Tables 4.2.6.8 and 6.1.1.4'
N N 0.0061 0.0033 'International Tables Vol C Tables 4.2.6.8 and 6.1.1.4'
Br Br -0.2901 2.4595 'International Tables Vol C Tables 4.2.6.8 and 6.1.1.4'
loop_
_geom_angle_atom_site_label_1
_geom_angle_atom_site_label_2
_geom_angle_atom_site_label_3
_geom_angle
N1 C1 N2 116.7(4)
N1 C1 C2 120.3(3)
N2 C1 C2 123.0(4)
C3 C2 C1 120.1(3)
C3 C2 BR1 120.3(3)
C1 C2 BR1 119.7(3)
C2 C3 C4 118.2(4)
C2 C3 H3 120.9
C4 C3 H3 120.9
C5 C4 C3 120.7(4)
C5 C4 BR2 121.5(3)
C3 C4 BR2 117.8(3)
N1 C5 C4 120.1(4)
N1 C5 C6 115.3(4)
C4 C5 C6 124.6(4)
C5 C6 H6A 109.5
C5 C6 H6B 109.5
H6A C6 H6B 109.5
C5 C6 H6C 109.5
H6A C6 H6C 109.5
H6B C6 H6C 109.5
C1 N1 C5 120.6(3)
C1 N2 H1 117(4)
C1 N2 H2 123(4)
H1 N2 H2 118(5)
loop_
_geom_bond_atom_site_label_1
_geom_bond_atom_site_label_2
_geom_bond_distance
C1 N1 1.338(5)
C1 N2 1.364(5)
C1 C2 1.407(5)
C2 C3 1.366(6)
C2 BR1 1.896(4)
C3 C4 1.390(6)
C3 H3 0.9300
C4 C5 1.375(6)
C4 BR2 1.900(4)
C5 N1 1.358(5)
C5 C6 1.491(6)
C6 H6A 0.9600
C6 H6B 0.9600
C6 H6C 0.9600
N2 H1 0.87(3)
N2 H2 0.88(3)
loop_
_geom_hbond_atom_site_label_D
_geom_hbond_atom_site_label_H
_geom_hbond_atom_site_label_A
_geom_hbond_site_symmetry_A
_geom_hbond_distance_DH
_geom_hbond_distance_HA
_geom_hbond_distance_DA
_geom_hbond_angle_DHA
N2 H1 Br1 . 0.87(5) 2.68(5) 3.128(4) 114(4)
N2 H2 N1 3_666 0.88(4) 2.19(4) 3.070(6) 173(3)
loop_
_geom_torsion_atom_site_label_1
_geom_torsion_atom_site_label_2
_geom_torsion_atom_site_label_3
_geom_torsion_atom_site_label_4
_geom_torsion
N1 C1 C2 C3 0.2(6)
N2 C1 C2 C3 178.7(4)
N1 C1 C2 BR1 -179.4(3)
N2 C1 C2 BR1 -0.8(6)
C1 C2 C3 C4 0.0(6)
BR1 C2 C3 C4 179.5(3)
C2 C3 C4 C5 -0.6(6)
C2 C3 C4 BR2 178.9(3)
C3 C4 C5 N1 1.1(6)
BR2 C4 C5 N1 -178.4(3)
C3 C4 C5 C6 -179.1(4)
BR2 C4 C5 C6 1.4(6)
N2 C1 N1 C5 -178.3(4)
C2 C1 N1 C5 0.3(6)
C4 C5 N1 C1 -0.9(6)
C6 C5 N1 C1 179.3(4)

_cod_database_fobs_code 1546688
